MODEL 1
REMARK VINA RESULT:      -7.5      0.000      0.000
REMARK  Name = 
REMARK  12 active torsions:
REMARK  status: ('A' for Active; 'I' for Inactive)
REMARK    1  A    between atoms: C_1  and  O_2
REMARK    2  A    between atoms: O_2  and  C_3
REMARK    3  A    between atoms: C_5  and  C_6
REMARK    4  A    between atoms: C_6  and  O_8
REMARK    5  A    between atoms: O_8  and  C_9
REMARK    6  A    between atoms: C_9  and  C_10
REMARK    7  A    between atoms: C_13  and  C_14
REMARK    8  A    between atoms: C_17  and  N_18
REMARK    9  A    between atoms: C_25  and  O_26
REMARK   10  A    between atoms: O_26  and  C_27
REMARK   11  A    between atoms: C_28  and  O_29
REMARK   12  A    between atoms: O_29  and  C_30
REMARK                            x       y       z     vdW  Elec       q    Type
REMARK                         _______ _______ _______ _____ _____    ______ ____
ROOT
ATOM      1  O   UNL     1       4.387   3.178  18.359  0.00  0.00    +0.000 OA
ENDROOT
BRANCH   1   2
ATOM      2  C   UNL     1       3.953   3.649  17.168  0.00  0.00    +0.000 C 
ATOM      3  O   UNL     1       2.788   3.776  16.820  0.00  0.00    +0.000 OA
BRANCH   2   6
ATOM      4  C   UNL     1       6.265   3.922  14.202  0.00  0.00    +0.000 A 
ATOM      5  C   UNL     1       5.312   3.444  15.114  0.00  0.00    +0.000 A 
ATOM      6  C   UNL     1       5.106   4.082  16.335  0.00  0.00    +0.000 A 
ATOM      7  C   UNL     1       5.943   5.137  16.693  0.00  0.00    +0.000 A 
ATOM      8  C   UNL     1       6.968   5.571  15.837  0.00  0.00    +0.000 A 
ATOM      9  C   UNL     1       7.140   4.970  14.569  0.00  0.00    +0.000 A 
BRANCH   4  11
ATOM     10  C   UNL     1       5.184   3.422  12.152  0.00  0.00    +0.000 C 
ATOM     11  O   UNL     1       6.363   3.348  12.959  0.00  0.00    +0.000 OA
ENDBRANCH   4  11
BRANCH   8  12
ATOM     12  O   UNL     1       7.672   6.607  16.402  0.00  0.00    +0.000 OA
ATOM     13  C   UNL     1       7.426   6.977  17.748  0.00  0.00    +0.000 C 
ENDBRANCH   8  12
BRANCH   9  14
ATOM     14  O   UNL     1       8.165   5.461  13.810  0.00  0.00    +0.000 OA
ATOM     15  C   UNL     1       7.976   5.807  12.449  0.00  0.00    +0.000 C 
ENDBRANCH   9  14
ENDBRANCH   2   6
ENDBRANCH   1   2
BRANCH   1  16
ATOM     16  C   UNL     1       4.790   4.174  19.305  0.00  0.00    +0.000 C 
BRANCH  16  17
ATOM     17  C   UNL     1       3.583   4.901  19.773  0.00  0.00    +0.000 A 
ATOM     18  C   UNL     1       2.569   4.551  20.640  0.00  0.00    +0.000 A 
ATOM     19  C   UNL     1       1.697   5.663  20.699  0.00  0.00    +0.000 A 
ATOM     20  C   UNL     1       2.227   6.638  19.873  0.00  0.00    +0.000 A 
ATOM     21  O   UNL     1       3.382   6.169  19.305  0.00  0.00    +0.000 OA
BRANCH  20  22
ATOM     22  C   UNL     1       1.824   8.007  19.543  0.00  0.00    +0.000 A 
ATOM     23  C   UNL     1       1.165   8.796  20.502  0.00  0.00    +0.000 A 
ATOM     24  C   UNL     1       0.827  10.128  20.243  0.00  0.00    +0.000 A 
ATOM     25  C   UNL     1       1.147  10.688  19.001  0.00  0.00    +0.000 A 
ATOM     26  C   UNL     1       1.772   9.914  18.017  0.00  0.00    +0.000 A 
ATOM     27  C   UNL     1       2.107   8.577  18.290  0.00  0.00    +0.000 A 
BRANCH  25  28
ATOM     28  N   UNL     1       0.842  12.100  18.742  0.00  0.00    +0.000 N 
ATOM     29  O   UNL     1      -0.238  12.545  19.160  0.00  0.00    +0.000 OA
ATOM     30  O   UNL     1       1.685  12.771  18.131  0.00  0.00    +0.000 OA
ENDBRANCH  25  28
ENDBRANCH  20  22
ENDBRANCH  16  17
ENDBRANCH   1  16
TORSDOF 9
ENDMDL
MODEL 2
REMARK VINA RESULT:      -7.5      1.896      3.607
REMARK  Name = 
REMARK  12 active torsions:
REMARK  status: ('A' for Active; 'I' for Inactive)
REMARK    1  A    between atoms: C_1  and  O_2
REMARK    2  A    between atoms: O_2  and  C_3
REMARK    3  A    between atoms: C_5  and  C_6
REMARK    4  A    between atoms: C_6  and  O_8
REMARK    5  A    between atoms: O_8  and  C_9
REMARK    6  A    between atoms: C_9  and  C_10
REMARK    7  A    between atoms: C_13  and  C_14
REMARK    8  A    between atoms: C_17  and  N_18
REMARK    9  A    between atoms: C_25  and  O_26
REMARK   10  A    between atoms: O_26  and  C_27
REMARK   11  A    between atoms: C_28  and  O_29
REMARK   12  A    between atoms: O_29  and  C_30
REMARK                            x       y       z     vdW  Elec       q    Type
REMARK                         _______ _______ _______ _____ _____    ______ ____
ROOT
ATOM      1  O   UNL     1       3.020   4.896  17.870  0.00  0.00    +0.000 OA
ENDROOT
BRANCH   1   2
ATOM      2  C   UNL     1       3.945   3.919  17.735  0.00  0.00    +0.000 C 
ATOM      3  O   UNL     1       3.921   2.819  18.268  0.00  0.00    +0.000 OA
BRANCH   2   6
ATOM      4  C   UNL     1       6.947   5.714  16.327  0.00  0.00    +0.000 A 
ATOM      5  C   UNL     1       5.829   5.392  17.112  0.00  0.00    +0.000 A 
ATOM      6  C   UNL     1       4.992   4.334  16.764  0.00  0.00    +0.000 A 
ATOM      7  C   UNL     1       5.210   3.670  15.559  0.00  0.00    +0.000 A 
ATOM      8  C   UNL     1       6.266   4.039  14.710  0.00  0.00    +0.000 A 
ATOM      9  C   UNL     1       7.158   5.068  15.087  0.00  0.00    +0.000 A 
BRANCH   4  11
ATOM     10  C   UNL     1       7.218   7.853  17.313  0.00  0.00    +0.000 C 
ATOM     11  O   UNL     1       7.821   6.681  16.756  0.00  0.00    +0.000 OA
ENDBRANCH   4  11
BRANCH   8  12
ATOM     12  O   UNL     1       6.278   3.262  13.577  0.00  0.00    +0.000 OA
ATOM     13  C   UNL     1       5.331   3.498  12.548  0.00  0.00    +0.000 C 
ENDBRANCH   8  12
BRANCH   9  14
ATOM     14  O   UNL     1       8.151   5.355  14.193  0.00  0.00    +0.000 OA
ATOM     15  C   UNL     1       7.856   5.810  12.883  0.00  0.00    +0.000 C 
ENDBRANCH   9  14
ENDBRANCH   2   6
ENDBRANCH   1   2
BRANCH   1  16
ATOM     16  C   UNL     1       3.004   5.558  19.141  0.00  0.00    +0.000 C 
BRANCH  16  17
ATOM     17  C   UNL     1       2.549   6.957  18.942  0.00  0.00    +0.000 A 
ATOM     18  C   UNL     1       2.628   7.812  17.863  0.00  0.00    +0.000 A 
ATOM     19  C   UNL     1       2.011   9.018  18.267  0.00  0.00    +0.000 A 
ATOM     20  C   UNL     1       1.579   8.837  19.569  0.00  0.00    +0.000 A 
ATOM     21  O   UNL     1       1.910   7.573  19.981  0.00  0.00    +0.000 OA
BRANCH  20  22
ATOM     22  C   UNL     1       0.846   9.681  20.514  0.00  0.00    +0.000 A 
ATOM     23  C   UNL     1       0.509  11.000  20.163  0.00  0.00    +0.000 A 
ATOM     24  C   UNL     1      -0.249  11.811  21.015  0.00  0.00    +0.000 A 
ATOM     25  C   UNL     1      -0.677  11.301  22.246  0.00  0.00    +0.000 A 
ATOM     26  C   UNL     1      -0.325  10.003  22.634  0.00  0.00    +0.000 A 
ATOM     27  C   UNL     1       0.435   9.199  21.769  0.00  0.00    +0.000 A 
BRANCH  25  28
ATOM     28  N   UNL     1      -1.515  12.128  23.121  0.00  0.00    +0.000 N 
ATOM     29  O   UNL     1      -2.651  11.712  23.397  0.00  0.00    +0.000 OA
ATOM     30  O   UNL     1      -1.037  13.190  23.544  0.00  0.00    +0.000 OA
ENDBRANCH  25  28
ENDBRANCH  20  22
ENDBRANCH  16  17
ENDBRANCH   1  16
TORSDOF 9
ENDMDL
MODEL 3
REMARK VINA RESULT:      -7.5      1.474      2.295
REMARK  Name = 
REMARK  12 active torsions:
REMARK  status: ('A' for Active; 'I' for Inactive)
REMARK    1  A    between atoms: C_1  and  O_2
REMARK    2  A    between atoms: O_2  and  C_3
REMARK    3  A    between atoms: C_5  and  C_6
REMARK    4  A    between atoms: C_6  and  O_8
REMARK    5  A    between atoms: O_8  and  C_9
REMARK    6  A    between atoms: C_9  and  C_10
REMARK    7  A    between atoms: C_13  and  C_14
REMARK    8  A    between atoms: C_17  and  N_18
REMARK    9  A    between atoms: C_25  and  O_26
REMARK   10  A    between atoms: O_26  and  C_27
REMARK   11  A    between atoms: C_28  and  O_29
REMARK   12  A    between atoms: O_29  and  C_30
REMARK                            x       y       z     vdW  Elec       q    Type
REMARK                         _______ _______ _______ _____ _____    ______ ____
ROOT
ATOM      1  O   UNL     1       3.405   2.012  18.262  0.00  0.00    +0.000 OA
ENDROOT
BRANCH   1   2
ATOM      2  C   UNL     1       3.366   2.918  17.259  0.00  0.00    +0.000 C 
ATOM      3  O   UNL     1       2.444   3.093  16.476  0.00  0.00    +0.000 OA
BRANCH   2   6
ATOM      4  C   UNL     1       6.268   4.963  15.986  0.00  0.00    +0.000 A 
ATOM      5  C   UNL     1       5.218   4.034  16.062  0.00  0.00    +0.000 A 
ATOM      6  C   UNL     1       4.594   3.758  17.277  0.00  0.00    +0.000 A 
ATOM      7  C   UNL     1       5.102   4.329  18.441  0.00  0.00    +0.000 A 
ATOM      8  C   UNL     1       6.213   5.186  18.401  0.00  0.00    +0.000 A 
ATOM      9  C   UNL     1       6.811   5.522  17.165  0.00  0.00    +0.000 A 
BRANCH   4  11
ATOM     10  C   UNL     1       6.455   4.420  13.686  0.00  0.00    +0.000 C 
ATOM     11  O   UNL     1       6.784   5.304  14.761  0.00  0.00    +0.000 OA
ENDBRANCH   4  11
BRANCH   8  12
ATOM     12  O   UNL     1       6.547   5.615  19.664  0.00  0.00    +0.000 OA
ATOM     13  C   UNL     1       7.845   5.363  20.175  0.00  0.00    +0.000 C 
ENDBRANCH   8  12
BRANCH   9  14
ATOM     14  O   UNL     1       7.888   6.362  17.232  0.00  0.00    +0.000 OA
ATOM     15  C   UNL     1       7.725   7.755  17.434  0.00  0.00    +0.000 C 
ENDBRANCH   9  14
ENDBRANCH   2   6
ENDBRANCH   1   2
BRANCH   1  16
ATOM     16  C   UNL     1       2.237   1.960  19.090  0.00  0.00    +0.000 C 
BRANCH  16  17
ATOM     17  C   UNL     1       2.216   3.164  19.958  0.00  0.00    +0.000 A 
ATOM     18  C   UNL     1       2.434   3.336  21.308  0.00  0.00    +0.000 A 
ATOM     19  C   UNL     1       2.284   4.719  21.561  0.00  0.00    +0.000 A 
ATOM     20  C   UNL     1       1.991   5.323  20.351  0.00  0.00    +0.000 A 
ATOM     21  O   UNL     1       1.948   4.369  19.370  0.00  0.00    +0.000 OA
BRANCH  20  22
ATOM     22  C   UNL     1       1.767   6.713  19.947  0.00  0.00    +0.000 A 
ATOM     23  C   UNL     1       1.206   7.627  20.855  0.00  0.00    +0.000 A 
ATOM     24  C   UNL     1       1.042   8.976  20.525  0.00  0.00    +0.000 A 
ATOM     25  C   UNL     1       1.440   9.426  19.260  0.00  0.00    +0.000 A 
ATOM     26  C   UNL     1       1.968   8.529  18.325  0.00  0.00    +0.000 A 
ATOM     27  C   UNL     1       2.129   7.177  18.671  0.00  0.00    +0.000 A 
BRANCH  25  28
ATOM     28  N   UNL     1       1.318  10.850  18.926  0.00  0.00    +0.000 N 
ATOM     29  O   UNL     1       2.176  11.345  18.179  0.00  0.00    +0.000 OA
ATOM     30  O   UNL     1       0.358  11.474  19.399  0.00  0.00    +0.000 OA
ENDBRANCH  25  28
ENDBRANCH  20  22
ENDBRANCH  16  17
ENDBRANCH   1  16
TORSDOF 9
ENDMDL
MODEL 4
REMARK VINA RESULT:      -7.5      3.681      9.773
REMARK  Name = 
REMARK  12 active torsions:
REMARK  status: ('A' for Active; 'I' for Inactive)
REMARK    1  A    between atoms: C_1  and  O_2
REMARK    2  A    between atoms: O_2  and  C_3
REMARK    3  A    between atoms: C_5  and  C_6
REMARK    4  A    between atoms: C_6  and  O_8
REMARK    5  A    between atoms: O_8  and  C_9
REMARK    6  A    between atoms: C_9  and  C_10
REMARK    7  A    between atoms: C_13  and  C_14
REMARK    8  A    between atoms: C_17  and  N_18
REMARK    9  A    between atoms: C_25  and  O_26
REMARK   10  A    between atoms: O_26  and  C_27
REMARK   11  A    between atoms: C_28  and  O_29
REMARK   12  A    between atoms: O_29  and  C_30
REMARK                            x       y       z     vdW  Elec       q    Type
REMARK                         _______ _______ _______ _____ _____    ______ ____
ROOT
ATOM      1  O   UNL     1       1.055  10.238  18.923  0.00  0.00    +0.000 OA
ENDROOT
BRANCH   1   2
ATOM      2  C   UNL     1       0.483  11.462  18.878  0.00  0.00    +0.000 C 
ATOM      3  O   UNL     1       1.065  12.537  18.920  0.00  0.00    +0.000 OA
BRANCH   2   6
ATOM      4  C   UNL     1      -3.209  12.059  19.366  0.00  0.00    +0.000 A 
ATOM      5  C   UNL     1      -1.825  11.985  19.590  0.00  0.00    +0.000 A 
ATOM      6  C   UNL     1      -0.987  11.336  18.686  0.00  0.00    +0.000 A 
ATOM      7  C   UNL     1      -1.553  10.657  17.610  0.00  0.00    +0.000 A 
ATOM      8  C   UNL     1      -2.943  10.636  17.418  0.00  0.00    +0.000 A 
ATOM      9  C   UNL     1      -3.795  11.346  18.295  0.00  0.00    +0.000 A 
BRANCH   4  11
ATOM     10  C   UNL     1      -3.620  12.772  21.588  0.00  0.00    +0.000 C 
ATOM     11  O   UNL     1      -3.994  12.805  20.208  0.00  0.00    +0.000 OA
ENDBRANCH   4  11
BRANCH   8  12
ATOM     12  O   UNL     1      -3.274   9.896  16.309  0.00  0.00    +0.000 OA
ATOM     13  C   UNL     1      -2.814  10.298  15.029  0.00  0.00    +0.000 C 
ENDBRANCH   8  12
BRANCH   9  14
ATOM     14  O   UNL     1      -5.133  11.262  18.026  0.00  0.00    +0.000 OA
ATOM     15  C   UNL     1      -5.792  12.247  17.249  0.00  0.00    +0.000 C 
ENDBRANCH   9  14
ENDBRANCH   2   6
ENDBRANCH   1   2
BRANCH   1  16
ATOM     16  C   UNL     1       0.735   9.451  20.075  0.00  0.00    +0.000 C 
BRANCH  16  17
ATOM     17  C   UNL     1       1.429   8.142  19.965  0.00  0.00    +0.000 A 
ATOM     18  C   UNL     1       1.376   6.998  20.732  0.00  0.00    +0.000 A 
ATOM     19  C   UNL     1       2.258   6.074  20.127  0.00  0.00    +0.000 A 
ATOM     20  C   UNL     1       2.798   6.696  19.016  0.00  0.00    +0.000 A 
ATOM     21  O   UNL     1       2.290   7.965  18.918  0.00  0.00    +0.000 OA
BRANCH  20  22
ATOM     22  C   UNL     1       3.727   6.263  17.970  0.00  0.00    +0.000 A 
ATOM     23  C   UNL     1       4.044   4.901  17.833  0.00  0.00    +0.000 A 
ATOM     24  C   UNL     1       4.873   4.444  16.803  0.00  0.00    +0.000 A 
ATOM     25  C   UNL     1       5.405   5.365  15.892  0.00  0.00    +0.000 A 
ATOM     26  C   UNL     1       5.133   6.731  16.028  0.00  0.00    +0.000 A 
ATOM     27  C   UNL     1       4.297   7.175  17.066  0.00  0.00    +0.000 A 
BRANCH  25  28
ATOM     28  N   UNL     1       6.234   4.887  14.779  0.00  0.00    +0.000 N 
ATOM     29  O   UNL     1       5.688   4.195  13.907  0.00  0.00    +0.000 OA
ATOM     30  O   UNL     1       7.429   5.213  14.768  0.00  0.00    +0.000 OA
ENDBRANCH  25  28
ENDBRANCH  20  22
ENDBRANCH  16  17
ENDBRANCH   1  16
TORSDOF 9
ENDMDL
MODEL 5
REMARK VINA RESULT:      -7.4      3.677      6.019
REMARK  Name = 
REMARK  12 active torsions:
REMARK  status: ('A' for Active; 'I' for Inactive)
REMARK    1  A    between atoms: C_1  and  O_2
REMARK    2  A    between atoms: O_2  and  C_3
REMARK    3  A    between atoms: C_5  and  C_6
REMARK    4  A    between atoms: C_6  and  O_8
REMARK    5  A    between atoms: O_8  and  C_9
REMARK    6  A    between atoms: C_9  and  C_10
REMARK    7  A    between atoms: C_13  and  C_14
REMARK    8  A    between atoms: C_17  and  N_18
REMARK    9  A    between atoms: C_25  and  O_26
REMARK   10  A    between atoms: O_26  and  C_27
REMARK   11  A    between atoms: C_28  and  O_29
REMARK   12  A    between atoms: O_29  and  C_30
REMARK                            x       y       z     vdW  Elec       q    Type
REMARK                         _______ _______ _______ _____ _____    ______ ____
ROOT
ATOM      1  O   UNL     1       1.957   8.307  19.447  0.00  0.00    +0.000 OA
ENDROOT
BRANCH   1   2
ATOM      2  C   UNL     1       2.445   7.851  18.271  0.00  0.00    +0.000 C 
ATOM      3  O   UNL     1       2.552   8.490  17.234  0.00  0.00    +0.000 OA
BRANCH   2   6
ATOM      4  C   UNL     1       2.457   4.084  18.098  0.00  0.00    +0.000 A 
ATOM      5  C   UNL     1       2.025   5.418  18.153  0.00  0.00    +0.000 A 
ATOM      6  C   UNL     1       2.922   6.450  18.421  0.00  0.00    +0.000 A 
ATOM      7  C   UNL     1       4.237   6.131  18.751  0.00  0.00    +0.000 A 
ATOM      8  C   UNL     1       4.669   4.796  18.796  0.00  0.00    +0.000 A 
ATOM      9  C   UNL     1       3.781   3.748  18.463  0.00  0.00    +0.000 A 
BRANCH   4  11
ATOM     10  C   UNL     1       0.840   2.489  18.775  0.00  0.00    +0.000 C 
ATOM     11  O   UNL     1       1.578   3.102  17.715  0.00  0.00    +0.000 OA
ENDBRANCH   4  11
BRANCH   8  12
ATOM     12  O   UNL     1       5.992   4.721  19.158  0.00  0.00    +0.000 OA
ATOM     13  C   UNL     1       7.002   5.008  18.204  0.00  0.00    +0.000 C 
ENDBRANCH   8  12
BRANCH   9  14
ATOM     14  O   UNL     1       4.295   2.484  18.540  0.00  0.00    +0.000 OA
ATOM     15  C   UNL     1       4.356   1.786  19.771  0.00  0.00    +0.000 C 
ENDBRANCH   9  14
ENDBRANCH   2   6
ENDBRANCH   1   2
BRANCH   1  16
ATOM     16  C   UNL     1       1.036   9.399  19.349  0.00  0.00    +0.000 C 
BRANCH  16  17
ATOM     17  C   UNL     1       0.396   9.601  20.674  0.00  0.00    +0.000 A 
ATOM     18  C   UNL     1       0.250   8.775  21.767  0.00  0.00    +0.000 A 
ATOM     19  C   UNL     1      -0.443   9.527  22.743  0.00  0.00    +0.000 A 
ATOM     20  C   UNL     1      -0.677  10.778  22.200  0.00  0.00    +0.000 A 
ATOM     21  O   UNL     1      -0.163  10.822  20.931  0.00  0.00    +0.000 OA
BRANCH  20  22
ATOM     22  C   UNL     1      -1.303  11.998  22.714  0.00  0.00    +0.000 A 
ATOM     23  C   UNL     1      -0.644  13.233  22.583  0.00  0.00    +0.000 A 
ATOM     24  C   UNL     1      -1.242  14.427  23.000  0.00  0.00    +0.000 A 
ATOM     25  C   UNL     1      -2.523  14.391  23.566  0.00  0.00    +0.000 A 
ATOM     26  C   UNL     1      -3.185  13.171  23.738  0.00  0.00    +0.000 A 
ATOM     27  C   UNL     1      -2.573  11.980  23.314  0.00  0.00    +0.000 A 
BRANCH  25  28
ATOM     28  N   UNL     1      -3.176  15.645  23.958  0.00  0.00    +0.000 N 
ATOM     29  O   UNL     1      -3.888  15.634  24.975  0.00  0.00    +0.000 OA
ATOM     30  O   UNL     1      -2.971  16.647  23.259  0.00  0.00    +0.000 OA
ENDBRANCH  25  28
ENDBRANCH  20  22
ENDBRANCH  16  17
ENDBRANCH   1  16
TORSDOF 9
ENDMDL
MODEL 6
REMARK VINA RESULT:      -7.4      3.617      5.706
REMARK  Name = 
REMARK  12 active torsions:
REMARK  status: ('A' for Active; 'I' for Inactive)
REMARK    1  A    between atoms: C_1  and  O_2
REMARK    2  A    between atoms: O_2  and  C_3
REMARK    3  A    between atoms: C_5  and  C_6
REMARK    4  A    between atoms: C_6  and  O_8
REMARK    5  A    between atoms: O_8  and  C_9
REMARK    6  A    between atoms: C_9  and  C_10
REMARK    7  A    between atoms: C_13  and  C_14
REMARK    8  A    between atoms: C_17  and  N_18
REMARK    9  A    between atoms: C_25  and  O_26
REMARK   10  A    between atoms: O_26  and  C_27
REMARK   11  A    between atoms: C_28  and  O_29
REMARK   12  A    between atoms: O_29  and  C_30
REMARK                            x       y       z     vdW  Elec       q    Type
REMARK                         _______ _______ _______ _____ _____    ______ ____
ROOT
ATOM      1  O   UNL     1       1.596   8.372  17.946  0.00  0.00    +0.000 OA
ENDROOT
BRANCH   1   2
ATOM      2  C   UNL     1       2.297   7.596  18.804  0.00  0.00    +0.000 C 
ATOM      3  O   UNL     1       2.201   7.595  20.023  0.00  0.00    +0.000 OA
BRANCH   2   6
ATOM      4  C   UNL     1       5.324   6.278  16.982  0.00  0.00    +0.000 A 
ATOM      5  C   UNL     1       4.372   7.146  17.540  0.00  0.00    +0.000 A 
ATOM      6  C   UNL     1       3.171   6.658  18.052  0.00  0.00    +0.000 A 
ATOM      7  C   UNL     1       2.873   5.306  17.896  0.00  0.00    +0.000 A 
ATOM      8  C   UNL     1       3.768   4.436  17.255  0.00  0.00    +0.000 A 
ATOM      9  C   UNL     1       5.016   4.912  16.791  0.00  0.00    +0.000 A 
BRANCH   4  11
ATOM     10  C   UNL     1       7.427   7.134  17.661  0.00  0.00    +0.000 C 
ATOM     11  O   UNL     1       6.545   6.769  16.596  0.00  0.00    +0.000 OA
ENDBRANCH   4  11
BRANCH   8  12
ATOM     12  O   UNL     1       3.260   3.161  17.202  0.00  0.00    +0.000 OA
ATOM     13  C   UNL     1       2.083   2.839  17.926  0.00  0.00    +0.000 C 
ENDBRANCH   8  12
BRANCH   9  14
ATOM     14  O   UNL     1       5.816   3.988  16.178  0.00  0.00    +0.000 OA
ATOM     15  C   UNL     1       5.911   3.915  14.766  0.00  0.00    +0.000 C 
ENDBRANCH   9  14
ENDBRANCH   2   6
ENDBRANCH   1   2
BRANCH   1  16
ATOM     16  C   UNL     1       1.912   9.769  17.980  0.00  0.00    +0.000 C 
BRANCH  16  17
ATOM     17  C   UNL     1       0.878  10.469  18.784  0.00  0.00    +0.000 A 
ATOM     18  C   UNL     1       0.926  11.094  20.012  0.00  0.00    +0.000 A 
ATOM     19  C   UNL     1      -0.376  11.588  20.257  0.00  0.00    +0.000 A 
ATOM     20  C   UNL     1      -1.151  11.248  19.162  0.00  0.00    +0.000 A 
ATOM     21  O   UNL     1      -0.382  10.561  18.261  0.00  0.00    +0.000 OA
BRANCH  20  22
ATOM     22  C   UNL     1      -2.547  11.501  18.798  0.00  0.00    +0.000 A 
ATOM     23  C   UNL     1      -3.428  12.060  19.739  0.00  0.00    +0.000 A 
ATOM     24  C   UNL     1      -4.748  12.379  19.404  0.00  0.00    +0.000 A 
ATOM     25  C   UNL     1      -5.204  12.131  18.103  0.00  0.00    +0.000 A 
ATOM     26  C   UNL     1      -4.357  11.544  17.158  0.00  0.00    +0.000 A 
ATOM     27  C   UNL     1      -3.033  11.231  17.507  0.00  0.00    +0.000 A 
BRANCH  25  28
ATOM     28  N   UNL     1      -6.572  12.511  17.731  0.00  0.00    +0.000 N 
ATOM     29  O   UNL     1      -7.477  12.292  18.551  0.00  0.00    +0.000 OA
ATOM     30  O   UNL     1      -6.743  13.038  16.623  0.00  0.00    +0.000 OA
ENDBRANCH  25  28
ENDBRANCH  20  22
ENDBRANCH  16  17
ENDBRANCH   1  16
TORSDOF 9
ENDMDL
MODEL 7
REMARK VINA RESULT:      -7.4      3.816      6.433
REMARK  Name = 
REMARK  12 active torsions:
REMARK  status: ('A' for Active; 'I' for Inactive)
REMARK    1  A    between atoms: C_1  and  O_2
REMARK    2  A    between atoms: O_2  and  C_3
REMARK    3  A    between atoms: C_5  and  C_6
REMARK    4  A    between atoms: C_6  and  O_8
REMARK    5  A    between atoms: O_8  and  C_9
REMARK    6  A    between atoms: C_9  and  C_10
REMARK    7  A    between atoms: C_13  and  C_14
REMARK    8  A    between atoms: C_17  and  N_18
REMARK    9  A    between atoms: C_25  and  O_26
REMARK   10  A    between atoms: O_26  and  C_27
REMARK   11  A    between atoms: C_28  and  O_29
REMARK   12  A    between atoms: O_29  and  C_30
REMARK                            x       y       z     vdW  Elec       q    Type
REMARK                         _______ _______ _______ _____ _____    ______ ____
ROOT
ATOM      1  O   UNL     1       1.846   7.976  19.926  0.00  0.00    +0.000 OA
ENDROOT
BRANCH   1   2
ATOM      2  C   UNL     1       2.470   7.556  18.802  0.00  0.00    +0.000 C 
ATOM      3  O   UNL     1       2.724   8.236  17.817  0.00  0.00    +0.000 OA
BRANCH   2   6
ATOM      4  C   UNL     1       4.738   4.557  19.089  0.00  0.00    +0.000 A 
ATOM      5  C   UNL     1       4.244   5.836  18.787  0.00  0.00    +0.000 A 
ATOM      6  C   UNL     1       2.894   6.139  18.949  0.00  0.00    +0.000 A 
ATOM      7  C   UNL     1       2.013   5.119  19.303  0.00  0.00    +0.000 A 
ATOM      8  C   UNL     1       2.470   3.809  19.517  0.00  0.00    +0.000 A 
ATOM      9  C   UNL     1       3.848   3.510  19.418  0.00  0.00    +0.000 A 
BRANCH   4  11
ATOM     10  C   UNL     1       6.854   5.291  18.315  0.00  0.00    +0.000 C 
ATOM     11  O   UNL     1       6.089   4.322  19.035  0.00  0.00    +0.000 OA
ENDBRANCH   4  11
BRANCH   8  12
ATOM     12  O   UNL     1       1.428   2.973  19.839  0.00  0.00    +0.000 OA
ATOM     13  C   UNL     1       0.595   2.455  18.814  0.00  0.00    +0.000 C 
ENDBRANCH   8  12
BRANCH   9  14
ATOM     14  O   UNL     1       4.193   2.206  19.641  0.00  0.00    +0.000 OA
ATOM     15  C   UNL     1       4.013   1.214  18.645  0.00  0.00    +0.000 C 
ENDBRANCH   9  14
ENDBRANCH   2   6
ENDBRANCH   1   2
BRANCH   1  16
ATOM     16  C   UNL     1       1.147   9.222  19.813  0.00  0.00    +0.000 C 
BRANCH  16  17
ATOM     17  C   UNL     1       0.539   9.546  21.128  0.00  0.00    +0.000 A 
ATOM     18  C   UNL     1       0.544   8.886  22.339  0.00  0.00    +0.000 A 
ATOM     19  C   UNL     1      -0.203   9.689  23.231  0.00  0.00    +0.000 A 
ATOM     20  C   UNL     1      -0.619  10.803  22.524  0.00  0.00    +0.000 A 
ATOM     21  O   UNL     1      -0.165  10.713  21.234  0.00  0.00    +0.000 OA
BRANCH  20  22
ATOM     22  C   UNL     1      -1.378  12.001  22.886  0.00  0.00    +0.000 A 
ATOM     23  C   UNL     1      -2.693  11.881  23.368  0.00  0.00    +0.000 A 
ATOM     24  C   UNL     1      -3.422  12.999  23.787  0.00  0.00    +0.000 A 
ATOM     25  C   UNL     1      -2.831  14.266  23.722  0.00  0.00    +0.000 A 
ATOM     26  C   UNL     1      -1.537  14.417  23.214  0.00  0.00    +0.000 A 
ATOM     27  C   UNL     1      -0.815  13.286  22.797  0.00  0.00    +0.000 A 
BRANCH  25  28
ATOM     28  N   UNL     1      -3.572  15.436  24.208  0.00  0.00    +0.000 N 
ATOM     29  O   UNL     1      -2.916  16.397  24.641  0.00  0.00    +0.000 OA
ATOM     30  O   UNL     1      -4.808  15.403  24.148  0.00  0.00    +0.000 OA
ENDBRANCH  25  28
ENDBRANCH  20  22
ENDBRANCH  16  17
ENDBRANCH   1  16
TORSDOF 9
ENDMDL
MODEL 8
REMARK VINA RESULT:      -7.3      4.309     10.496
REMARK  Name = 
REMARK  12 active torsions:
REMARK  status: ('A' for Active; 'I' for Inactive)
REMARK    1  A    between atoms: C_1  and  O_2
REMARK    2  A    between atoms: O_2  and  C_3
REMARK    3  A    between atoms: C_5  and  C_6
REMARK    4  A    between atoms: C_6  and  O_8
REMARK    5  A    between atoms: O_8  and  C_9
REMARK    6  A    between atoms: C_9  and  C_10
REMARK    7  A    between atoms: C_13  and  C_14
REMARK    8  A    between atoms: C_17  and  N_18
REMARK    9  A    between atoms: C_25  and  O_26
REMARK   10  A    between atoms: O_26  and  C_27
REMARK   11  A    between atoms: C_28  and  O_29
REMARK   12  A    between atoms: O_29  and  C_30
REMARK                            x       y       z     vdW  Elec       q    Type
REMARK                         _______ _______ _______ _____ _____    ______ ____
ROOT
ATOM      1  O   UNL     1       0.062  10.769  18.161  0.00  0.00    +0.000 OA
ENDROOT
BRANCH   1   2
ATOM      2  C   UNL     1      -0.502  11.822  18.795  0.00  0.00    +0.000 C 
ATOM      3  O   UNL     1       0.092  12.723  19.372  0.00  0.00    +0.000 OA
BRANCH   2   6
ATOM      4  C   UNL     1      -4.152  12.416  19.533  0.00  0.00    +0.000 A 
ATOM      5  C   UNL     1      -2.766  12.250  19.686  0.00  0.00    +0.000 A 
ATOM      6  C   UNL     1      -1.979  11.790  18.633  0.00  0.00    +0.000 A 
ATOM      7  C   UNL     1      -2.601  11.384  17.455  0.00  0.00    +0.000 A 
ATOM      8  C   UNL     1      -3.996  11.451  17.312  0.00  0.00    +0.000 A 
ATOM      9  C   UNL     1      -4.795  11.978  18.353  0.00  0.00    +0.000 A 
BRANCH   4  11
ATOM     10  C   UNL     1      -4.417  12.709  21.870  0.00  0.00    +0.000 C 
ATOM     11  O   UNL     1      -4.883  12.983  20.546  0.00  0.00    +0.000 OA
ENDBRANCH   4  11
BRANCH   8  12
ATOM     12  O   UNL     1      -4.386  10.986  16.079  0.00  0.00    +0.000 OA
ATOM     13  C   UNL     1      -3.476  10.244  15.284  0.00  0.00    +0.000 C 
ENDBRANCH   8  12
BRANCH   9  14
ATOM     14  O   UNL     1      -6.142  11.999  18.120  0.00  0.00    +0.000 OA
ATOM     15  C   UNL     1      -6.975  10.918  18.503  0.00  0.00    +0.000 C 
ENDBRANCH   9  14
ENDBRANCH   2   6
ENDBRANCH   1   2
BRANCH   1  16
ATOM     16  C   UNL     1       1.406  10.464  18.549  0.00  0.00    +0.000 C 
BRANCH  16  17
ATOM     17  C   UNL     1       1.376   9.349  19.530  0.00  0.00    +0.000 A 
ATOM     18  C   UNL     1       0.778   9.219  20.765  0.00  0.00    +0.000 A 
ATOM     19  C   UNL     1       1.096   7.920  21.224  0.00  0.00    +0.000 A 
ATOM     20  C   UNL     1       1.864   7.319  20.242  0.00  0.00    +0.000 A 
ATOM     21  O   UNL     1       2.036   8.197  19.205  0.00  0.00    +0.000 OA
BRANCH  20  22
ATOM     22  C   UNL     1       2.459   5.989  20.102  0.00  0.00    +0.000 A 
ATOM     23  C   UNL     1       1.763   4.856  20.559  0.00  0.00    +0.000 A 
ATOM     24  C   UNL     1       2.271   3.566  20.379  0.00  0.00    +0.000 A 
ATOM     25  C   UNL     1       3.503   3.397  19.734  0.00  0.00    +0.000 A 
ATOM     26  C   UNL     1       4.231   4.510  19.301  0.00  0.00    +0.000 A 
ATOM     27  C   UNL     1       3.708   5.801  19.487  0.00  0.00    +0.000 A 
BRANCH  25  28
ATOM     28  N   UNL     1       4.017   2.044  19.496  0.00  0.00    +0.000 N 
ATOM     29  O   UNL     1       5.005   1.677  20.151  0.00  0.00    +0.000 OA
ATOM     30  O   UNL     1       3.427   1.340  18.665  0.00  0.00    +0.000 OA
ENDBRANCH  25  28
ENDBRANCH  20  22
ENDBRANCH  16  17
ENDBRANCH   1  16
TORSDOF 9
ENDMDL
MODEL 9
REMARK VINA RESULT:      -7.3      3.628      6.218
REMARK  Name = 
REMARK  12 active torsions:
REMARK  status: ('A' for Active; 'I' for Inactive)
REMARK    1  A    between atoms: C_1  and  O_2
REMARK    2  A    between atoms: O_2  and  C_3
REMARK    3  A    between atoms: C_5  and  C_6
REMARK    4  A    between atoms: C_6  and  O_8
REMARK    5  A    between atoms: O_8  and  C_9
REMARK    6  A    between atoms: C_9  and  C_10
REMARK    7  A    between atoms: C_13  and  C_14
REMARK    8  A    between atoms: C_17  and  N_18
REMARK    9  A    between atoms: C_25  and  O_26
REMARK   10  A    between atoms: O_26  and  C_27
REMARK   11  A    between atoms: C_28  and  O_29
REMARK   12  A    between atoms: O_29  and  C_30
REMARK                            x       y       z     vdW  Elec       q    Type
REMARK                         _______ _______ _______ _____ _____    ______ ____
ROOT
ATOM      1  O   UNL     1       2.738   8.128  18.700  0.00  0.00    +0.000 OA
ENDROOT
BRANCH   1   2
ATOM      2  C   UNL     1       2.219   7.439  19.742  0.00  0.00    +0.000 C 
ATOM      3  O   UNL     1       1.394   7.852  20.545  0.00  0.00    +0.000 OA
BRANCH   2   6
ATOM      4  C   UNL     1       2.219   3.671  19.892  0.00  0.00    +0.000 A 
ATOM      5  C   UNL     1       1.846   5.016  20.047  0.00  0.00    +0.000 A 
ATOM      6  C   UNL     1       2.735   6.045  19.746  0.00  0.00    +0.000 A 
ATOM      7  C   UNL     1       4.045   5.723  19.397  0.00  0.00    +0.000 A 
ATOM      8  C   UNL     1       4.468   4.386  19.328  0.00  0.00    +0.000 A 
ATOM      9  C   UNL     1       3.553   3.335  19.570  0.00  0.00    +0.000 A 
BRANCH   4  11
ATOM     10  C   UNL     1       0.532   2.318  18.922  0.00  0.00    +0.000 C 
ATOM     11  O   UNL     1       1.286   2.683  20.081  0.00  0.00    +0.000 OA
ENDBRANCH   4  11
BRANCH   8  12
ATOM     12  O   UNL     1       5.795   4.309  18.982  0.00  0.00    +0.000 OA
ATOM     13  C   UNL     1       6.668   5.385  19.288  0.00  0.00    +0.000 C 
ENDBRANCH   8  12
BRANCH   9  14
ATOM     14  O   UNL     1       4.062   2.069  19.480  0.00  0.00    +0.000 OA
ATOM     15  C   UNL     1       3.898   1.289  18.309  0.00  0.00    +0.000 C 
ENDBRANCH   9  14
ENDBRANCH   2   6
ENDBRANCH   1   2
BRANCH   1  16
ATOM     16  C   UNL     1       1.801   8.507  17.686  0.00  0.00    +0.000 C 
BRANCH  16  17
ATOM     17  C   UNL     1       1.066   9.713  18.145  0.00  0.00    +0.000 A 
ATOM     18  C   UNL     1       1.493  10.921  18.652  0.00  0.00    +0.000 A 
ATOM     19  C   UNL     1       0.328  11.681  18.904  0.00  0.00    +0.000 A 
ATOM     20  C   UNL     1      -0.753  10.902  18.530  0.00  0.00    +0.000 A 
ATOM     21  O   UNL     1      -0.299   9.695  18.066  0.00  0.00    +0.000 OA
BRANCH  20  22
ATOM     22  C   UNL     1      -2.199  11.129  18.507  0.00  0.00    +0.000 A 
ATOM     23  C   UNL     1      -3.019  10.348  17.674  0.00  0.00    +0.000 A 
ATOM     24  C   UNL     1      -4.411  10.492  17.678  0.00  0.00    +0.000 A 
ATOM     25  C   UNL     1      -5.000  11.438  18.526  0.00  0.00    +0.000 A 
ATOM     26  C   UNL     1      -4.203  12.251  19.339  0.00  0.00    +0.000 A 
ATOM     27  C   UNL     1      -2.807  12.095  19.327  0.00  0.00    +0.000 A 
BRANCH  25  28
ATOM     28  N   UNL     1      -6.462  11.558  18.573  0.00  0.00    +0.000 N 
ATOM     29  O   UNL     1      -7.032  12.062  17.593  0.00  0.00    +0.000 OA
ATOM     30  O   UNL     1      -7.044  11.138  19.582  0.00  0.00    +0.000 OA
ENDBRANCH  25  28
ENDBRANCH  20  22
ENDBRANCH  16  17
ENDBRANCH   1  16
TORSDOF 9
ENDMDL
