MODEL 1
REMARK VINA RESULT:      -8.6      0.000      0.000
REMARK  Name = 
REMARK  8 active torsions:
REMARK  status: ('A' for Active; 'I' for Inactive)
REMARK    1  A    between atoms: C_1  and  C_2
REMARK    2  A    between atoms: C_2  and  C_3
REMARK    3  A    between atoms: C_3  and  C_4
REMARK    4  A    between atoms: C_4  and  C_5
REMARK    5  A    between atoms: C_5  and  N_6
REMARK    6  A    between atoms: C_8  and  C_9
REMARK    7  A    between atoms: N_11  and  C_12
REMARK    8  A    between atoms: C_26  and  C_27
REMARK                            x       y       z     vdW  Elec       q    Type
REMARK                         _______ _______ _______ _____ _____    ______ ____
ROOT
ATOM      1  N   UNL     1      -0.223  10.497  19.292  0.00  0.00    +0.000 N 
ATOM      2  C   UNL     1       0.530   9.325  19.181  0.00  0.00    +0.000 A 
ATOM      3  C   UNL     1       1.121   8.691  20.214  0.00  0.00    +0.000 A 
ATOM      4  C   UNL     1       1.007   9.312  21.561  0.00  0.00    +0.000 A 
ATOM      5  O   UNL     1       1.550   8.880  22.573  0.00  0.00    +0.000 OA
ATOM      6  N   UNL     1       0.211  10.454  21.604  0.00  0.00    +0.000 N 
ATOM      7  N   UNL     1      -0.014  11.173  22.728  0.00  0.00    +0.000 NA
ATOM      8  C   UNL     1      -0.870  12.106  22.283  0.00  0.00    +0.000 A 
ATOM      9  N   UNL     1      -1.170  12.025  20.946  0.00  0.00    +0.000 NA
ATOM     10  C   UNL     1      -0.439  11.019  20.534  0.00  0.00    +0.000 A 
ENDROOT
BRANCH   8  11
ATOM     11  C   UNL     1      -1.444  13.152  23.178  0.00  0.00    +0.000 A 
ATOM     12  C   UNL     1      -2.774  13.258  23.541  0.00  0.00    +0.000 A 
ATOM     13  C   UNL     1      -2.880  14.387  24.387  0.00  0.00    +0.000 A 
ATOM     14  C   UNL     1      -1.611  14.905  24.488  0.00  0.00    +0.000 A 
ATOM     15  O   UNL     1      -0.732  14.158  23.774  0.00  0.00    +0.000 OA
ENDBRANCH   8  11
BRANCH   3  16
ATOM     16  C   UNL     1       1.854   7.409  19.974  0.00  0.00    +0.000 C 
ATOM     17  O   UNL     1       1.733   6.463  20.747  0.00  0.00    +0.000 OA
ATOM     18  N   UNL     1       2.650   7.387  18.851  0.00  0.00    +0.000 N 
ATOM     19  H   UNL     1       2.666   8.225  18.268  0.00  0.00    +0.000 HD
BRANCH  18  20
ATOM     20  C   UNL     1       3.446   6.248  18.371  0.00  0.00    +0.000 C 
ATOM     21  C   UNL     1       4.411   6.672  17.238  0.00  0.00    +0.000 C 
ATOM     22  C   UNL     1       5.273   5.484  16.782  0.00  0.00    +0.000 C 
ATOM     23  C   UNL     1       6.107   4.973  17.966  0.00  0.00    +0.000 C 
ATOM     24  C   UNL     1       5.178   4.521  19.104  0.00  0.00    +0.000 C 
ATOM     25  C   UNL     1       4.268   3.393  18.597  0.00  0.00    +0.000 C 
ATOM     26  C   UNL     1       3.422   3.893  17.414  0.00  0.00    +0.000 C 
ATOM     27  C   UNL     1       4.356   4.354  16.283  0.00  0.00    +0.000 C 
ATOM     28  C   UNL     1       2.554   5.083  17.871  0.00  0.00    +0.000 C 
ATOM     29  C   UNL     1       4.306   5.709  19.549  0.00  0.00    +0.000 C 
ENDBRANCH  18  20
ENDBRANCH   3  16
BRANCH   1  30
ATOM     30  C   UNL     1      -0.848  11.184  18.147  0.00  0.00    +0.000 C 
BRANCH  30  31
ATOM     31  C   UNL     1      -2.082  10.422  17.639  0.00  0.00    +0.000 C 
BRANCH  31  32
ATOM     32  C   UNL     1      -2.544  10.933  16.275  0.00  0.00    +0.000 C 
BRANCH  32  34
ATOM     33  C   UNL     1      -3.028   9.987  13.992  0.00  0.00    +0.000 C 
ATOM     34  C   UNL     1      -3.250   9.830  15.487  0.00  0.00    +0.000 C 
ENDBRANCH  32  34
ENDBRANCH  31  32
ENDBRANCH  30  31
ENDBRANCH   1  30
TORSDOF 7
ENDMDL
MODEL 2
REMARK VINA RESULT:      -8.5      0.632      1.544
REMARK  Name = 
REMARK  8 active torsions:
REMARK  status: ('A' for Active; 'I' for Inactive)
REMARK    1  A    between atoms: C_1  and  C_2
REMARK    2  A    between atoms: C_2  and  C_3
REMARK    3  A    between atoms: C_3  and  C_4
REMARK    4  A    between atoms: C_4  and  C_5
REMARK    5  A    between atoms: C_5  and  N_6
REMARK    6  A    between atoms: C_8  and  C_9
REMARK    7  A    between atoms: N_11  and  C_12
REMARK    8  A    between atoms: C_26  and  C_27
REMARK                            x       y       z     vdW  Elec       q    Type
REMARK                         _______ _______ _______ _____ _____    ______ ____
ROOT
ATOM      1  N   UNL     1      -0.208  10.439  19.322  0.00  0.00    +0.000 N 
ATOM      2  C   UNL     1       0.539   9.262  19.228  0.00  0.00    +0.000 A 
ATOM      3  C   UNL     1       1.122   8.636  20.271  0.00  0.00    +0.000 A 
ATOM      4  C   UNL     1       1.005   9.274  21.610  0.00  0.00    +0.000 A 
ATOM      5  O   UNL     1       1.540   8.850  22.629  0.00  0.00    +0.000 OA
ATOM      6  N   UNL     1       0.215  10.420  21.636  0.00  0.00    +0.000 N 
ATOM      7  N   UNL     1      -0.012  11.153  22.750  0.00  0.00    +0.000 NA
ATOM      8  C   UNL     1      -0.861  12.085  22.291  0.00  0.00    +0.000 A 
ATOM      9  N   UNL     1      -1.155  11.991  20.953  0.00  0.00    +0.000 NA
ATOM     10  C   UNL     1      -0.427  10.976  20.556  0.00  0.00    +0.000 A 
ENDROOT
BRANCH   8  11
ATOM     11  C   UNL     1      -1.434  13.144  23.171  0.00  0.00    +0.000 A 
ATOM     12  C   UNL     1      -2.753  13.227  23.576  0.00  0.00    +0.000 A 
ATOM     13  C   UNL     1      -2.863  14.380  24.388  0.00  0.00    +0.000 A 
ATOM     14  C   UNL     1      -1.606  14.935  24.429  0.00  0.00    +0.000 A 
ATOM     15  O   UNL     1      -0.731  14.188  23.708  0.00  0.00    +0.000 OA
ENDBRANCH   8  11
BRANCH   3  16
ATOM     16  C   UNL     1       1.849   7.347  20.050  0.00  0.00    +0.000 C 
ATOM     17  O   UNL     1       1.709   6.407  20.826  0.00  0.00    +0.000 OA
ATOM     18  N   UNL     1       2.662   7.314  18.939  0.00  0.00    +0.000 N 
ATOM     19  H   UNL     1       2.693   8.148  18.351  0.00  0.00    +0.000 HD
BRANCH  18  20
ATOM     20  C   UNL     1       3.457   6.166  18.477  0.00  0.00    +0.000 C 
ATOM     21  C   UNL     1       2.552   5.048  17.904  0.00  0.00    +0.000 C 
ATOM     22  C   UNL     1       3.398   3.878  17.377  0.00  0.00    +0.000 C 
ATOM     23  C   UNL     1       4.321   4.379  16.257  0.00  0.00    +0.000 C 
ATOM     24  C   UNL     1       5.251   5.477  16.796  0.00  0.00    +0.000 C 
ATOM     25  C   UNL     1       6.101   4.904  17.939  0.00  0.00    +0.000 C 
ATOM     26  C   UNL     1       5.189   4.404  19.072  0.00  0.00    +0.000 C 
ATOM     27  C   UNL     1       4.254   3.314  18.524  0.00  0.00    +0.000 C 
ATOM     28  C   UNL     1       4.343   5.578  19.604  0.00  0.00    +0.000 C 
ATOM     29  C   UNL     1       4.402   6.641  17.336  0.00  0.00    +0.000 C 
ENDBRANCH  18  20
ENDBRANCH   3  16
BRANCH   1  30
ATOM     30  C   UNL     1      -0.823  11.115  18.166  0.00  0.00    +0.000 C 
BRANCH  30  31
ATOM     31  C   UNL     1      -1.583  10.123  17.271  0.00  0.00    +0.000 C 
BRANCH  31  32
ATOM     32  C   UNL     1      -3.057  10.021  17.659  0.00  0.00    +0.000 C 
BRANCH  32  34
ATOM     33  C   UNL     1      -4.845  11.727  17.169  0.00  0.00    +0.000 C 
ATOM     34  C   UNL     1      -3.950  10.645  16.586  0.00  0.00    +0.000 C 
ENDBRANCH  32  34
ENDBRANCH  31  32
ENDBRANCH  30  31
ENDBRANCH   1  30
TORSDOF 7
ENDMDL
MODEL 3
REMARK VINA RESULT:      -8.5      2.561      9.463
REMARK  Name = 
REMARK  8 active torsions:
REMARK  status: ('A' for Active; 'I' for Inactive)
REMARK    1  A    between atoms: C_1  and  C_2
REMARK    2  A    between atoms: C_2  and  C_3
REMARK    3  A    between atoms: C_3  and  C_4
REMARK    4  A    between atoms: C_4  and  C_5
REMARK    5  A    between atoms: C_5  and  N_6
REMARK    6  A    between atoms: C_8  and  C_9
REMARK    7  A    between atoms: N_11  and  C_12
REMARK    8  A    between atoms: C_26  and  C_27
REMARK                            x       y       z     vdW  Elec       q    Type
REMARK                         _______ _______ _______ _____ _____    ______ ____
ROOT
ATOM      1  N   UNL     1       2.674   5.658  20.201  0.00  0.00    +0.000 N 
ATOM      2  C   UNL     1       1.834   6.677  20.658  0.00  0.00    +0.000 A 
ATOM      3  C   UNL     1       1.616   7.841  20.011  0.00  0.00    +0.000 A 
ATOM      4  C   UNL     1       2.364   8.078  18.747  0.00  0.00    +0.000 A 
ATOM      5  O   UNL     1       2.312   9.116  18.095  0.00  0.00    +0.000 OA
ATOM      6  N   UNL     1       3.150   7.006  18.333  0.00  0.00    +0.000 N 
ATOM      7  N   UNL     1       3.915   7.020  17.217  0.00  0.00    +0.000 NA
ATOM      8  C   UNL     1       4.409   5.773  17.214  0.00  0.00    +0.000 A 
ATOM      9  N   UNL     1       4.020   4.993  18.274  0.00  0.00    +0.000 NA
ATOM     10  C   UNL     1       3.278   5.805  18.987  0.00  0.00    +0.000 A 
ENDROOT
BRANCH   8  11
ATOM     11  C   UNL     1       5.319   5.280  16.140  0.00  0.00    +0.000 A 
ATOM     12  C   UNL     1       5.216   4.060  15.496  0.00  0.00    +0.000 A 
ATOM     13  C   UNL     1       6.277   3.997  14.563  0.00  0.00    +0.000 A 
ATOM     14  C   UNL     1       6.967   5.178  14.693  0.00  0.00    +0.000 A 
ATOM     15  O   UNL     1       6.388   5.968  15.634  0.00  0.00    +0.000 OA
ENDBRANCH   8  11
BRANCH   3  16
ATOM     16  C   UNL     1       0.647   8.831  20.575  0.00  0.00    +0.000 C 
ATOM     17  O   UNL     1      -0.241   8.473  21.343  0.00  0.00    +0.000 OA
ATOM     18  N   UNL     1       0.832  10.133  20.167  0.00  0.00    +0.000 N 
ATOM     19  H   UNL     1       1.612  10.324  19.537  0.00  0.00    +0.000 HD
BRANCH  18  20
ATOM     20  C   UNL     1       0.044  11.299  20.595  0.00  0.00    +0.000 C 
ATOM     21  C   UNL     1      -0.291  11.229  22.105  0.00  0.00    +0.000 C 
ATOM     22  C   UNL     1      -1.068  12.479  22.550  0.00  0.00    +0.000 C 
ATOM     23  C   UNL     1      -0.213  13.729  22.298  0.00  0.00    +0.000 C 
ATOM     24  C   UNL     1       0.121  13.843  20.802  0.00  0.00    +0.000 C 
ATOM     25  C   UNL     1      -1.184  13.947  19.998  0.00  0.00    +0.000 C 
ATOM     26  C   UNL     1      -2.047  12.698  20.236  0.00  0.00    +0.000 C 
ATOM     27  C   UNL     1      -2.370  12.583  21.735  0.00  0.00    +0.000 C 
ATOM     28  C   UNL     1      -1.271  11.444  19.788  0.00  0.00    +0.000 C 
ATOM     29  C   UNL     1       0.887  12.585  20.356  0.00  0.00    +0.000 C 
ENDBRANCH  18  20
ENDBRANCH   3  16
BRANCH   1  30
ATOM     30  C   UNL     1       2.910   4.400  20.932  0.00  0.00    +0.000 C 
BRANCH  30  31
ATOM     31  C   UNL     1       1.590   3.696  21.283  0.00  0.00    +0.000 C 
BRANCH  31  32
ATOM     32  C   UNL     1       1.407   2.402  20.491  0.00  0.00    +0.000 C 
BRANCH  32  34
ATOM     33  C   UNL     1       2.007   2.165  18.056  0.00  0.00    +0.000 C 
ATOM     34  C   UNL     1       0.987   2.697  19.051  0.00  0.00    +0.000 C 
ENDBRANCH  32  34
ENDBRANCH  31  32
ENDBRANCH  30  31
ENDBRANCH   1  30
TORSDOF 7
ENDMDL
MODEL 4
REMARK VINA RESULT:      -8.5      2.574      9.463
REMARK  Name = 
REMARK  8 active torsions:
REMARK  status: ('A' for Active; 'I' for Inactive)
REMARK    1  A    between atoms: C_1  and  C_2
REMARK    2  A    between atoms: C_2  and  C_3
REMARK    3  A    between atoms: C_3  and  C_4
REMARK    4  A    between atoms: C_4  and  C_5
REMARK    5  A    between atoms: C_5  and  N_6
REMARK    6  A    between atoms: C_8  and  C_9
REMARK    7  A    between atoms: N_11  and  C_12
REMARK    8  A    between atoms: C_26  and  C_27
REMARK                            x       y       z     vdW  Elec       q    Type
REMARK                         _______ _______ _______ _____ _____    ______ ____
ROOT
ATOM      1  N   UNL     1       2.620   5.734  19.986  0.00  0.00    +0.000 N 
ATOM      2  C   UNL     1       1.814   6.780  20.443  0.00  0.00    +0.000 A 
ATOM      3  C   UNL     1       1.670   7.968  19.819  0.00  0.00    +0.000 A 
ATOM      4  C   UNL     1       2.467   8.199  18.584  0.00  0.00    +0.000 A 
ATOM      5  O   UNL     1       2.482   9.253  17.957  0.00  0.00    +0.000 OA
ATOM      6  N   UNL     1       3.215   7.102  18.166  0.00  0.00    +0.000 N 
ATOM      7  N   UNL     1       4.013   7.107  17.074  0.00  0.00    +0.000 NA
ATOM      8  C   UNL     1       4.450   5.838  17.054  0.00  0.00    +0.000 A 
ATOM      9  N   UNL     1       3.992   5.053  18.083  0.00  0.00    +0.000 NA
ATOM     10  C   UNL     1       3.267   5.881  18.794  0.00  0.00    +0.000 A 
ENDROOT
BRANCH   8  11
ATOM     11  C   UNL     1       5.368   5.329  15.996  0.00  0.00    +0.000 A 
ATOM     12  C   UNL     1       5.174   4.182  15.247  0.00  0.00    +0.000 A 
ATOM     13  C   UNL     1       6.281   4.070  14.373  0.00  0.00    +0.000 A 
ATOM     14  C   UNL     1       7.087   5.151  14.641  0.00  0.00    +0.000 A 
ATOM     15  O   UNL     1       6.537   5.927  15.610  0.00  0.00    +0.000 OA
ENDBRANCH   8  11
BRANCH   3  16
ATOM     16  C   UNL     1       0.730   8.989  20.379  0.00  0.00    +0.000 C 
ATOM     17  O   UNL     1      -0.203   8.652  21.102  0.00  0.00    +0.000 OA
ATOM     18  N   UNL     1       0.995  10.291  20.021  0.00  0.00    +0.000 N 
ATOM     19  H   UNL     1       1.808  10.461  19.427  0.00  0.00    +0.000 HD
BRANCH  18  20
ATOM     20  C   UNL     1       0.251  11.482  20.457  0.00  0.00    +0.000 C 
ATOM     21  C   UNL     1       1.107  12.764  20.317  0.00  0.00    +0.000 C 
ATOM     22  C   UNL     1       0.299  14.007  20.727  0.00  0.00    +0.000 C 
ATOM     23  C   UNL     1      -0.930  14.140  19.815  0.00  0.00    +0.000 C 
ATOM     24  C   UNL     1      -1.816  12.891  19.946  0.00  0.00    +0.000 C 
ATOM     25  C   UNL     1      -2.276  12.746  21.404  0.00  0.00    +0.000 C 
ATOM     26  C   UNL     1      -1.054  12.605  22.327  0.00  0.00    +0.000 C 
ATOM     27  C   UNL     1      -0.165  13.851  22.185  0.00  0.00    +0.000 C 
ATOM     28  C   UNL     1      -0.245  11.357  21.920  0.00  0.00    +0.000 C 
ATOM     29  C   UNL     1      -1.001  11.647  19.549  0.00  0.00    +0.000 C 
ENDBRANCH  18  20
ENDBRANCH   3  16
BRANCH   1  30
ATOM     30  C   UNL     1       2.776   4.450  20.691  0.00  0.00    +0.000 C 
BRANCH  30  31
ATOM     31  C   UNL     1       1.414   3.816  21.015  0.00  0.00    +0.000 C 
BRANCH  31  32
ATOM     32  C   UNL     1       1.188   2.522  20.233  0.00  0.00    +0.000 C 
BRANCH  32  34
ATOM     33  C   UNL     1       2.198   2.112  17.962  0.00  0.00    +0.000 C 
ATOM     34  C   UNL     1       1.083   2.800  18.733  0.00  0.00    +0.000 C 
ENDBRANCH  32  34
ENDBRANCH  31  32
ENDBRANCH  30  31
ENDBRANCH   1  30
TORSDOF 7
ENDMDL
MODEL 5
REMARK VINA RESULT:      -8.5      1.235      2.112
REMARK  Name = 
REMARK  8 active torsions:
REMARK  status: ('A' for Active; 'I' for Inactive)
REMARK    1  A    between atoms: C_1  and  C_2
REMARK    2  A    between atoms: C_2  and  C_3
REMARK    3  A    between atoms: C_3  and  C_4
REMARK    4  A    between atoms: C_4  and  C_5
REMARK    5  A    between atoms: C_5  and  N_6
REMARK    6  A    between atoms: C_8  and  C_9
REMARK    7  A    between atoms: N_11  and  C_12
REMARK    8  A    between atoms: C_26  and  C_27
REMARK                            x       y       z     vdW  Elec       q    Type
REMARK                         _______ _______ _______ _____ _____    ______ ____
ROOT
ATOM      1  N   UNL     1      -0.418  10.850  18.860  0.00  0.00    +0.000 N 
ATOM      2  C   UNL     1       0.402   9.756  18.574  0.00  0.00    +0.000 A 
ATOM      3  C   UNL     1       1.117   9.071  19.491  0.00  0.00    +0.000 A 
ATOM      4  C   UNL     1       1.068   9.548  20.900  0.00  0.00    +0.000 A 
ATOM      5  O   UNL     1       1.719   9.061  21.819  0.00  0.00    +0.000 OA
ATOM      6  N   UNL     1       0.201  10.615  21.118  0.00  0.00    +0.000 N 
ATOM      7  N   UNL     1       0.017  11.202  22.323  0.00  0.00    +0.000 NA
ATOM      8  C   UNL     1      -0.935  12.105  22.040  0.00  0.00    +0.000 A 
ATOM      9  N   UNL     1      -1.334  12.132  20.726  0.00  0.00    +0.000 NA
ATOM     10  C   UNL     1      -0.570  11.230  20.161  0.00  0.00    +0.000 A 
ENDROOT
BRANCH   8  11
ATOM     11  C   UNL     1      -1.506  13.011  23.077  0.00  0.00    +0.000 A 
ATOM     12  C   UNL     1      -2.824  13.025  23.495  0.00  0.00    +0.000 A 
ATOM     13  C   UNL     1      -2.933  14.036  24.478  0.00  0.00    +0.000 A 
ATOM     14  C   UNL     1      -1.677  14.582  24.601  0.00  0.00    +0.000 A 
ATOM     15  O   UNL     1      -0.803  13.960  23.769  0.00  0.00    +0.000 OA
ENDBRANCH   8  11
BRANCH   3  16
ATOM     16  C   UNL     1       1.915   7.879  19.068  0.00  0.00    +0.000 C 
ATOM     17  O   UNL     1       2.840   7.994  18.269  0.00  0.00    +0.000 OA
ATOM     18  N   UNL     1       1.530   6.683  19.632  0.00  0.00    +0.000 N 
ATOM     19  H   UNL     1       0.757   6.702  20.297  0.00  0.00    +0.000 HD
BRANCH  18  20
ATOM     20  C   UNL     1       2.164   5.374  19.413  0.00  0.00    +0.000 C 
ATOM     21  C   UNL     1       1.532   4.285  20.312  0.00  0.00    +0.000 C 
ATOM     22  C   UNL     1       2.167   2.912  20.035  0.00  0.00    +0.000 C 
ATOM     23  C   UNL     1       1.933   2.528  18.566  0.00  0.00    +0.000 C 
ATOM     24  C   UNL     1       2.568   3.579  17.643  0.00  0.00    +0.000 C 
ATOM     25  C   UNL     1       4.078   3.648  17.917  0.00  0.00    +0.000 C 
ATOM     26  C   UNL     1       4.326   4.039  19.383  0.00  0.00    +0.000 C 
ATOM     27  C   UNL     1       3.680   2.990  20.303  0.00  0.00    +0.000 C 
ATOM     28  C   UNL     1       3.693   5.417  19.662  0.00  0.00    +0.000 C 
ATOM     29  C   UNL     1       1.940   4.954  17.931  0.00  0.00    +0.000 C 
ENDBRANCH  18  20
ENDBRANCH   3  16
BRANCH   1  30
ATOM     30  C   UNL     1      -1.179  11.594  17.840  0.00  0.00    +0.000 C 
BRANCH  30  31
ATOM     31  C   UNL     1      -2.682  11.288  17.924  0.00  0.00    +0.000 C 
BRANCH  31  32
ATOM     32  C   UNL     1      -3.022   9.933  17.304  0.00  0.00    +0.000 C 
BRANCH  32  34
ATOM     33  C   UNL     1      -3.408  10.357  14.851  0.00  0.00    +0.000 C 
ATOM     34  C   UNL     1      -2.443   9.815  15.893  0.00  0.00    +0.000 C 
ENDBRANCH  32  34
ENDBRANCH  31  32
ENDBRANCH  30  31
ENDBRANCH   1  30
TORSDOF 7
ENDMDL
MODEL 6
REMARK VINA RESULT:      -8.4      1.266      1.734
REMARK  Name = 
REMARK  8 active torsions:
REMARK  status: ('A' for Active; 'I' for Inactive)
REMARK    1  A    between atoms: C_1  and  C_2
REMARK    2  A    between atoms: C_2  and  C_3
REMARK    3  A    between atoms: C_3  and  C_4
REMARK    4  A    between atoms: C_4  and  C_5
REMARK    5  A    between atoms: C_5  and  N_6
REMARK    6  A    between atoms: C_8  and  C_9
REMARK    7  A    between atoms: N_11  and  C_12
REMARK    8  A    between atoms: C_26  and  C_27
REMARK                            x       y       z     vdW  Elec       q    Type
REMARK                         _______ _______ _______ _____ _____    ______ ____
ROOT
ATOM      1  N   UNL     1      -0.402  10.857  18.842  0.00  0.00    +0.000 N 
ATOM      2  C   UNL     1       0.408   9.756  18.554  0.00  0.00    +0.000 A 
ATOM      3  C   UNL     1       1.127   9.071  19.467  0.00  0.00    +0.000 A 
ATOM      4  C   UNL     1       1.096   9.554  20.873  0.00  0.00    +0.000 A 
ATOM      5  O   UNL     1       1.753   9.068  21.788  0.00  0.00    +0.000 OA
ATOM      6  N   UNL     1       0.239  10.629  21.095  0.00  0.00    +0.000 N 
ATOM      7  N   UNL     1       0.072  11.223  22.299  0.00  0.00    +0.000 NA
ATOM      8  C   UNL     1      -0.876  12.131  22.021  0.00  0.00    +0.000 A 
ATOM      9  N   UNL     1      -1.289  12.155  20.712  0.00  0.00    +0.000 NA
ATOM     10  C   UNL     1      -0.538  11.245  20.143  0.00  0.00    +0.000 A 
ENDROOT
BRANCH   8  11
ATOM     11  C   UNL     1      -1.429  13.047  23.060  0.00  0.00    +0.000 A 
ATOM     12  C   UNL     1      -2.737  13.056  23.509  0.00  0.00    +0.000 A 
ATOM     13  C   UNL     1      -2.831  14.079  24.481  0.00  0.00    +0.000 A 
ATOM     14  C   UNL     1      -1.578  14.638  24.565  0.00  0.00    +0.000 A 
ATOM     15  O   UNL     1      -0.719  14.012  23.721  0.00  0.00    +0.000 OA
ENDBRANCH   8  11
BRANCH   3  16
ATOM     16  C   UNL     1       1.912   7.870  19.041  0.00  0.00    +0.000 C 
ATOM     17  O   UNL     1       2.867   7.983  18.279  0.00  0.00    +0.000 OA
ATOM     18  N   UNL     1       1.480   6.670  19.560  0.00  0.00    +0.000 N 
ATOM     19  H   UNL     1       0.683   6.692  20.198  0.00  0.00    +0.000 HD
BRANCH  18  20
ATOM     20  C   UNL     1       2.090   5.352  19.330  0.00  0.00    +0.000 C 
ATOM     21  C   UNL     1       3.594   5.356  19.696  0.00  0.00    +0.000 C 
ATOM     22  C   UNL     1       4.207   3.960  19.501  0.00  0.00    +0.000 C 
ATOM     23  C   UNL     1       3.486   2.954  20.411  0.00  0.00    +0.000 C 
ATOM     24  C   UNL     1       1.991   2.908  20.060  0.00  0.00    +0.000 C 
ATOM     25  C   UNL     1       1.829   2.477  18.594  0.00  0.00    +0.000 C 
ATOM     26  C   UNL     1       2.540   3.480  17.671  0.00  0.00    +0.000 C 
ATOM     27  C   UNL     1       4.033   3.531  18.034  0.00  0.00    +0.000 C 
ATOM     28  C   UNL     1       1.924   4.880  17.863  0.00  0.00    +0.000 C 
ATOM     29  C   UNL     1       1.383   4.309  20.242  0.00  0.00    +0.000 C 
ENDBRANCH  18  20
ENDBRANCH   3  16
BRANCH   1  30
ATOM     30  C   UNL     1      -1.167  11.602  17.827  0.00  0.00    +0.000 C 
BRANCH  30  31
ATOM     31  C   UNL     1      -2.678  11.360  17.971  0.00  0.00    +0.000 C 
BRANCH  31  32
ATOM     32  C   UNL     1      -3.115  10.067  17.285  0.00  0.00    +0.000 C 
BRANCH  32  34
ATOM     33  C   UNL     1      -3.361  10.333  14.792  0.00  0.00    +0.000 C 
ATOM     34  C   UNL     1      -2.436   9.913  15.924  0.00  0.00    +0.000 C 
ENDBRANCH  32  34
ENDBRANCH  31  32
ENDBRANCH  30  31
ENDBRANCH   1  30
TORSDOF 7
ENDMDL
MODEL 7
REMARK VINA RESULT:      -8.4      2.764      9.499
REMARK  Name = 
REMARK  8 active torsions:
REMARK  status: ('A' for Active; 'I' for Inactive)
REMARK    1  A    between atoms: C_1  and  C_2
REMARK    2  A    between atoms: C_2  and  C_3
REMARK    3  A    between atoms: C_3  and  C_4
REMARK    4  A    between atoms: C_4  and  C_5
REMARK    5  A    between atoms: C_5  and  N_6
REMARK    6  A    between atoms: C_8  and  C_9
REMARK    7  A    between atoms: N_11  and  C_12
REMARK    8  A    between atoms: C_26  and  C_27
REMARK                            x       y       z     vdW  Elec       q    Type
REMARK                         _______ _______ _______ _____ _____    ______ ____
ROOT
ATOM      1  N   UNL     1       2.203   6.474  19.993  0.00  0.00    +0.000 N 
ATOM      2  C   UNL     1       1.438   7.613  20.259  0.00  0.00    +0.000 A 
ATOM      3  C   UNL     1       1.404   8.714  19.481  0.00  0.00    +0.000 A 
ATOM      4  C   UNL     1       2.284   8.739  18.282  0.00  0.00    +0.000 A 
ATOM      5  O   UNL     1       2.401   9.700  17.528  0.00  0.00    +0.000 OA
ATOM      6  N   UNL     1       2.987   7.559  18.058  0.00  0.00    +0.000 N 
ATOM      7  N   UNL     1       3.847   7.378  17.029  0.00  0.00    +0.000 NA
ATOM      8  C   UNL     1       4.205   6.096  17.200  0.00  0.00    +0.000 A 
ATOM      9  N   UNL     1       3.641   5.478  18.288  0.00  0.00    +0.000 NA
ATOM     10  C   UNL     1       2.927   6.429  18.837  0.00  0.00    +0.000 A 
ENDROOT
BRANCH   8  11
ATOM     11  C   UNL     1       5.152   5.404  16.278  0.00  0.00    +0.000 A 
ATOM     12  C   UNL     1       5.166   4.048  16.011  0.00  0.00    +0.000 A 
ATOM     13  C   UNL     1       6.221   3.820  15.096  0.00  0.00    +0.000 A 
ATOM     14  C   UNL     1       6.791   5.049  14.862  0.00  0.00    +0.000 A 
ATOM     15  O   UNL     1       6.143   6.016  15.559  0.00  0.00    +0.000 OA
ENDBRANCH   8  11
BRANCH   3  16
ATOM     16  C   UNL     1       0.497   9.848  19.843  0.00  0.00    +0.000 C 
ATOM     17  O   UNL     1      -0.715   9.678  19.931  0.00  0.00    +0.000 OA
ATOM     18  N   UNL     1       1.122  11.056  20.056  0.00  0.00    +0.000 N 
ATOM     19  H   UNL     1       2.139  11.083  19.971  0.00  0.00    +0.000 HD
BRANCH  18  20
ATOM     20  C   UNL     1       0.472  12.314  20.453  0.00  0.00    +0.000 C 
ATOM     21  C   UNL     1      -0.603  12.741  19.425  0.00  0.00    +0.000 C 
ATOM     22  C   UNL     1      -1.311  14.029  19.879  0.00  0.00    +0.000 C 
ATOM     23  C   UNL     1      -1.999  13.784  21.230  0.00  0.00    +0.000 C 
ATOM     24  C   UNL     1      -0.956  13.378  22.283  0.00  0.00    +0.000 C 
ATOM     25  C   UNL     1       0.077  14.505  22.433  0.00  0.00    +0.000 C 
ATOM     26  C   UNL     1       0.778  14.756  21.088  0.00  0.00    +0.000 C 
ATOM     27  C   UNL     1      -0.270  15.151  20.036  0.00  0.00    +0.000 C 
ATOM     28  C   UNL     1       1.492  13.467  20.633  0.00  0.00    +0.000 C 
ATOM     29  C   UNL     1      -0.240  12.097  21.820  0.00  0.00    +0.000 C 
ENDBRANCH  18  20
ENDBRANCH   3  16
BRANCH   1  30
ATOM     30  C   UNL     1       2.239   5.287  20.865  0.00  0.00    +0.000 C 
BRANCH  30  31
ATOM     31  C   UNL     1       1.082   4.324  20.553  0.00  0.00    +0.000 C 
BRANCH  31  32
ATOM     32  C   UNL     1       1.587   2.954  20.105  0.00  0.00    +0.000 C 
BRANCH  32  34
ATOM     33  C   UNL     1       2.387   2.188  17.842  0.00  0.00    +0.000 C 
ATOM     34  C   UNL     1       1.196   2.673  18.654  0.00  0.00    +0.000 C 
ENDBRANCH  32  34
ENDBRANCH  31  32
ENDBRANCH  30  31
ENDBRANCH   1  30
TORSDOF 7
ENDMDL
MODEL 8
REMARK VINA RESULT:      -8.4      1.585      2.314
REMARK  Name = 
REMARK  8 active torsions:
REMARK  status: ('A' for Active; 'I' for Inactive)
REMARK    1  A    between atoms: C_1  and  C_2
REMARK    2  A    between atoms: C_2  and  C_3
REMARK    3  A    between atoms: C_3  and  C_4
REMARK    4  A    between atoms: C_4  and  C_5
REMARK    5  A    between atoms: C_5  and  N_6
REMARK    6  A    between atoms: C_8  and  C_9
REMARK    7  A    between atoms: N_11  and  C_12
REMARK    8  A    between atoms: C_26  and  C_27
REMARK                            x       y       z     vdW  Elec       q    Type
REMARK                         _______ _______ _______ _____ _____    ______ ____
ROOT
ATOM      1  N   UNL     1      -0.967  11.026  18.446  0.00  0.00    +0.000 N 
ATOM      2  C   UNL     1       0.020  10.120  18.051  0.00  0.00    +0.000 A 
ATOM      3  C   UNL     1       0.841   9.461  18.896  0.00  0.00    +0.000 A 
ATOM      4  C   UNL     1       0.721   9.761  20.348  0.00  0.00    +0.000 A 
ATOM      5  O   UNL     1       1.445   9.285  21.216  0.00  0.00    +0.000 OA
ATOM      6  N   UNL     1      -0.308  10.641  20.672  0.00  0.00    +0.000 N 
ATOM      7  N   UNL     1      -0.580  11.050  21.933  0.00  0.00    +0.000 NA
ATOM      8  C   UNL     1      -1.667  11.812  21.740  0.00  0.00    +0.000 A 
ATOM      9  N   UNL     1      -2.071  11.923  20.432  0.00  0.00    +0.000 NA
ATOM     10  C   UNL     1      -1.173  11.227  19.780  0.00  0.00    +0.000 A 
ENDROOT
BRANCH   8  11
ATOM     11  C   UNL     1      -2.374  12.491  22.864  0.00  0.00    +0.000 A 
ATOM     12  C   UNL     1      -1.998  13.689  23.443  0.00  0.00    +0.000 A 
ATOM     13  C   UNL     1      -2.933  13.960  24.470  0.00  0.00    +0.000 A 
ATOM     14  C   UNL     1      -3.821  12.911  24.460  0.00  0.00    +0.000 A 
ATOM     15  O   UNL     1      -3.502  12.025  23.483  0.00  0.00    +0.000 OA
ENDBRANCH   8  11
BRANCH   3  16
ATOM     16  C   UNL     1       1.821   8.469  18.352  0.00  0.00    +0.000 C 
ATOM     17  O   UNL     1       2.475   8.722  17.345  0.00  0.00    +0.000 OA
ATOM     18  N   UNL     1       1.916   7.290  19.056  0.00  0.00    +0.000 N 
ATOM     19  H   UNL     1       1.335   7.190  19.890  0.00  0.00    +0.000 HD
BRANCH  18  20
ATOM     20  C   UNL     1       2.820   6.169  18.757  0.00  0.00    +0.000 C 
ATOM     21  C   UNL     1       3.172   5.373  20.037  0.00  0.00    +0.000 C 
ATOM     22  C   UNL     1       4.074   4.174  19.703  0.00  0.00    +0.000 C 
ATOM     23  C   UNL     1       3.339   3.237  18.733  0.00  0.00    +0.000 C 
ATOM     24  C   UNL     1       2.992   3.989  17.439  0.00  0.00    +0.000 C 
ATOM     25  C   UNL     1       4.287   4.490  16.782  0.00  0.00    +0.000 C 
ATOM     26  C   UNL     1       5.030   5.435  17.740  0.00  0.00    +0.000 C 
ATOM     27  C   UNL     1       5.365   4.681  19.037  0.00  0.00    +0.000 C 
ATOM     28  C   UNL     1       4.128   6.640  18.073  0.00  0.00    +0.000 C 
ATOM     29  C   UNL     1       2.101   5.197  17.778  0.00  0.00    +0.000 C 
ENDBRANCH  18  20
ENDBRANCH   3  16
BRANCH   1  30
ATOM     30  C   UNL     1      -1.842  11.748  17.506  0.00  0.00    +0.000 C 
BRANCH  30  31
ATOM     31  C   UNL     1      -2.551  10.783  16.543  0.00  0.00    +0.000 C 
BRANCH  31  32
ATOM     32  C   UNL     1      -4.049  11.073  16.448  0.00  0.00    +0.000 C 
BRANCH  32  34
ATOM     33  C   UNL     1      -5.962  11.079  18.087  0.00  0.00    +0.000 C 
ATOM     34  C   UNL     1      -4.583  11.634  17.766  0.00  0.00    +0.000 C 
ENDBRANCH  32  34
ENDBRANCH  31  32
ENDBRANCH  30  31
ENDBRANCH   1  30
TORSDOF 7
ENDMDL
MODEL 9
REMARK VINA RESULT:      -8.4      2.418      3.604
REMARK  Name = 
REMARK  8 active torsions:
REMARK  status: ('A' for Active; 'I' for Inactive)
REMARK    1  A    between atoms: C_1  and  C_2
REMARK    2  A    between atoms: C_2  and  C_3
REMARK    3  A    between atoms: C_3  and  C_4
REMARK    4  A    between atoms: C_4  and  C_5
REMARK    5  A    between atoms: C_5  and  N_6
REMARK    6  A    between atoms: C_8  and  C_9
REMARK    7  A    between atoms: N_11  and  C_12
REMARK    8  A    between atoms: C_26  and  C_27
REMARK                            x       y       z     vdW  Elec       q    Type
REMARK                         _______ _______ _______ _____ _____    ______ ____
ROOT
ATOM      1  N   UNL     1       1.088  11.332  19.051  0.00  0.00    +0.000 N 
ATOM      2  C   UNL     1       1.708  10.136  18.680  0.00  0.00    +0.000 A 
ATOM      3  C   UNL     1       1.605   8.975  19.359  0.00  0.00    +0.000 A 
ATOM      4  C   UNL     1       0.818   8.981  20.621  0.00  0.00    +0.000 A 
ATOM      5  O   UNL     1       0.698   8.016  21.368  0.00  0.00    +0.000 OA
ATOM      6  N   UNL     1       0.197  10.194  20.907  0.00  0.00    +0.000 N 
ATOM      7  N   UNL     1      -0.557  10.412  22.009  0.00  0.00    +0.000 NA
ATOM      8  C   UNL     1      -0.977  11.670  21.803  0.00  0.00    +0.000 A 
ATOM      9  N   UNL     1      -0.509  12.255  20.652  0.00  0.00    +0.000 NA
ATOM     10  C   UNL     1       0.266  11.331  20.139  0.00  0.00    +0.000 A 
ENDROOT
BRANCH   8  11
ATOM     11  C   UNL     1      -1.879  12.375  22.758  0.00  0.00    +0.000 A 
ATOM     12  C   UNL     1      -1.627  13.602  23.344  0.00  0.00    +0.000 A 
ATOM     13  C   UNL     1      -2.731  13.892  24.181  0.00  0.00    +0.000 A 
ATOM     14  C   UNL     1      -3.588  12.825  24.060  0.00  0.00    +0.000 A 
ATOM     15  O   UNL     1      -3.091  11.908  23.191  0.00  0.00    +0.000 OA
ENDBRANCH   8  11
BRANCH   3  16
ATOM     16  C   UNL     1       2.271   7.745  18.827  0.00  0.00    +0.000 C 
ATOM     17  O   UNL     1       3.003   7.803  17.843  0.00  0.00    +0.000 OA
ATOM     18  N   UNL     1       1.996   6.584  19.513  0.00  0.00    +0.000 N 
ATOM     19  H   UNL     1       1.385   6.650  20.328  0.00  0.00    +0.000 HD
BRANCH  18  20
ATOM     20  C   UNL     1       2.544   5.250  19.221  0.00  0.00    +0.000 C 
ATOM     21  C   UNL     1       2.011   4.192  20.217  0.00  0.00    +0.000 C 
ATOM     22  C   UNL     1       2.549   2.795  19.868  0.00  0.00    +0.000 C 
ATOM     23  C   UNL     1       2.089   2.409  18.454  0.00  0.00    +0.000 C 
ATOM     24  C   UNL     1       2.621   3.428  17.435  0.00  0.00    +0.000 C 
ATOM     25  C   UNL     1       4.156   3.443  17.486  0.00  0.00    +0.000 C 
ATOM     26  C   UNL     1       4.629   3.835  18.895  0.00  0.00    +0.000 C 
ATOM     27  C   UNL     1       4.087   2.818  19.913  0.00  0.00    +0.000 C 
ATOM     28  C   UNL     1       4.093   5.237  19.245  0.00  0.00    +0.000 C 
ATOM     29  C   UNL     1       2.092   4.828  17.794  0.00  0.00    +0.000 C 
ENDBRANCH  18  20
ENDBRANCH   3  16
BRANCH   1  30
ATOM     30  C   UNL     1       1.226  12.595  18.303  0.00  0.00    +0.000 C 
BRANCH  30  31
ATOM     31  C   UNL     1       2.545  13.308  18.642  0.00  0.00    +0.000 C 
BRANCH  31  32
ATOM     32  C   UNL     1       2.412  14.827  18.538  0.00  0.00    +0.000 C 
BRANCH  32  34
ATOM     33  C   UNL     1       4.851  14.779  17.910  0.00  0.00    +0.000 C 
ATOM     34  C   UNL     1       3.496  15.410  17.631  0.00  0.00    +0.000 C 
ENDBRANCH  32  34
ENDBRANCH  31  32
ENDBRANCH  30  31
ENDBRANCH   1  30
TORSDOF 7
ENDMDL
