MODEL 1
REMARK VINA RESULT:      -9.3      0.000      0.000
REMARK  Name = 
REMARK  5 active torsions:
REMARK  status: ('A' for Active; 'I' for Inactive)
REMARK    1  A    between atoms: C_2  and  C_3
REMARK    2  A    between atoms: C_2  and  C_19
REMARK    3  A    between atoms: C_4  and  C_5
REMARK    4  A    between atoms: C_8  and  C_9
REMARK    5  A    between atoms: N_10  and  C_11
REMARK                            x       y       z     vdW  Elec       q    Type
REMARK                         _______ _______ _______ _____ _____    ______ ____
ROOT
ATOM      1  O   UNL     1      10.137  11.387  17.354  0.00  0.00    +0.000 OA
ATOM      2  C   UNL     1       9.764  11.164  18.504  0.00  0.00    +0.000 C 
ENDROOT
BRANCH   2   3
ATOM      3  C   UNL     1      10.146  12.144  19.618  0.00  0.00    +0.000 A 
ATOM      4  C   UNL     1      10.059  11.586  20.910  0.00  0.00    +0.000 A 
ATOM      5  C   UNL     1       9.232  12.203  21.855  0.00  0.00    +0.000 A 
ATOM      6  C   UNL     1       8.379  13.221  21.416  0.00  0.00    +0.000 A 
ATOM      7  C   UNL     1       8.524  13.683  20.099  0.00  0.00    +0.000 A 
ATOM      8  C   UNL     1       9.750  13.466  19.517  0.00  0.00    +0.000 A 
ATOM      9  C   UNL     1      10.681  14.605  20.059  0.00  0.00    +0.000 C 
ATOM     10  O   UNL     1      11.892  14.467  20.122  0.00  0.00    +0.000 OA
ATOM     11  C   UNL     1       9.992  15.891  20.555  0.00  0.00    +0.000 A 
ATOM     12  C   UNL     1      10.578  16.825  21.412  0.00  0.00    +0.000 A 
ATOM     13  C   UNL     1       9.813  17.921  21.875  0.00  0.00    +0.000 A 
ATOM     14  C   UNL     1       8.490  18.118  21.455  0.00  0.00    +0.000 A 
ATOM     15  C   UNL     1       7.897  17.201  20.606  0.00  0.00    +0.000 A 
ATOM     16  C   UNL     1       8.644  16.093  20.219  0.00  0.00    +0.000 A 
ATOM     17  C   UNL     1       7.951  14.948  19.654  0.00  0.00    +0.000 C 
ATOM     18  O   UNL     1       7.104  15.007  18.784  0.00  0.00    +0.000 OA
ENDBRANCH   2   3
BRANCH   2  19
ATOM     19  C   UNL     1       9.024   9.879  18.840  0.00  0.00    +0.000 C 
ATOM     20  C   UNL     1       8.537   9.060  17.883  0.00  0.00    +0.000 C 
BRANCH  20  21
ATOM     21  C   UNL     1       7.774   7.787  18.076  0.00  0.00    +0.000 A 
ATOM     22  C   UNL     1       6.606   7.567  17.315  0.00  0.00    +0.000 A 
ATOM     23  C   UNL     1       5.857   6.365  17.435  0.00  0.00    +0.000 A 
ATOM     24  C   UNL     1       6.265   5.355  18.303  0.00  0.00    +0.000 A 
ATOM     25  C   UNL     1       7.433   5.558  19.051  0.00  0.00    +0.000 A 
ATOM     26  C   UNL     1       8.181   6.751  18.933  0.00  0.00    +0.000 A 
BRANCH  24  27
ATOM     27  C   UNL     1       5.463   4.101  18.464  0.00  0.00    +0.000 C 
ATOM     28  N   UNL     1       4.545   3.975  19.364  0.00  0.00    +0.000 NA
BRANCH  28  29
ATOM     29  C   UNL     1       3.904   2.648  19.505  0.00  0.00    +0.000 C 
ATOM     30  C   UNL     1       2.824   2.750  20.598  0.00  0.00    +0.000 C 
ATOM     31  C   UNL     1       1.656   3.647  20.185  0.00  0.00    +0.000 C 
ATOM     32  C   UNL     1       1.027   3.192  18.872  0.00  0.00    +0.000 C 
ATOM     33  C   UNL     1       2.066   3.042  17.763  0.00  0.00    +0.000 C 
ATOM     34  C   UNL     1       3.252   2.179  18.196  0.00  0.00    +0.000 C 
ENDBRANCH  28  29
ENDBRANCH  24  27
ENDBRANCH  20  21
ENDBRANCH   2  19
TORSDOF 5
ENDMDL
MODEL 2
REMARK VINA RESULT:      -9.1      7.672     11.611
REMARK  Name = 
REMARK  5 active torsions:
REMARK  status: ('A' for Active; 'I' for Inactive)
REMARK    1  A    between atoms: C_2  and  C_3
REMARK    2  A    between atoms: C_2  and  C_19
REMARK    3  A    between atoms: C_4  and  C_5
REMARK    4  A    between atoms: C_8  and  C_9
REMARK    5  A    between atoms: N_10  and  C_11
REMARK                            x       y       z     vdW  Elec       q    Type
REMARK                         _______ _______ _______ _____ _____    ______ ____
ROOT
ATOM      1  O   UNL     1       2.518   4.827  21.318  0.00  0.00    +0.000 OA
ATOM      2  C   UNL     1       1.965   5.633  20.572  0.00  0.00    +0.000 C 
ENDROOT
BRANCH   2   3
ATOM      3  C   UNL     1       2.268   5.593  19.070  0.00  0.00    +0.000 A 
ATOM      4  C   UNL     1       1.435   4.709  18.354  0.00  0.00    +0.000 A 
ATOM      5  C   UNL     1       2.025   3.683  17.607  0.00  0.00    +0.000 A 
ATOM      6  C   UNL     1       3.397   3.461  17.768  0.00  0.00    +0.000 A 
ATOM      7  C   UNL     1       4.132   4.381  18.531  0.00  0.00    +0.000 A 
ATOM      8  C   UNL     1       3.585   5.637  18.648  0.00  0.00    +0.000 A 
ATOM      9  C   UNL     1       3.955   6.383  17.321  0.00  0.00    +0.000 C 
ATOM     10  O   UNL     1       3.280   7.306  16.894  0.00  0.00    +0.000 OA
ATOM     11  C   UNL     1       5.186   5.865  16.551  0.00  0.00    +0.000 A 
ATOM     12  C   UNL     1       5.440   6.115  15.201  0.00  0.00    +0.000 A 
ATOM     13  C   UNL     1       6.556   5.509  14.578  0.00  0.00    +0.000 A 
ATOM     14  C   UNL     1       7.443   4.696  15.299  0.00  0.00    +0.000 A 
ATOM     15  C   UNL     1       7.203   4.440  16.638  0.00  0.00    +0.000 A 
ATOM     16  C   UNL     1       6.062   4.990  17.212  0.00  0.00    +0.000 A 
ATOM     17  C   UNL     1       5.587   4.448  18.474  0.00  0.00    +0.000 C 
ATOM     18  O   UNL     1       6.286   4.228  19.444  0.00  0.00    +0.000 OA
ENDBRANCH   2   3
BRANCH   2  19
ATOM     19  C   UNL     1       1.074   6.726  21.141  0.00  0.00    +0.000 C 
ATOM     20  C   UNL     1       1.264   8.030  20.847  0.00  0.00    +0.000 C 
BRANCH  20  21
ATOM     21  C   UNL     1       0.482   9.201  21.356  0.00  0.00    +0.000 A 
ATOM     22  C   UNL     1      -0.081   9.139  22.648  0.00  0.00    +0.000 A 
ATOM     23  C   UNL     1      -0.809  10.230  23.195  0.00  0.00    +0.000 A 
ATOM     24  C   UNL     1      -0.977  11.408  22.471  0.00  0.00    +0.000 A 
ATOM     25  C   UNL     1      -0.407  11.486  21.192  0.00  0.00    +0.000 A 
ATOM     26  C   UNL     1       0.319  10.403  20.647  0.00  0.00    +0.000 A 
BRANCH  24  27
ATOM     27  C   UNL     1      -1.773  12.550  23.022  0.00  0.00    +0.000 C 
ATOM     28  N   UNL     1      -3.053  12.487  23.189  0.00  0.00    +0.000 NA
BRANCH  28  29
ATOM     29  C   UNL     1      -3.746  13.721  23.627  0.00  0.00    +0.000 C 
ATOM     30  C   UNL     1      -3.636  14.760  22.496  0.00  0.00    +0.000 C 
ATOM     31  C   UNL     1      -4.424  14.355  21.250  0.00  0.00    +0.000 C 
ATOM     32  C   UNL     1      -5.890  14.083  21.568  0.00  0.00    +0.000 C 
ATOM     33  C   UNL     1      -6.052  13.082  22.710  0.00  0.00    +0.000 C 
ATOM     34  C   UNL     1      -5.229  13.470  23.938  0.00  0.00    +0.000 C 
ENDBRANCH  28  29
ENDBRANCH  24  27
ENDBRANCH  20  21
ENDBRANCH   2  19
TORSDOF 5
ENDMDL
MODEL 3
REMARK VINA RESULT:      -9.1      1.434      2.408
REMARK  Name = 
REMARK  5 active torsions:
REMARK  status: ('A' for Active; 'I' for Inactive)
REMARK    1  A    between atoms: C_2  and  C_3
REMARK    2  A    between atoms: C_2  and  C_19
REMARK    3  A    between atoms: C_4  and  C_5
REMARK    4  A    between atoms: C_8  and  C_9
REMARK    5  A    between atoms: N_10  and  C_11
REMARK                            x       y       z     vdW  Elec       q    Type
REMARK                         _______ _______ _______ _____ _____    ______ ____
ROOT
ATOM      1  O   UNL     1      11.224  11.243  19.371  0.00  0.00    +0.000 OA
ATOM      2  C   UNL     1      10.063  11.233  18.967  0.00  0.00    +0.000 C 
ENDROOT
BRANCH   2   3
ATOM      3  C   UNL     1       9.454  12.522  18.407  0.00  0.00    +0.000 A 
ATOM      4  C   UNL     1      10.323  13.224  17.546  0.00  0.00    +0.000 A 
ATOM      5  C   UNL     1      10.647  14.551  17.852  0.00  0.00    +0.000 A 
ATOM      6  C   UNL     1      10.257  15.050  19.099  0.00  0.00    +0.000 A 
ATOM      7  C   UNL     1       9.419  14.257  19.897  0.00  0.00    +0.000 A 
ATOM      8  C   UNL     1       8.674  13.313  19.231  0.00  0.00    +0.000 A 
ATOM      9  C   UNL     1       7.445  14.084  18.641  0.00  0.00    +0.000 C 
ATOM     10  O   UNL     1       6.851  13.684  17.652  0.00  0.00    +0.000 OA
ATOM     11  C   UNL     1       7.050  15.403  19.336  0.00  0.00    +0.000 A 
ATOM     12  C   UNL     1       6.275  16.407  18.751  0.00  0.00    +0.000 A 
ATOM     13  C   UNL     1       6.056  17.614  19.454  0.00  0.00    +0.000 A 
ATOM     14  C   UNL     1       6.561  17.810  20.747  0.00  0.00    +0.000 A 
ATOM     15  C   UNL     1       7.330  16.823  21.338  0.00  0.00    +0.000 A 
ATOM     16  C   UNL     1       7.592  15.672  20.602  0.00  0.00    +0.000 A 
ATOM     17  C   UNL     1       8.678  14.806  21.027  0.00  0.00    +0.000 C 
ATOM     18  O   UNL     1       8.865  14.432  22.169  0.00  0.00    +0.000 OA
ENDBRANCH   2   3
BRANCH   2  19
ATOM     19  C   UNL     1       9.204   9.987  19.120  0.00  0.00    +0.000 C 
ATOM     20  C   UNL     1       8.810   9.253  18.057  0.00  0.00    +0.000 C 
BRANCH  20  21
ATOM     21  C   UNL     1       7.949   8.029  18.065  0.00  0.00    +0.000 A 
ATOM     22  C   UNL     1       6.799   7.995  17.248  0.00  0.00    +0.000 A 
ATOM     23  C   UNL     1       5.960   6.849  17.194  0.00  0.00    +0.000 A 
ATOM     24  C   UNL     1       6.259   5.711  17.939  0.00  0.00    +0.000 A 
ATOM     25  C   UNL     1       7.409   5.729  18.741  0.00  0.00    +0.000 A 
ATOM     26  C   UNL     1       8.246   6.866  18.796  0.00  0.00    +0.000 A 
BRANCH  24  27
ATOM     27  C   UNL     1       5.362   4.513  17.917  0.00  0.00    +0.000 C 
ATOM     28  N   UNL     1       4.411   4.342  18.775  0.00  0.00    +0.000 NA
BRANCH  28  29
ATOM     29  C   UNL     1       3.670   3.061  18.726  0.00  0.00    +0.000 C 
ATOM     30  C   UNL     1       3.462   2.571  20.171  0.00  0.00    +0.000 C 
ATOM     31  C   UNL     1       2.520   3.477  20.966  0.00  0.00    +0.000 C 
ATOM     32  C   UNL     1       1.172   3.642  20.273  0.00  0.00    +0.000 C 
ATOM     33  C   UNL     1       1.327   4.094  18.822  0.00  0.00    +0.000 C 
ATOM     34  C   UNL     1       2.302   3.210  18.044  0.00  0.00    +0.000 C 
ENDBRANCH  28  29
ENDBRANCH  24  27
ENDBRANCH  20  21
ENDBRANCH   2  19
TORSDOF 5
ENDMDL
MODEL 4
REMARK VINA RESULT:      -8.9      7.445     11.589
REMARK  Name = 
REMARK  5 active torsions:
REMARK  status: ('A' for Active; 'I' for Inactive)
REMARK    1  A    between atoms: C_2  and  C_3
REMARK    2  A    between atoms: C_2  and  C_19
REMARK    3  A    between atoms: C_4  and  C_5
REMARK    4  A    between atoms: C_8  and  C_9
REMARK    5  A    between atoms: N_10  and  C_11
REMARK                            x       y       z     vdW  Elec       q    Type
REMARK                         _______ _______ _______ _____ _____    ______ ____
ROOT
ATOM      1  O   UNL     1       2.193   4.456  21.301  0.00  0.00    +0.000 OA
ATOM      2  C   UNL     1       1.851   5.423  20.623  0.00  0.00    +0.000 C 
ENDROOT
BRANCH   2   3
ATOM      3  C   UNL     1       2.177   5.440  19.126  0.00  0.00    +0.000 A 
ATOM      4  C   UNL     1       1.369   4.568  18.367  0.00  0.00    +0.000 A 
ATOM      5  C   UNL     1       1.987   3.579  17.594  0.00  0.00    +0.000 A 
ATOM      6  C   UNL     1       3.359   3.372  17.769  0.00  0.00    +0.000 A 
ATOM      7  C   UNL     1       4.068   4.276  18.574  0.00  0.00    +0.000 A 
ATOM      8  C   UNL     1       3.499   5.519  18.726  0.00  0.00    +0.000 A 
ATOM      9  C   UNL     1       3.878   6.316  17.431  0.00  0.00    +0.000 C 
ATOM     10  O   UNL     1       3.194   7.243  17.026  0.00  0.00    +0.000 OA
ATOM     11  C   UNL     1       5.128   5.845  16.662  0.00  0.00    +0.000 A 
ATOM     12  C   UNL     1       5.398   6.146  15.326  0.00  0.00    +0.000 A 
ATOM     13  C   UNL     1       6.532   5.579  14.700  0.00  0.00    +0.000 A 
ATOM     14  C   UNL     1       7.421   4.755  15.406  0.00  0.00    +0.000 A 
ATOM     15  C   UNL     1       7.166   4.449  16.731  0.00  0.00    +0.000 A 
ATOM     16  C   UNL     1       6.007   4.960  17.307  0.00  0.00    +0.000 A 
ATOM     17  C   UNL     1       5.523   4.368  18.541  0.00  0.00    +0.000 C 
ATOM     18  O   UNL     1       6.211   4.125  19.514  0.00  0.00    +0.000 OA
ENDBRANCH   2   3
BRANCH   2  19
ATOM     19  C   UNL     1       1.209   6.636  21.278  0.00  0.00    +0.000 C 
ATOM     20  C   UNL     1       1.239   7.859  20.705  0.00  0.00    +0.000 C 
BRANCH  20  21
ATOM     21  C   UNL     1       0.672   9.132  21.250  0.00  0.00    +0.000 A 
ATOM     22  C   UNL     1       0.877  10.333  20.538  0.00  0.00    +0.000 A 
ATOM     23  C   UNL     1       0.339  11.568  20.993  0.00  0.00    +0.000 A 
ATOM     24  C   UNL     1      -0.426  11.626  22.155  0.00  0.00    +0.000 A 
ATOM     25  C   UNL     1      -0.649  10.435  22.861  0.00  0.00    +0.000 A 
ATOM     26  C   UNL     1      -0.116   9.206  22.411  0.00  0.00    +0.000 A 
BRANCH  24  27
ATOM     27  C   UNL     1      -0.966  12.927  22.663  0.00  0.00    +0.000 C 
ATOM     28  N   UNL     1      -2.036  13.001  23.382  0.00  0.00    +0.000 NA
BRANCH  28  29
ATOM     29  C   UNL     1      -2.538  14.352  23.722  0.00  0.00    +0.000 C 
ATOM     30  C   UNL     1      -2.751  15.129  22.409  0.00  0.00    +0.000 C 
ATOM     31  C   UNL     1      -3.887  14.550  21.564  0.00  0.00    +0.000 C 
ATOM     32  C   UNL     1      -5.195  14.475  22.344  0.00  0.00    +0.000 C 
ATOM     33  C   UNL     1      -5.027  13.742  23.673  0.00  0.00    +0.000 C 
ATOM     34  C   UNL     1      -3.864  14.299  24.496  0.00  0.00    +0.000 C 
ENDBRANCH  28  29
ENDBRANCH  24  27
ENDBRANCH  20  21
ENDBRANCH   2  19
TORSDOF 5
ENDMDL
MODEL 5
REMARK VINA RESULT:      -8.9      3.478     11.368
REMARK  Name = 
REMARK  5 active torsions:
REMARK  status: ('A' for Active; 'I' for Inactive)
REMARK    1  A    between atoms: C_2  and  C_3
REMARK    2  A    between atoms: C_2  and  C_19
REMARK    3  A    between atoms: C_4  and  C_5
REMARK    4  A    between atoms: C_8  and  C_9
REMARK    5  A    between atoms: N_10  and  C_11
REMARK                            x       y       z     vdW  Elec       q    Type
REMARK                         _______ _______ _______ _____ _____    ______ ____
ROOT
ATOM      1  O   UNL     1       7.570   6.665  15.847  0.00  0.00    +0.000 OA
ATOM      2  C   UNL     1       7.409   6.535  17.060  0.00  0.00    +0.000 C 
ENDROOT
BRANCH   2   3
ATOM      3  C   UNL     1       6.646   5.315  17.587  0.00  0.00    +0.000 A 
ATOM      4  C   UNL     1       6.608   4.242  16.674  0.00  0.00    +0.000 A 
ATOM      5  C   UNL     1       5.363   3.745  16.271  0.00  0.00    +0.000 A 
ATOM      6  C   UNL     1       4.220   4.467  16.634  0.00  0.00    +0.000 A 
ATOM      7  C   UNL     1       4.371   5.542  17.521  0.00  0.00    +0.000 A 
ATOM      8  C   UNL     1       5.489   5.509  18.321  0.00  0.00    +0.000 A 
ATOM      9  C   UNL     1       5.138   4.538  19.498  0.00  0.00    +0.000 C 
ATOM     10  O   UNL     1       6.003   3.935  20.112  0.00  0.00    +0.000 OA
ATOM     11  C   UNL     1       3.642   4.338  19.814  0.00  0.00    +0.000 A 
ATOM     12  C   UNL     1       3.119   3.255  20.524  0.00  0.00    +0.000 A 
ATOM     13  C   UNL     1       1.718   3.132  20.672  0.00  0.00    +0.000 A 
ATOM     14  C   UNL     1       0.841   4.098  20.160  0.00  0.00    +0.000 A 
ATOM     15  C   UNL     1       1.346   5.176  19.454  0.00  0.00    +0.000 A 
ATOM     16  C   UNL     1       2.722   5.242  19.261  0.00  0.00    +0.000 A 
ATOM     17  C   UNL     1       3.239   6.126  18.231  0.00  0.00    +0.000 C 
ATOM     18  O   UNL     1       2.899   7.282  18.071  0.00  0.00    +0.000 OA
ENDBRANCH   2   3
BRANCH   2  19
ATOM     19  C   UNL     1       7.864   7.623  18.019  0.00  0.00    +0.000 C 
ATOM     20  C   UNL     1       8.243   8.846  17.589  0.00  0.00    +0.000 C 
BRANCH  20  21
ATOM     21  C   UNL     1       8.734   9.991  18.419  0.00  0.00    +0.000 A 
ATOM     22  C   UNL     1       8.779  11.281  17.848  0.00  0.00    +0.000 A 
ATOM     23  C   UNL     1       9.208  12.410  18.597  0.00  0.00    +0.000 A 
ATOM     24  C   UNL     1       9.585  12.278  19.931  0.00  0.00    +0.000 A 
ATOM     25  C   UNL     1       9.527  11.004  20.512  0.00  0.00    +0.000 A 
ATOM     26  C   UNL     1       9.099   9.880  19.771  0.00  0.00    +0.000 A 
BRANCH  24  27
ATOM     27  C   UNL     1      10.074  13.455  20.718  0.00  0.00    +0.000 C 
ATOM     28  N   UNL     1       9.589  14.643  20.565  0.00  0.00    +0.000 NA
BRANCH  28  29
ATOM     29  C   UNL     1      10.236  15.746  21.311  0.00  0.00    +0.000 C 
ATOM     30  C   UNL     1      11.579  16.065  20.627  0.00  0.00    +0.000 C 
ATOM     31  C   UNL     1      11.396  16.663  19.231  0.00  0.00    +0.000 C 
ATOM     32  C   UNL     1      10.515  17.907  19.256  0.00  0.00    +0.000 C 
ATOM     33  C   UNL     1       9.183  17.650  19.957  0.00  0.00    +0.000 C 
ATOM     34  C   UNL     1       9.370  17.013  21.335  0.00  0.00    +0.000 C 
ENDBRANCH  28  29
ENDBRANCH  24  27
ENDBRANCH  20  21
ENDBRANCH   2  19
TORSDOF 5
ENDMDL
MODEL 6
REMARK VINA RESULT:      -8.8      7.121     11.448
REMARK  Name = 
REMARK  5 active torsions:
REMARK  status: ('A' for Active; 'I' for Inactive)
REMARK    1  A    between atoms: C_2  and  C_3
REMARK    2  A    between atoms: C_2  and  C_19
REMARK    3  A    between atoms: C_4  and  C_5
REMARK    4  A    between atoms: C_8  and  C_9
REMARK    5  A    between atoms: N_10  and  C_11
REMARK                            x       y       z     vdW  Elec       q    Type
REMARK                         _______ _______ _______ _____ _____    ______ ____
ROOT
ATOM      1  O   UNL     1       2.064   3.382  21.994  0.00  0.00    +0.000 OA
ATOM      2  C   UNL     1       1.935   4.124  21.022  0.00  0.00    +0.000 C 
ENDROOT
BRANCH   2   3
ATOM      3  C   UNL     1       2.364   3.625  19.638  0.00  0.00    +0.000 A 
ATOM      4  C   UNL     1       2.342   2.220  19.518  0.00  0.00    +0.000 A 
ATOM      5  C   UNL     1       3.519   1.557  19.152  0.00  0.00    +0.000 A 
ATOM      6  C   UNL     1       4.706   2.298  19.121  0.00  0.00    +0.000 A 
ATOM      7  C   UNL     1       4.623   3.689  19.287  0.00  0.00    +0.000 A 
ATOM      8  C   UNL     1       3.408   4.258  18.988  0.00  0.00    +0.000 A 
ATOM      9  C   UNL     1       3.384   4.404  17.428  0.00  0.00    +0.000 C 
ATOM     10  O   UNL     1       2.336   4.436  16.803  0.00  0.00    +0.000 OA
ATOM     11  C   UNL     1       4.748   4.456  16.712  0.00  0.00    +0.000 A 
ATOM     12  C   UNL     1       4.943   4.189  15.355  0.00  0.00    +0.000 A 
ATOM     13  C   UNL     1       6.255   4.177  14.830  0.00  0.00    +0.000 A 
ATOM     14  C   UNL     1       7.367   4.473  15.631  0.00  0.00    +0.000 A 
ATOM     15  C   UNL     1       7.188   4.740  16.977  0.00  0.00    +0.000 A 
ATOM     16  C   UNL     1       5.897   4.678  17.488  0.00  0.00    +0.000 A 
ATOM     17  C   UNL     1       5.720   4.578  18.927  0.00  0.00    +0.000 C 
ATOM     18  O   UNL     1       6.292   5.270  19.748  0.00  0.00    +0.000 OA
ENDBRANCH   2   3
BRANCH   2  19
ATOM     19  C   UNL     1       1.457   5.556  21.201  0.00  0.00    +0.000 C 
ATOM     20  C   UNL     1       1.875   6.557  20.397  0.00  0.00    +0.000 C 
BRANCH  20  21
ATOM     21  C   UNL     1       1.506   8.006  20.480  0.00  0.00    +0.000 A 
ATOM     22  C   UNL     1       1.501   8.780  19.301  0.00  0.00    +0.000 A 
ATOM     23  C   UNL     1       1.131  10.152  19.314  0.00  0.00    +0.000 A 
ATOM     24  C   UNL     1       0.745  10.774  20.499  0.00  0.00    +0.000 A 
ATOM     25  C   UNL     1       0.732  10.009  21.674  0.00  0.00    +0.000 A 
ATOM     26  C   UNL     1       1.097   8.644  21.663  0.00  0.00    +0.000 A 
BRANCH  24  27
ATOM     27  C   UNL     1       0.390  12.228  20.531  0.00  0.00    +0.000 C 
ATOM     28  N   UNL     1       0.307  12.899  21.632  0.00  0.00    +0.000 NA
BRANCH  28  29
ATOM     29  C   UNL     1      -0.170  14.298  21.545  0.00  0.00    +0.000 C 
ATOM     30  C   UNL     1      -1.548  14.294  20.856  0.00  0.00    +0.000 C 
ATOM     31  C   UNL     1      -2.626  13.621  21.708  0.00  0.00    +0.000 C 
ATOM     32  C   UNL     1      -2.736  14.257  23.090  0.00  0.00    +0.000 C 
ATOM     33  C   UNL     1      -1.385  14.316  23.801  0.00  0.00    +0.000 C 
ATOM     34  C   UNL     1      -0.302  14.951  22.929  0.00  0.00    +0.000 C 
ENDBRANCH  28  29
ENDBRANCH  24  27
ENDBRANCH  20  21
ENDBRANCH   2  19
TORSDOF 5
ENDMDL
MODEL 7
REMARK VINA RESULT:      -8.7      7.468     11.670
REMARK  Name = 
REMARK  5 active torsions:
REMARK  status: ('A' for Active; 'I' for Inactive)
REMARK    1  A    between atoms: C_2  and  C_3
REMARK    2  A    between atoms: C_2  and  C_19
REMARK    3  A    between atoms: C_4  and  C_5
REMARK    4  A    between atoms: C_8  and  C_9
REMARK    5  A    between atoms: N_10  and  C_11
REMARK                            x       y       z     vdW  Elec       q    Type
REMARK                         _______ _______ _______ _____ _____    ______ ____
ROOT
ATOM      1  O   UNL     1       2.353   4.745  21.340  0.00  0.00    +0.000 OA
ATOM      2  C   UNL     1       1.875   5.613  20.612  0.00  0.00    +0.000 C 
ENDROOT
BRANCH   2   3
ATOM      3  C   UNL     1       2.195   5.593  19.113  0.00  0.00    +0.000 A 
ATOM      4  C   UNL     1       1.362   4.726  18.376  0.00  0.00    +0.000 A 
ATOM      5  C   UNL     1       1.953   3.707  17.620  0.00  0.00    +0.000 A 
ATOM      6  C   UNL     1       3.321   3.470  17.793  0.00  0.00    +0.000 A 
ATOM      7  C   UNL     1       4.055   4.373  18.577  0.00  0.00    +0.000 A 
ATOM      8  C   UNL     1       3.516   5.632  18.706  0.00  0.00    +0.000 A 
ATOM      9  C   UNL     1       3.908   6.394  17.394  0.00  0.00    +0.000 C 
ATOM     10  O   UNL     1       3.245   7.328  16.973  0.00  0.00    +0.000 OA
ATOM     11  C   UNL     1       5.143   5.877  16.630  0.00  0.00    +0.000 A 
ATOM     12  C   UNL     1       5.414   6.145  15.287  0.00  0.00    +0.000 A 
ATOM     13  C   UNL     1       6.531   5.538  14.668  0.00  0.00    +0.000 A 
ATOM     14  C   UNL     1       7.403   4.708  15.386  0.00  0.00    +0.000 A 
ATOM     15  C   UNL     1       7.147   4.434  16.718  0.00  0.00    +0.000 A 
ATOM     16  C   UNL     1       6.004   4.985  17.288  0.00  0.00    +0.000 A 
ATOM     17  C   UNL     1       5.511   4.429  18.536  0.00  0.00    +0.000 C 
ATOM     18  O   UNL     1       6.198   4.189  19.511  0.00  0.00    +0.000 OA
ENDBRANCH   2   3
BRANCH   2  19
ATOM     19  C   UNL     1       1.067   6.757  21.203  0.00  0.00    +0.000 C 
ATOM     20  C   UNL     1       1.318   8.048  20.893  0.00  0.00    +0.000 C 
BRANCH  20  21
ATOM     21  C   UNL     1       0.620   9.263  21.420  0.00  0.00    +0.000 A 
ATOM     22  C   UNL     1      -0.205   9.139  22.558  0.00  0.00    +0.000 A 
ATOM     23  C   UNL     1      -0.870  10.263  23.119  0.00  0.00    +0.000 A 
ATOM     24  C   UNL     1      -0.713  11.532  22.567  0.00  0.00    +0.000 A 
ATOM     25  C   UNL     1       0.117  11.668  21.445  0.00  0.00    +0.000 A 
ATOM     26  C   UNL     1       0.781  10.553  20.886  0.00  0.00    +0.000 A 
BRANCH  24  27
ATOM     27  C   UNL     1      -1.438  12.716  23.128  0.00  0.00    +0.000 C 
ATOM     28  N   UNL     1      -0.998  13.923  23.003  0.00  0.00    +0.000 NA
BRANCH  28  29
ATOM     29  C   UNL     1      -1.739  14.997  23.704  0.00  0.00    +0.000 C 
ATOM     30  C   UNL     1      -1.725  16.252  22.811  0.00  0.00    +0.000 C 
ATOM     31  C   UNL     1      -2.534  16.065  21.527  0.00  0.00    +0.000 C 
ATOM     32  C   UNL     1      -3.972  15.648  21.817  0.00  0.00    +0.000 C 
ATOM     33  C   UNL     1      -4.039  14.425  22.731  0.00  0.00    +0.000 C 
ATOM     34  C   UNL     1      -3.194  14.601  23.993  0.00  0.00    +0.000 C 
ENDBRANCH  28  29
ENDBRANCH  24  27
ENDBRANCH  20  21
ENDBRANCH   2  19
TORSDOF 5
ENDMDL
MODEL 8
REMARK VINA RESULT:      -8.7      3.467     10.994
REMARK  Name = 
REMARK  5 active torsions:
REMARK  status: ('A' for Active; 'I' for Inactive)
REMARK    1  A    between atoms: C_2  and  C_3
REMARK    2  A    between atoms: C_2  and  C_19
REMARK    3  A    between atoms: C_4  and  C_5
REMARK    4  A    between atoms: C_8  and  C_9
REMARK    5  A    between atoms: N_10  and  C_11
REMARK                            x       y       z     vdW  Elec       q    Type
REMARK                         _______ _______ _______ _____ _____    ______ ____
ROOT
ATOM      1  O   UNL     1       7.644   6.395  15.721  0.00  0.00    +0.000 OA
ATOM      2  C   UNL     1       7.273   6.391  16.894  0.00  0.00    +0.000 C 
ENDROOT
BRANCH   2   3
ATOM      3  C   UNL     1       6.480   5.192  17.423  0.00  0.00    +0.000 A 
ATOM      4  C   UNL     1       6.298   4.173  16.465  0.00  0.00    +0.000 A 
ATOM      5  C   UNL     1       4.995   3.775  16.145  0.00  0.00    +0.000 A 
ATOM      6  C   UNL     1       3.934   4.543  16.639  0.00  0.00    +0.000 A 
ATOM      7  C   UNL     1       4.226   5.558  17.563  0.00  0.00    +0.000 A 
ATOM      8  C   UNL     1       5.402   5.415  18.261  0.00  0.00    +0.000 A 
ATOM      9  C   UNL     1       5.086   4.403  19.415  0.00  0.00    +0.000 C 
ATOM     10  O   UNL     1       5.958   3.717  19.923  0.00  0.00    +0.000 OA
ATOM     11  C   UNL     1       3.611   4.276  19.847  0.00  0.00    +0.000 A 
ATOM     12  C   UNL     1       3.079   3.190  20.545  0.00  0.00    +0.000 A 
ATOM     13  C   UNL     1       1.691   3.143  20.805  0.00  0.00    +0.000 A 
ATOM     14  C   UNL     1       0.838   4.187  20.418  0.00  0.00    +0.000 A 
ATOM     15  C   UNL     1       1.352   5.269  19.726  0.00  0.00    +0.000 A 
ATOM     16  C   UNL     1       2.708   5.263  19.419  0.00  0.00    +0.000 A 
ATOM     17  C   UNL     1       3.196   6.169  18.393  0.00  0.00    +0.000 C 
ATOM     18  O   UNL     1       2.918   7.351  18.321  0.00  0.00    +0.000 OA
ENDBRANCH   2   3
BRANCH   2  19
ATOM     19  C   UNL     1       7.503   7.605  17.780  0.00  0.00    +0.000 C 
ATOM     20  C   UNL     1       8.290   8.633  17.397  0.00  0.00    +0.000 C 
BRANCH  20  21
ATOM     21  C   UNL     1       8.619   9.868  18.178  0.00  0.00    +0.000 A 
ATOM     22  C   UNL     1       9.159   9.734  19.474  0.00  0.00    +0.000 A 
ATOM     23  C   UNL     1       9.517  10.870  20.250  0.00  0.00    +0.000 A 
ATOM     24  C   UNL     1       9.357  12.158  19.744  0.00  0.00    +0.000 A 
ATOM     25  C   UNL     1       8.835  12.300  18.450  0.00  0.00    +0.000 A 
ATOM     26  C   UNL     1       8.481  11.173  17.675  0.00  0.00    +0.000 A 
BRANCH  24  27
ATOM     27  C   UNL     1       9.696  13.361  20.567  0.00  0.00    +0.000 C 
ATOM     28  N   UNL     1       8.832  14.283  20.839  0.00  0.00    +0.000 NA
BRANCH  28  29
ATOM     29  C   UNL     1       9.316  15.483  21.559  0.00  0.00    +0.000 C 
ATOM     30  C   UNL     1       8.179  16.521  21.579  0.00  0.00    +0.000 C 
ATOM     31  C   UNL     1       6.992  16.072  22.431  0.00  0.00    +0.000 C 
ATOM     32  C   UNL     1       7.412  15.732  23.857  0.00  0.00    +0.000 C 
ATOM     33  C   UNL     1       8.563  14.729  23.889  0.00  0.00    +0.000 C 
ATOM     34  C   UNL     1       9.731  15.162  23.002  0.00  0.00    +0.000 C 
ENDBRANCH  28  29
ENDBRANCH  24  27
ENDBRANCH  20  21
ENDBRANCH   2  19
TORSDOF 5
ENDMDL
MODEL 9
REMARK VINA RESULT:      -8.7      5.860     11.507
REMARK  Name = 
REMARK  5 active torsions:
REMARK  status: ('A' for Active; 'I' for Inactive)
REMARK    1  A    between atoms: C_2  and  C_3
REMARK    2  A    between atoms: C_2  and  C_19
REMARK    3  A    between atoms: C_4  and  C_5
REMARK    4  A    between atoms: C_8  and  C_9
REMARK    5  A    between atoms: N_10  and  C_11
REMARK                            x       y       z     vdW  Elec       q    Type
REMARK                         _______ _______ _______ _____ _____    ______ ____
ROOT
ATOM      1  O   UNL     1       1.491   3.217  21.651  0.00  0.00    +0.000 OA
ATOM      2  C   UNL     1       1.518   3.901  20.630  0.00  0.00    +0.000 C 
ENDROOT
BRANCH   2   3
ATOM      3  C   UNL     1       2.177   3.337  19.367  0.00  0.00    +0.000 A 
ATOM      4  C   UNL     1       2.403   1.946  19.428  0.00  0.00    +0.000 A 
ATOM      5  C   UNL     1       3.707   1.468  19.260  0.00  0.00    +0.000 A 
ATOM      6  C   UNL     1       4.750   2.400  19.243  0.00  0.00    +0.000 A 
ATOM      7  C   UNL     1       4.420   3.764  19.221  0.00  0.00    +0.000 A 
ATOM      8  C   UNL     1       3.169   4.070  18.740  0.00  0.00    +0.000 A 
ATOM      9  C   UNL     1       3.297   4.037  17.179  0.00  0.00    +0.000 C 
ATOM     10  O   UNL     1       2.336   3.812  16.461  0.00  0.00    +0.000 OA
ATOM     11  C   UNL     1       4.705   4.252  16.591  0.00  0.00    +0.000 A 
ATOM     12  C   UNL     1       5.094   3.875  15.303  0.00  0.00    +0.000 A 
ATOM     13  C   UNL     1       6.441   4.039  14.907  0.00  0.00    +0.000 A 
ATOM     14  C   UNL     1       7.390   4.616  15.762  0.00  0.00    +0.000 A 
ATOM     15  C   UNL     1       7.019   4.994  17.041  0.00  0.00    +0.000 A 
ATOM     16  C   UNL     1       5.706   4.759  17.435  0.00  0.00    +0.000 A 
ATOM     17  C   UNL     1       5.387   4.790  18.852  0.00  0.00    +0.000 C 
ATOM     18  O   UNL     1       5.740   5.659  19.626  0.00  0.00    +0.000 OA
ENDBRANCH   2   3
BRANCH   2  19
ATOM     19  C   UNL     1       1.001   5.332  20.647  0.00  0.00    +0.000 C 
ATOM     20  C   UNL     1       1.826   6.393  20.517  0.00  0.00    +0.000 C 
BRANCH  20  21
ATOM     21  C   UNL     1       1.454   7.843  20.542  0.00  0.00    +0.000 A 
ATOM     22  C   UNL     1       1.130   8.446  21.775  0.00  0.00    +0.000 A 
ATOM     23  C   UNL     1       0.797   9.825  21.863  0.00  0.00    +0.000 A 
ATOM     24  C   UNL     1       0.796  10.631  20.728  0.00  0.00    +0.000 A 
ATOM     25  C   UNL     1       1.132  10.045  19.499  0.00  0.00    +0.000 A 
ATOM     26  C   UNL     1       1.465   8.674  19.409  0.00  0.00    +0.000 A 
BRANCH  24  27
ATOM     27  C   UNL     1       0.411  12.076  20.804  0.00  0.00    +0.000 C 
ATOM     28  N   UNL     1       1.180  12.974  21.325  0.00  0.00    +0.000 NA
BRANCH  28  29
ATOM     29  C   UNL     1       0.639  14.346  21.452  0.00  0.00    +0.000 C 
ATOM     30  C   UNL     1       1.778  15.269  21.925  0.00  0.00    +0.000 C 
ATOM     31  C   UNL     1       2.873  15.433  20.870  0.00  0.00    +0.000 C 
ATOM     32  C   UNL     1       2.313  15.934  19.543  0.00  0.00    +0.000 C 
ATOM     33  C   UNL     1       1.154  15.070  19.049  0.00  0.00    +0.000 C 
ATOM     34  C   UNL     1       0.083  14.874  20.122  0.00  0.00    +0.000 C 
ENDBRANCH  28  29
ENDBRANCH  24  27
ENDBRANCH  20  21
ENDBRANCH   2  19
TORSDOF 5
ENDMDL
