MODEL 1
REMARK VINA RESULT:      -7.0      0.000      0.000
REMARK  Name = 
REMARK  13 active torsions:
REMARK  status: ('A' for Active; 'I' for Inactive)
REMARK    1  A    between atoms: C_1  and  C_2
REMARK    2  A    between atoms: C_2  and  C_3
REMARK    3  A    between atoms: C_3  and  C_4
REMARK    4  A    between atoms: C_4  and  O_5
REMARK    5  A    between atoms: O_5  and  C_6
REMARK    6  A    between atoms: C_9  and  S_10
REMARK    7  A    between atoms: S_10  and  N_13
REMARK    8  A    between atoms: N_13  and  C_14
REMARK    9  A    between atoms: N_13  and  C_15
REMARK   10  A    between atoms: C_16  and  C_17
REMARK   11  A    between atoms: N_19  and  O_20
REMARK   12  A    between atoms: C_25  and  C_26
REMARK   13  A    between atoms: N_28  and  C_29
REMARK                            x       y       z     vdW  Elec       q    Type
REMARK                         _______ _______ _______ _____ _____    ______ ____
ROOT
ATOM      1  C   UNL     1      -1.851  12.319  19.552  0.00  0.00    +0.000 A 
ATOM      2  C   UNL     1      -2.269  13.340  20.433  0.00  0.00    +0.000 A 
ATOM      3  C   UNL     1      -3.632  13.579  20.581  0.00  0.00    +0.000 A 
ATOM      4  N   UNL     1      -4.627  12.935  19.929  0.00  0.00    +0.000 NA
ATOM      5  C   UNL     1      -4.178  12.020  19.049  0.00  0.00    +0.000 A 
ATOM      6  C   UNL     1      -2.856  11.646  18.809  0.00  0.00    +0.000 A 
ATOM      7  C   UNL     1      -2.976  10.639  17.797  0.00  0.00    +0.000 A 
ATOM      8  C   UNL     1      -1.937   9.833  17.113  0.00  0.00    +0.000 C 
ATOM      9  N   UNL     1      -4.252  10.434  17.431  0.00  0.00    +0.000 NA
ATOM     10  N   UNL     1      -4.952  11.301  18.181  0.00  0.00    +0.000 N 
ATOM     11  C   UNL     1      -6.380  11.413  18.011  0.00  0.00    +0.000 C 
ENDROOT
BRANCH   2  12
ATOM     12  C   UNL     1      -1.363  14.253  21.172  0.00  0.00    +0.000 C 
ATOM     13  O   UNL     1      -1.079  15.358  20.707  0.00  0.00    +0.000 OA
ATOM     14  N   UNL     1      -0.843  13.823  22.366  0.00  0.00    +0.000 N 
ATOM     15  H   UNL     1      -0.905  12.864  22.679  0.00  0.00    +0.000 HD
BRANCH  14  16
ATOM     16  O   UNL     1       0.216  14.589  22.900  0.00  0.00    +0.000 OA
ATOM     17  H   UNL     1       0.731  14.832  22.099  0.00  0.00    +0.000 HD
ENDBRANCH  14  16
ENDBRANCH   2  12
BRANCH   1  18
ATOM     18  N   UNL     1      -0.434  12.060  19.374  0.00  0.00    +0.000 N 
ATOM     19  C   UNL     1       0.326  13.094  18.628  0.00  0.00    +0.000 C 
BRANCH  18  20
ATOM     20  S   UNL     1       0.301  11.258  20.718  0.00  0.00    +0.000 S 
ATOM     21  O   UNL     1      -0.754  10.785  21.593  0.00  0.00    +0.000 OA
ATOM     22  O   UNL     1       1.383  12.079  21.212  0.00  0.00    +0.000 OA
BRANCH  20  26
ATOM     23  C   UNL     1       2.223   7.507  18.905  0.00  0.00    +0.000 A 
ATOM     24  C   UNL     1       1.810   7.547  20.241  0.00  0.00    +0.000 A 
ATOM     25  C   UNL     1       1.215   8.683  20.776  0.00  0.00    +0.000 A 
ATOM     26  C   UNL     1       1.047   9.816  19.986  0.00  0.00    +0.000 A 
ATOM     27  C   UNL     1       1.396   9.781  18.631  0.00  0.00    +0.000 A 
ATOM     28  C   UNL     1       1.993   8.626  18.097  0.00  0.00    +0.000 A 
BRANCH  23  29
ATOM     29  O   UNL     1       2.840   6.426  18.318  0.00  0.00    +0.000 OA
BRANCH  29  30
ATOM     30  C   UNL     1       3.177   5.371  19.227  0.00  0.00    +0.000 C 
BRANCH  30  31
ATOM     31  C   UNL     1       2.435   4.084  18.893  0.00  0.00    +0.000 C 
BRANCH  31  33
ATOM     32  C   UNL     1       1.403   3.222  21.028  0.00  0.00    +0.000 C 
ATOM     33  C   UNL     1       1.159   3.977  19.733  0.00  0.00    +0.000 C 
ENDBRANCH  31  33
ENDBRANCH  30  31
ENDBRANCH  29  30
ENDBRANCH  23  29
ENDBRANCH  20  26
ENDBRANCH  18  20
ENDBRANCH   1  18
TORSDOF 9
ENDMDL
MODEL 2
REMARK VINA RESULT:      -6.7      1.109      1.273
REMARK  Name = 
REMARK  13 active torsions:
REMARK  status: ('A' for Active; 'I' for Inactive)
REMARK    1  A    between atoms: C_1  and  C_2
REMARK    2  A    between atoms: C_2  and  C_3
REMARK    3  A    between atoms: C_3  and  C_4
REMARK    4  A    between atoms: C_4  and  O_5
REMARK    5  A    between atoms: O_5  and  C_6
REMARK    6  A    between atoms: C_9  and  S_10
REMARK    7  A    between atoms: S_10  and  N_13
REMARK    8  A    between atoms: N_13  and  C_14
REMARK    9  A    between atoms: N_13  and  C_15
REMARK   10  A    between atoms: C_16  and  C_17
REMARK   11  A    between atoms: N_19  and  O_20
REMARK   12  A    between atoms: C_25  and  C_26
REMARK   13  A    between atoms: N_28  and  C_29
REMARK                            x       y       z     vdW  Elec       q    Type
REMARK                         _______ _______ _______ _____ _____    ______ ____
ROOT
ATOM      1  C   UNL     1      -1.300  11.761  19.988  0.00  0.00    +0.000 A 
ATOM      2  C   UNL     1      -1.646  12.636  21.040  0.00  0.00    +0.000 A 
ATOM      3  C   UNL     1      -2.957  13.097  21.122  0.00  0.00    +0.000 A 
ATOM      4  N   UNL     1      -3.957  12.808  20.259  0.00  0.00    +0.000 NA
ATOM      5  C   UNL     1      -3.562  12.028  19.234  0.00  0.00    +0.000 A 
ATOM      6  C   UNL     1      -2.303  11.464  19.028  0.00  0.00    +0.000 A 
ATOM      7  C   UNL     1      -2.464  10.733  17.806  0.00  0.00    +0.000 A 
ATOM      8  C   UNL     1      -1.499   9.902  17.047  0.00  0.00    +0.000 C 
ATOM      9  N   UNL     1      -3.700  10.859  17.296  0.00  0.00    +0.000 NA
ATOM     10  N   UNL     1      -4.331  11.669  18.163  0.00  0.00    +0.000 N 
ATOM     11  C   UNL     1      -5.687  12.088  17.902  0.00  0.00    +0.000 C 
ENDROOT
BRANCH   2  12
ATOM     12  C   UNL     1      -0.699  13.182  22.041  0.00  0.00    +0.000 C 
ATOM     13  O   UNL     1      -0.558  12.627  23.133  0.00  0.00    +0.000 OA
ATOM     14  N   UNL     1      -0.006  14.323  21.724  0.00  0.00    +0.000 N 
ATOM     15  H   UNL     1      -0.233  14.899  20.925  0.00  0.00    +0.000 HD
BRANCH  14  16
ATOM     16  O   UNL     1       0.670  14.962  22.786  0.00  0.00    +0.000 OA
ATOM     17  H   UNL     1       1.499  14.440  22.859  0.00  0.00    +0.000 HD
ENDBRANCH  14  16
ENDBRANCH   2  12
BRANCH   1  18
ATOM     18  N   UNL     1       0.064  11.275  19.876  0.00  0.00    +0.000 N 
ATOM     19  C   UNL     1       1.086  12.290  19.515  0.00  0.00    +0.000 C 
BRANCH  18  20
ATOM     20  S   UNL     1       0.455  10.030  21.011  0.00  0.00    +0.000 S 
ATOM     21  O   UNL     1      -0.785   9.431  21.468  0.00  0.00    +0.000 OA
ATOM     22  O   UNL     1       1.435  10.542  21.941  0.00  0.00    +0.000 OA
BRANCH  20  26
ATOM     23  C   UNL     1       2.598   6.830  18.518  0.00  0.00    +0.000 A 
ATOM     24  C   UNL     1       2.285   6.622  19.865  0.00  0.00    +0.000 A 
ATOM     25  C   UNL     1       1.622   7.592  20.607  0.00  0.00    +0.000 A 
ATOM     26  C   UNL     1       1.283   8.806  20.017  0.00  0.00    +0.000 A 
ATOM     27  C   UNL     1       1.530   9.014  18.656  0.00  0.00    +0.000 A 
ATOM     28  C   UNL     1       2.198   8.026  17.911  0.00  0.00    +0.000 A 
BRANCH  23  29
ATOM     29  O   UNL     1       3.273   5.925  17.732  0.00  0.00    +0.000 OA
BRANCH  29  30
ATOM     30  C   UNL     1       3.280   4.586  18.244  0.00  0.00    +0.000 C 
BRANCH  30  31
ATOM     31  C   UNL     1       2.286   3.698  17.506  0.00  0.00    +0.000 C 
BRANCH  31  33
ATOM     32  C   UNL     1       0.944   3.182  19.579  0.00  0.00    +0.000 C 
ATOM     33  C   UNL     1       1.762   2.603  18.439  0.00  0.00    +0.000 C 
ENDBRANCH  31  33
ENDBRANCH  30  31
ENDBRANCH  29  30
ENDBRANCH  23  29
ENDBRANCH  20  26
ENDBRANCH  18  20
ENDBRANCH   1  18
TORSDOF 9
ENDMDL
MODEL 3
REMARK VINA RESULT:      -6.7      1.415      2.241
REMARK  Name = 
REMARK  13 active torsions:
REMARK  status: ('A' for Active; 'I' for Inactive)
REMARK    1  A    between atoms: C_1  and  C_2
REMARK    2  A    between atoms: C_2  and  C_3
REMARK    3  A    between atoms: C_3  and  C_4
REMARK    4  A    between atoms: C_4  and  O_5
REMARK    5  A    between atoms: O_5  and  C_6
REMARK    6  A    between atoms: C_9  and  S_10
REMARK    7  A    between atoms: S_10  and  N_13
REMARK    8  A    between atoms: N_13  and  C_14
REMARK    9  A    between atoms: N_13  and  C_15
REMARK   10  A    between atoms: C_16  and  C_17
REMARK   11  A    between atoms: N_19  and  O_20
REMARK   12  A    between atoms: C_25  and  C_26
REMARK   13  A    between atoms: N_28  and  C_29
REMARK                            x       y       z     vdW  Elec       q    Type
REMARK                         _______ _______ _______ _____ _____    ______ ____
ROOT
ATOM      1  C   UNL     1      -1.869  12.111  19.545  0.00  0.00    +0.000 A 
ATOM      2  C   UNL     1      -2.278  13.031  20.535  0.00  0.00    +0.000 A 
ATOM      3  C   UNL     1      -3.637  13.283  20.692  0.00  0.00    +0.000 A 
ATOM      4  N   UNL     1      -4.636  12.745  19.955  0.00  0.00    +0.000 NA
ATOM      5  C   UNL     1      -4.193  11.930  18.979  0.00  0.00    +0.000 A 
ATOM      6  C   UNL     1      -2.876  11.555  18.714  0.00  0.00    +0.000 A 
ATOM      7  C   UNL     1      -3.002  10.677  17.589  0.00  0.00    +0.000 A 
ATOM      8  C   UNL     1      -1.970   9.933  16.828  0.00  0.00    +0.000 C 
ATOM      9  N   UNL     1      -4.276  10.547  17.184  0.00  0.00    +0.000 NA
ATOM     10  N   UNL     1      -4.968  11.337  18.022  0.00  0.00    +0.000 N 
ATOM     11  C   UNL     1      -6.391  11.503  17.847  0.00  0.00    +0.000 C 
ENDROOT
BRANCH   2  12
ATOM     12  C   UNL     1      -1.364  13.828  21.388  0.00  0.00    +0.000 C 
ATOM     13  O   UNL     1      -0.918  14.905  20.987  0.00  0.00    +0.000 OA
ATOM     14  N   UNL     1      -1.019  13.324  22.617  0.00  0.00    +0.000 N 
ATOM     15  H   UNL     1      -1.214  12.371  22.894  0.00  0.00    +0.000 HD
BRANCH  14  16
ATOM     16  O   UNL     1       0.053  13.963  23.278  0.00  0.00    +0.000 OA
ATOM     17  H   UNL     1      -0.164  13.820  24.226  0.00  0.00    +0.000 HD
ENDBRANCH  14  16
ENDBRANCH   2  12
BRANCH   1  18
ATOM     18  N   UNL     1      -0.454  11.841  19.356  0.00  0.00    +0.000 N 
ATOM     19  C   UNL     1       0.324  12.904  18.672  0.00  0.00    +0.000 C 
BRANCH  18  20
ATOM     20  S   UNL     1       0.264  10.954  20.655  0.00  0.00    +0.000 S 
ATOM     21  O   UNL     1      -0.803  10.362  21.441  0.00  0.00    +0.000 OA
ATOM     22  O   UNL     1       1.288  11.771  21.264  0.00  0.00    +0.000 OA
BRANCH  20  26
ATOM     23  C   UNL     1       2.414   7.545  18.462  0.00  0.00    +0.000 A 
ATOM     24  C   UNL     1       2.103   8.748  17.821  0.00  0.00    +0.000 A 
ATOM     25  C   UNL     1       1.465   9.780  18.499  0.00  0.00    +0.000 A 
ATOM     26  C   UNL     1       1.100   9.615  19.832  0.00  0.00    +0.000 A 
ATOM     27  C   UNL     1       1.455   8.444  20.513  0.00  0.00    +0.000 A 
ATOM     28  C   UNL     1       2.104   7.407  19.820  0.00  0.00    +0.000 A 
BRANCH  23  29
ATOM     29  O   UNL     1       3.021   6.474  17.848  0.00  0.00    +0.000 OA
BRANCH  29  30
ATOM     30  C   UNL     1       4.218   6.804  17.132  0.00  0.00    +0.000 C 
BRANCH  30  31
ATOM     31  C   UNL     1       5.442   6.141  17.750  0.00  0.00    +0.000 C 
BRANCH  31  33
ATOM     32  C   UNL     1       7.787   6.890  18.307  0.00  0.00    +0.000 C 
ATOM     33  C   UNL     1       6.722   6.803  17.229  0.00  0.00    +0.000 C 
ENDBRANCH  31  33
ENDBRANCH  30  31
ENDBRANCH  29  30
ENDBRANCH  23  29
ENDBRANCH  20  26
ENDBRANCH  18  20
ENDBRANCH   1  18
TORSDOF 9
ENDMDL
MODEL 4
REMARK VINA RESULT:      -6.5      1.317      1.876
REMARK  Name = 
REMARK  13 active torsions:
REMARK  status: ('A' for Active; 'I' for Inactive)
REMARK    1  A    between atoms: C_1  and  C_2
REMARK    2  A    between atoms: C_2  and  C_3
REMARK    3  A    between atoms: C_3  and  C_4
REMARK    4  A    between atoms: C_4  and  O_5
REMARK    5  A    between atoms: O_5  and  C_6
REMARK    6  A    between atoms: C_9  and  S_10
REMARK    7  A    between atoms: S_10  and  N_13
REMARK    8  A    between atoms: N_13  and  C_14
REMARK    9  A    between atoms: N_13  and  C_15
REMARK   10  A    between atoms: C_16  and  C_17
REMARK   11  A    between atoms: N_19  and  O_20
REMARK   12  A    between atoms: C_25  and  C_26
REMARK   13  A    between atoms: N_28  and  C_29
REMARK                            x       y       z     vdW  Elec       q    Type
REMARK                         _______ _______ _______ _____ _____    ______ ____
ROOT
ATOM      1  C   UNL     1      -1.927  12.066  19.519  0.00  0.00    +0.000 A 
ATOM      2  C   UNL     1      -2.326  12.980  20.518  0.00  0.00    +0.000 A 
ATOM      3  C   UNL     1      -3.681  13.260  20.665  0.00  0.00    +0.000 A 
ATOM      4  N   UNL     1      -4.683  12.755  19.911  0.00  0.00    +0.000 NA
ATOM      5  C   UNL     1      -4.249  11.944  18.928  0.00  0.00    +0.000 A 
ATOM      6  C   UNL     1      -2.938  11.544  18.670  0.00  0.00    +0.000 A 
ATOM      7  C   UNL     1      -3.071  10.685  17.531  0.00  0.00    +0.000 A 
ATOM      8  C   UNL     1      -2.048   9.929  16.770  0.00  0.00    +0.000 C 
ATOM      9  N   UNL     1      -4.343  10.589  17.112  0.00  0.00    +0.000 NA
ATOM     10  N   UNL     1      -5.027  11.381  17.955  0.00  0.00    +0.000 N 
ATOM     11  C   UNL     1      -6.444  11.581  17.768  0.00  0.00    +0.000 C 
ENDROOT
BRANCH   2  12
ATOM     12  C   UNL     1      -1.403  13.745  21.392  0.00  0.00    +0.000 C 
ATOM     13  O   UNL     1      -0.886  14.790  20.989  0.00  0.00    +0.000 OA
ATOM     14  N   UNL     1      -1.131  13.248  22.641  0.00  0.00    +0.000 N 
ATOM     15  H   UNL     1      -1.386  12.313  22.928  0.00  0.00    +0.000 HD
BRANCH  14  16
ATOM     16  O   UNL     1      -0.053  13.843  23.332  0.00  0.00    +0.000 OA
ATOM     17  H   UNL     1      -0.500  14.518  23.888  0.00  0.00    +0.000 HD
ENDBRANCH  14  16
ENDBRANCH   2  12
BRANCH   1  18
ATOM     18  N   UNL     1      -0.517  11.767  19.341  0.00  0.00    +0.000 N 
ATOM     19  C   UNL     1       0.287  12.813  18.658  0.00  0.00    +0.000 C 
BRANCH  18  20
ATOM     20  S   UNL     1       0.176  10.871  20.647  0.00  0.00    +0.000 S 
ATOM     21  O   UNL     1      -0.904  10.240  21.382  0.00  0.00    +0.000 OA
ATOM     22  O   UNL     1       1.158  11.699  21.308  0.00  0.00    +0.000 OA
BRANCH  20  26
ATOM     23  C   UNL     1       2.491   7.473  18.611  0.00  0.00    +0.000 A 
ATOM     24  C   UNL     1       2.092   7.390  19.949  0.00  0.00    +0.000 A 
ATOM     25  C   UNL     1       1.378   8.418  20.551  0.00  0.00    +0.000 A 
ATOM     26  C   UNL     1       1.072   9.568  19.829  0.00  0.00    +0.000 A 
ATOM     27  C   UNL     1       1.407   9.649  18.472  0.00  0.00    +0.000 A 
ATOM     28  C   UNL     1       2.126   8.602  17.870  0.00  0.00    +0.000 A 
BRANCH  23  29
ATOM     29  O   UNL     1       3.220   6.505  17.959  0.00  0.00    +0.000 OA
BRANCH  29  30
ATOM     30  C   UNL     1       4.128   7.013  16.974  0.00  0.00    +0.000 C 
BRANCH  30  31
ATOM     31  C   UNL     1       5.570   6.650  17.300  0.00  0.00    +0.000 C 
BRANCH  31  33
ATOM     32  C   UNL     1       7.148   4.709  17.632  0.00  0.00    +0.000 C 
ATOM     33  C   UNL     1       5.796   5.148  17.100  0.00  0.00    +0.000 C 
ENDBRANCH  31  33
ENDBRANCH  30  31
ENDBRANCH  29  30
ENDBRANCH  23  29
ENDBRANCH  20  26
ENDBRANCH  18  20
ENDBRANCH   1  18
TORSDOF 9
ENDMDL
MODEL 5
REMARK VINA RESULT:      -6.4      0.917      1.376
REMARK  Name = 
REMARK  13 active torsions:
REMARK  status: ('A' for Active; 'I' for Inactive)
REMARK    1  A    between atoms: C_1  and  C_2
REMARK    2  A    between atoms: C_2  and  C_3
REMARK    3  A    between atoms: C_3  and  C_4
REMARK    4  A    between atoms: C_4  and  O_5
REMARK    5  A    between atoms: O_5  and  C_6
REMARK    6  A    between atoms: C_9  and  S_10
REMARK    7  A    between atoms: S_10  and  N_13
REMARK    8  A    between atoms: N_13  and  C_14
REMARK    9  A    between atoms: N_13  and  C_15
REMARK   10  A    between atoms: C_16  and  C_17
REMARK   11  A    between atoms: N_19  and  O_20
REMARK   12  A    between atoms: C_25  and  C_26
REMARK   13  A    between atoms: N_28  and  C_29
REMARK                            x       y       z     vdW  Elec       q    Type
REMARK                         _______ _______ _______ _____ _____    ______ ____
ROOT
ATOM      1  C   UNL     1      -1.841  12.239  19.655  0.00  0.00    +0.000 A 
ATOM      2  C   UNL     1      -2.262  13.210  20.589  0.00  0.00    +0.000 A 
ATOM      3  C   UNL     1      -3.625  13.457  20.728  0.00  0.00    +0.000 A 
ATOM      4  N   UNL     1      -4.616  12.866  20.022  0.00  0.00    +0.000 NA
ATOM      5  C   UNL     1      -4.162  12.000  19.096  0.00  0.00    +0.000 A 
ATOM      6  C   UNL     1      -2.840  11.625  18.855  0.00  0.00    +0.000 A 
ATOM      7  C   UNL     1      -2.953  10.682  17.783  0.00  0.00    +0.000 A 
ATOM      8  C   UNL     1      -1.912   9.906  17.069  0.00  0.00    +0.000 C 
ATOM      9  N   UNL     1      -4.225  10.515  17.383  0.00  0.00    +0.000 NA
ATOM     10  N   UNL     1      -4.928  11.344  18.173  0.00  0.00    +0.000 N 
ATOM     11  C   UNL     1      -6.352  11.485  17.986  0.00  0.00    +0.000 C 
ENDROOT
BRANCH   2  12
ATOM     12  C   UNL     1      -1.359  14.065  21.396  0.00  0.00    +0.000 C 
ATOM     13  O   UNL     1      -1.026  13.721  22.532  0.00  0.00    +0.000 OA
ATOM     14  N   UNL     1      -0.926  15.248  20.851  0.00  0.00    +0.000 N 
ATOM     15  H   UNL     1      -1.324  15.643  20.010  0.00  0.00    +0.000 HD
BRANCH  14  16
ATOM     16  O   UNL     1      -0.302  16.155  21.735  0.00  0.00    +0.000 OA
ATOM     17  H   UNL     1      -0.587  15.827  22.616  0.00  0.00    +0.000 HD
ENDBRANCH  14  16
ENDBRANCH   2  12
BRANCH   1  18
ATOM     18  N   UNL     1      -0.423  11.973  19.485  0.00  0.00    +0.000 N 
ATOM     19  C   UNL     1       0.368  13.056  18.848  0.00  0.00    +0.000 C 
BRANCH  18  20
ATOM     20  S   UNL     1       0.270  11.047  20.771  0.00  0.00    +0.000 S 
ATOM     21  O   UNL     1      -0.813  10.487  21.557  0.00  0.00    +0.000 OA
ATOM     22  O   UNL     1       1.327  11.820  21.381  0.00  0.00    +0.000 OA
BRANCH  20  26
ATOM     23  C   UNL     1       2.281   7.585  18.530  0.00  0.00    +0.000 A 
ATOM     24  C   UNL     1       2.002   8.803  17.900  0.00  0.00    +0.000 A 
ATOM     25  C   UNL     1       1.407   9.850  18.593  0.00  0.00    +0.000 A 
ATOM     26  C   UNL     1       1.052   9.687  19.929  0.00  0.00    +0.000 A 
ATOM     27  C   UNL     1       1.376   8.501  20.597  0.00  0.00    +0.000 A 
ATOM     28  C   UNL     1       1.982   7.448  19.890  0.00  0.00    +0.000 A 
BRANCH  23  29
ATOM     29  O   UNL     1       2.846   6.500  17.901  0.00  0.00    +0.000 OA
BRANCH  29  30
ATOM     30  C   UNL     1       2.622   5.249  18.564  0.00  0.00    +0.000 C 
BRANCH  30  31
ATOM     31  C   UNL     1       1.711   4.339  17.752  0.00  0.00    +0.000 C 
BRANCH  31  33
ATOM     32  C   UNL     1       2.866   2.249  18.566  0.00  0.00    +0.000 C 
ATOM     33  C   UNL     1       2.459   3.063  17.352  0.00  0.00    +0.000 C 
ENDBRANCH  31  33
ENDBRANCH  30  31
ENDBRANCH  29  30
ENDBRANCH  23  29
ENDBRANCH  20  26
ENDBRANCH  18  20
ENDBRANCH   1  18
TORSDOF 9
ENDMDL
MODEL 6
REMARK VINA RESULT:      -6.4      1.789      3.708
REMARK  Name = 
REMARK  13 active torsions:
REMARK  status: ('A' for Active; 'I' for Inactive)
REMARK    1  A    between atoms: C_1  and  C_2
REMARK    2  A    between atoms: C_2  and  C_3
REMARK    3  A    between atoms: C_3  and  C_4
REMARK    4  A    between atoms: C_4  and  O_5
REMARK    5  A    between atoms: O_5  and  C_6
REMARK    6  A    between atoms: C_9  and  S_10
REMARK    7  A    between atoms: S_10  and  N_13
REMARK    8  A    between atoms: N_13  and  C_14
REMARK    9  A    between atoms: N_13  and  C_15
REMARK   10  A    between atoms: C_16  and  C_17
REMARK   11  A    between atoms: N_19  and  O_20
REMARK   12  A    between atoms: C_25  and  C_26
REMARK   13  A    between atoms: N_28  and  C_29
REMARK                            x       y       z     vdW  Elec       q    Type
REMARK                         _______ _______ _______ _____ _____    ______ ____
ROOT
ATOM      1  C   UNL     1      -2.192  12.551  19.840  0.00  0.00    +0.000 A 
ATOM      2  C   UNL     1      -3.062  11.893  18.945  0.00  0.00    +0.000 A 
ATOM      3  C   UNL     1      -4.435  12.030  19.125  0.00  0.00    +0.000 A 
ATOM      4  N   UNL     1      -5.042  12.727  20.113  0.00  0.00    +0.000 NA
ATOM      5  C   UNL     1      -4.173  13.278  20.982  0.00  0.00    +0.000 A 
ATOM      6  C   UNL     1      -2.780  13.256  20.923  0.00  0.00    +0.000 A 
ATOM      7  C   UNL     1      -2.388  14.002  22.081  0.00  0.00    +0.000 A 
ATOM      8  C   UNL     1      -1.040  14.354  22.590  0.00  0.00    +0.000 C 
ATOM      9  N   UNL     1      -3.443  14.418  22.800  0.00  0.00    +0.000 NA
ATOM     10  N   UNL     1      -4.505  13.943  22.129  0.00  0.00    +0.000 N 
ATOM     11  C   UNL     1      -5.836  14.142  22.649  0.00  0.00    +0.000 C 
ENDROOT
BRANCH   2  12
ATOM     12  C   UNL     1      -2.635  10.984  17.853  0.00  0.00    +0.000 C 
ATOM     13  O   UNL     1      -2.179   9.869  18.114  0.00  0.00    +0.000 OA
ATOM     14  N   UNL     1      -2.746  11.427  16.559  0.00  0.00    +0.000 N 
ATOM     15  H   UNL     1      -2.937  12.391  16.323  0.00  0.00    +0.000 HD
BRANCH  14  16
ATOM     16  O   UNL     1      -2.085  10.660  15.575  0.00  0.00    +0.000 OA
ATOM     17  H   UNL     1      -2.338   9.741  15.813  0.00  0.00    +0.000 HD
ENDBRANCH  14  16
ENDBRANCH   2  12
BRANCH   1  18
ATOM     18  N   UNL     1      -0.755  12.412  19.678  0.00  0.00    +0.000 N 
ATOM     19  C   UNL     1      -0.047  13.598  19.133  0.00  0.00    +0.000 C 
BRANCH  18  20
ATOM     20  S   UNL     1      -0.004  11.455  20.906  0.00  0.00    +0.000 S 
ATOM     21  O   UNL     1      -1.050  10.809  21.676  0.00  0.00    +0.000 OA
ATOM     22  O   UNL     1       1.027  12.242  21.541  0.00  0.00    +0.000 OA
BRANCH  20  26
ATOM     23  C   UNL     1       2.120   8.199  18.469  0.00  0.00    +0.000 A 
ATOM     24  C   UNL     1       1.793   9.438  17.909  0.00  0.00    +0.000 A 
ATOM     25  C   UNL     1       1.163  10.423  18.661  0.00  0.00    +0.000 A 
ATOM     26  C   UNL     1       0.823  10.173  19.987  0.00  0.00    +0.000 A 
ATOM     27  C   UNL     1       1.194   8.965  20.587  0.00  0.00    +0.000 A 
ATOM     28  C   UNL     1       1.835   7.976  19.821  0.00  0.00    +0.000 A 
BRANCH  23  29
ATOM     29  O   UNL     1       2.721   7.172  17.778  0.00  0.00    +0.000 OA
BRANCH  29  30
ATOM     30  C   UNL     1       2.389   5.863  18.258  0.00  0.00    +0.000 C 
BRANCH  30  31
ATOM     31  C   UNL     1       3.192   4.784  17.544  0.00  0.00    +0.000 C 
BRANCH  31  33
ATOM     32  C   UNL     1       2.442   2.703  18.758  0.00  0.00    +0.000 C 
ATOM     33  C   UNL     1       2.379   3.489  17.461  0.00  0.00    +0.000 C 
ENDBRANCH  31  33
ENDBRANCH  30  31
ENDBRANCH  29  30
ENDBRANCH  23  29
ENDBRANCH  20  26
ENDBRANCH  18  20
ENDBRANCH   1  18
TORSDOF 9
ENDMDL
MODEL 7
REMARK VINA RESULT:      -6.3      1.826      3.705
REMARK  Name = 
REMARK  13 active torsions:
REMARK  status: ('A' for Active; 'I' for Inactive)
REMARK    1  A    between atoms: C_1  and  C_2
REMARK    2  A    between atoms: C_2  and  C_3
REMARK    3  A    between atoms: C_3  and  C_4
REMARK    4  A    between atoms: C_4  and  O_5
REMARK    5  A    between atoms: O_5  and  C_6
REMARK    6  A    between atoms: C_9  and  S_10
REMARK    7  A    between atoms: S_10  and  N_13
REMARK    8  A    between atoms: N_13  and  C_14
REMARK    9  A    between atoms: N_13  and  C_15
REMARK   10  A    between atoms: C_16  and  C_17
REMARK   11  A    between atoms: N_19  and  O_20
REMARK   12  A    between atoms: C_25  and  C_26
REMARK   13  A    between atoms: N_28  and  C_29
REMARK                            x       y       z     vdW  Elec       q    Type
REMARK                         _______ _______ _______ _____ _____    ______ ____
ROOT
ATOM      1  C   UNL     1      -2.104  12.522  19.953  0.00  0.00    +0.000 A 
ATOM      2  C   UNL     1      -2.992  11.882  19.061  0.00  0.00    +0.000 A 
ATOM      3  C   UNL     1      -4.361  12.008  19.276  0.00  0.00    +0.000 A 
ATOM      4  N   UNL     1      -4.947  12.677  20.294  0.00  0.00    +0.000 NA
ATOM      5  C   UNL     1      -4.061  13.211  21.157  0.00  0.00    +0.000 A 
ATOM      6  C   UNL     1      -2.670  13.198  21.065  0.00  0.00    +0.000 A 
ATOM      7  C   UNL     1      -2.254  13.916  22.233  0.00  0.00    +0.000 A 
ATOM      8  C   UNL     1      -0.897  14.262  22.720  0.00  0.00    +0.000 C 
ATOM      9  N   UNL     1      -3.295  14.309  22.986  0.00  0.00    +0.000 NA
ATOM     10  N   UNL     1      -4.370  13.845  22.327  0.00  0.00    +0.000 N 
ATOM     11  C   UNL     1      -5.690  14.025  22.883  0.00  0.00    +0.000 C 
ENDROOT
BRANCH   2  12
ATOM     12  C   UNL     1      -2.586  11.002  17.938  0.00  0.00    +0.000 C 
ATOM     13  O   UNL     1      -2.264   9.831  18.149  0.00  0.00    +0.000 OA
ATOM     14  N   UNL     1      -2.563  11.534  16.673  0.00  0.00    +0.000 N 
ATOM     15  H   UNL     1      -2.638  12.526  16.493  0.00  0.00    +0.000 HD
BRANCH  14  16
ATOM     16  O   UNL     1      -1.917  10.765  15.681  0.00  0.00    +0.000 OA
ATOM     17  H   UNL     1      -1.178  10.350  16.178  0.00  0.00    +0.000 HD
ENDBRANCH  14  16
ENDBRANCH   2  12
BRANCH   1  18
ATOM     18  N   UNL     1      -0.671  12.395  19.754  0.00  0.00    +0.000 N 
ATOM     19  C   UNL     1       0.024  13.606  19.250  0.00  0.00    +0.000 C 
BRANCH  18  20
ATOM     20  S   UNL     1       0.107  11.383  20.921  0.00  0.00    +0.000 S 
ATOM     21  O   UNL     1      -0.921  10.715  21.695  0.00  0.00    +0.000 OA
ATOM     22  O   UNL     1       1.164  12.136  21.556  0.00  0.00    +0.000 OA
BRANCH  20  26
ATOM     23  C   UNL     1       2.149   8.115  18.430  0.00  0.00    +0.000 A 
ATOM     24  C   UNL     1       1.827   7.917  19.776  0.00  0.00    +0.000 A 
ATOM     25  C   UNL     1       1.195   8.909  20.518  0.00  0.00    +0.000 A 
ATOM     26  C   UNL     1       0.896  10.133  19.928  0.00  0.00    +0.000 A 
ATOM     27  C   UNL     1       1.152  10.333  18.566  0.00  0.00    +0.000 A 
ATOM     28  C   UNL     1       1.788   9.324  17.823  0.00  0.00    +0.000 A 
BRANCH  23  29
ATOM     29  O   UNL     1       2.795   7.189  17.644  0.00  0.00    +0.000 OA
BRANCH  29  30
ATOM     30  C   UNL     1       3.011   5.923  18.279  0.00  0.00    +0.000 C 
BRANCH  30  31
ATOM     31  C   UNL     1       4.473   5.502  18.209  0.00  0.00    +0.000 C 
BRANCH  31  33
ATOM     32  C   UNL     1       3.238   3.465  17.378  0.00  0.00    +0.000 C 
ATOM     33  C   UNL     1       4.580   4.027  17.810  0.00  0.00    +0.000 C 
ENDBRANCH  31  33
ENDBRANCH  30  31
ENDBRANCH  29  30
ENDBRANCH  23  29
ENDBRANCH  20  26
ENDBRANCH  18  20
ENDBRANCH   1  18
TORSDOF 9
ENDMDL
MODEL 8
REMARK VINA RESULT:      -6.3      0.755      1.187
REMARK  Name = 
REMARK  13 active torsions:
REMARK  status: ('A' for Active; 'I' for Inactive)
REMARK    1  A    between atoms: C_1  and  C_2
REMARK    2  A    between atoms: C_2  and  C_3
REMARK    3  A    between atoms: C_3  and  C_4
REMARK    4  A    between atoms: C_4  and  O_5
REMARK    5  A    between atoms: O_5  and  C_6
REMARK    6  A    between atoms: C_9  and  S_10
REMARK    7  A    between atoms: S_10  and  N_13
REMARK    8  A    between atoms: N_13  and  C_14
REMARK    9  A    between atoms: N_13  and  C_15
REMARK   10  A    between atoms: C_16  and  C_17
REMARK   11  A    between atoms: N_19  and  O_20
REMARK   12  A    between atoms: C_25  and  C_26
REMARK   13  A    between atoms: N_28  and  C_29
REMARK                            x       y       z     vdW  Elec       q    Type
REMARK                         _______ _______ _______ _____ _____    ______ ____
ROOT
ATOM      1  C   UNL     1      -2.149  12.319  19.796  0.00  0.00    +0.000 A 
ATOM      2  C   UNL     1      -2.633  13.142  20.836  0.00  0.00    +0.000 A 
ATOM      3  C   UNL     1      -4.008  13.317  20.965  0.00  0.00    +0.000 A 
ATOM      4  N   UNL     1      -4.956  12.790  20.157  0.00  0.00    +0.000 NA
ATOM      5  C   UNL     1      -4.443  12.071  19.140  0.00  0.00    +0.000 A 
ATOM      6  C   UNL     1      -3.102  11.780  18.893  0.00  0.00    +0.000 A 
ATOM      7  C   UNL     1      -3.150  10.984  17.703  0.00  0.00    +0.000 A 
ATOM      8  C   UNL     1      -2.060  10.348  16.925  0.00  0.00    +0.000 C 
ATOM      9  N   UNL     1      -4.403  10.825  17.246  0.00  0.00    +0.000 NA
ATOM     10  N   UNL     1      -5.159  11.516  18.116  0.00  0.00    +0.000 N 
ATOM     11  C   UNL     1      -6.582  11.627  17.905  0.00  0.00    +0.000 C 
ENDROOT
BRANCH   2  12
ATOM     12  C   UNL     1      -1.786  13.915  21.776  0.00  0.00    +0.000 C 
ATOM     13  O   UNL     1      -1.390  15.043  21.474  0.00  0.00    +0.000 OA
ATOM     14  N   UNL     1      -1.446  13.333  22.971  0.00  0.00    +0.000 N 
ATOM     15  H   UNL     1      -1.595  12.353  23.167  0.00  0.00    +0.000 HD
BRANCH  14  16
ATOM     16  O   UNL     1      -0.428  13.972  23.713  0.00  0.00    +0.000 OA
ATOM     17  H   UNL     1      -0.101  13.252  24.295  0.00  0.00    +0.000 HD
ENDBRANCH  14  16
ENDBRANCH   2  12
BRANCH   1  18
ATOM     18  N   UNL     1      -0.718  12.130  19.637  0.00  0.00    +0.000 N 
ATOM     19  C   UNL     1       0.018  13.255  19.007  0.00  0.00    +0.000 C 
BRANCH  18  20
ATOM     20  S   UNL     1       0.015  11.240  20.925  0.00  0.00    +0.000 S 
ATOM     21  O   UNL     1      -1.041  10.610  21.695  0.00  0.00    +0.000 OA
ATOM     22  O   UNL     1       1.015  12.073  21.553  0.00  0.00    +0.000 OA
BRANCH  20  26
ATOM     23  C   UNL     1       2.258   7.920  18.691  0.00  0.00    +0.000 A 
ATOM     24  C   UNL     1       1.892   9.112  18.058  0.00  0.00    +0.000 A 
ATOM     25  C   UNL     1       1.225  10.117  18.748  0.00  0.00    +0.000 A 
ATOM     26  C   UNL     1       0.888   9.936  20.086  0.00  0.00    +0.000 A 
ATOM     27  C   UNL     1       1.298   8.778  20.758  0.00  0.00    +0.000 A 
ATOM     28  C   UNL     1       1.975   7.768  20.053  0.00  0.00    +0.000 A 
BRANCH  23  29
ATOM     29  O   UNL     1       2.896   6.874  18.064  0.00  0.00    +0.000 OA
BRANCH  29  30
ATOM     30  C   UNL     1       2.050   5.755  17.772  0.00  0.00    +0.000 C 
BRANCH  30  31
ATOM     31  C   UNL     1       2.240   4.630  18.780  0.00  0.00    +0.000 C 
BRANCH  31  33
ATOM     32  C   UNL     1       0.868   2.516  18.913  0.00  0.00    +0.000 C 
ATOM     33  C   UNL     1       1.922   3.280  18.131  0.00  0.00    +0.000 C 
ENDBRANCH  31  33
ENDBRANCH  30  31
ENDBRANCH  29  30
ENDBRANCH  23  29
ENDBRANCH  20  26
ENDBRANCH  18  20
ENDBRANCH   1  18
TORSDOF 9
ENDMDL
MODEL 9
REMARK VINA RESULT:      -6.3      2.111      4.052
REMARK  Name = 
REMARK  13 active torsions:
REMARK  status: ('A' for Active; 'I' for Inactive)
REMARK    1  A    between atoms: C_1  and  C_2
REMARK    2  A    between atoms: C_2  and  C_3
REMARK    3  A    between atoms: C_3  and  C_4
REMARK    4  A    between atoms: C_4  and  O_5
REMARK    5  A    between atoms: O_5  and  C_6
REMARK    6  A    between atoms: C_9  and  S_10
REMARK    7  A    between atoms: S_10  and  N_13
REMARK    8  A    between atoms: N_13  and  C_14
REMARK    9  A    between atoms: N_13  and  C_15
REMARK   10  A    between atoms: C_16  and  C_17
REMARK   11  A    between atoms: N_19  and  O_20
REMARK   12  A    between atoms: C_25  and  C_26
REMARK   13  A    between atoms: N_28  and  C_29
REMARK                            x       y       z     vdW  Elec       q    Type
REMARK                         _______ _______ _______ _____ _____    ______ ____
ROOT
ATOM      1  C   UNL     1      -1.948  12.570  19.800  0.00  0.00    +0.000 A 
ATOM      2  C   UNL     1      -2.907  11.929  18.985  0.00  0.00    +0.000 A 
ATOM      3  C   UNL     1      -4.255  12.186  19.213  0.00  0.00    +0.000 A 
ATOM      4  N   UNL     1      -4.760  12.987  20.179  0.00  0.00    +0.000 NA
ATOM      5  C   UNL     1      -3.812  13.520  20.973  0.00  0.00    +0.000 A 
ATOM      6  C   UNL     1      -2.429  13.384  20.858  0.00  0.00    +0.000 A 
ATOM      7  C   UNL     1      -1.927  14.165  21.949  0.00  0.00    +0.000 A 
ATOM      8  C   UNL     1      -0.535  14.440  22.378  0.00  0.00    +0.000 C 
ATOM      9  N   UNL     1      -2.913  14.707  22.683  0.00  0.00    +0.000 NA
ATOM     10  N   UNL     1      -4.039  14.277  22.088  0.00  0.00    +0.000 N 
ATOM     11  C   UNL     1      -5.325  14.613  22.650  0.00  0.00    +0.000 C 
ENDROOT
BRANCH   2  12
ATOM     12  C   UNL     1      -2.602  10.925  17.938  0.00  0.00    +0.000 C 
ATOM     13  O   UNL     1      -2.257   9.784  18.251  0.00  0.00    +0.000 OA
ATOM     14  N   UNL     1      -2.696  11.309  16.624  0.00  0.00    +0.000 N 
ATOM     15  H   UNL     1      -2.792  12.274  16.339  0.00  0.00    +0.000 HD
BRANCH  14  16
ATOM     16  O   UNL     1      -2.141  10.427  15.672  0.00  0.00    +0.000 OA
ATOM     17  H   UNL     1      -1.217  10.323  15.988  0.00  0.00    +0.000 HD
ENDBRANCH  14  16
ENDBRANCH   2  12
BRANCH   1  18
ATOM     18  N   UNL     1      -0.535  12.308  19.587  0.00  0.00    +0.000 N 
ATOM     19  C   UNL     1       0.236  13.400  18.942  0.00  0.00    +0.000 C 
BRANCH  18  20
ATOM     20  S   UNL     1       0.195  11.366  20.840  0.00  0.00    +0.000 S 
ATOM     21  O   UNL     1      -0.863  10.820  21.668  0.00  0.00    +0.000 OA
ATOM     22  O   UNL     1       1.289  12.120  21.409  0.00  0.00    +0.000 OA
BRANCH  20  26
ATOM     23  C   UNL     1       2.072   7.798  18.650  0.00  0.00    +0.000 A 
ATOM     24  C   UNL     1       1.783   7.750  20.017  0.00  0.00    +0.000 A 
ATOM     25  C   UNL     1       1.201   8.831  20.667  0.00  0.00    +0.000 A 
ATOM     26  C   UNL     1       0.920   9.997  19.962  0.00  0.00    +0.000 A 
ATOM     27  C   UNL     1       1.143  10.048  18.581  0.00  0.00    +0.000 A 
ATOM     28  C   UNL     1       1.729   8.948  17.930  0.00  0.00    +0.000 A 
BRANCH  23  29
ATOM     29  O   UNL     1       2.669   6.776  17.948  0.00  0.00    +0.000 OA
BRANCH  29  30
ATOM     30  C   UNL     1       3.956   7.102  17.408  0.00  0.00    +0.000 C 
BRANCH  30  31
ATOM     31  C   UNL     1       4.730   5.853  17.010  0.00  0.00    +0.000 C 
BRANCH  31  33
ATOM     32  C   UNL     1       6.477   5.081  15.362  0.00  0.00    +0.000 C 
ATOM     33  C   UNL     1       5.303   6.013  15.599  0.00  0.00    +0.000 C 
ENDBRANCH  31  33
ENDBRANCH  30  31
ENDBRANCH  29  30
ENDBRANCH  23  29
ENDBRANCH  20  26
ENDBRANCH  18  20
ENDBRANCH   1  18
TORSDOF 9
ENDMDL
