MODEL 1
REMARK VINA RESULT:      -7.6      0.000      0.000
REMARK  Name = 
REMARK  5 active torsions:
REMARK  status: ('A' for Active; 'I' for Inactive)
REMARK    1  A    between atoms: C_2  and  C_14
REMARK    2  A    between atoms: N_3  and  O_4
REMARK    3  A    between atoms: O_4  and  C_5
REMARK    4  A    between atoms: C_5  and  O_7
REMARK    5  A    between atoms: O_7  and  C_8
REMARK                            x       y       z     vdW  Elec       q    Type
REMARK                         _______ _______ _______ _____ _____    ______ ____
ROOT
ATOM      1  N   UNL     1       7.099   5.790  15.845  0.00  0.00    +0.000 NA
ATOM      2  C   UNL     1       6.252   6.290  16.688  0.00  0.00    +0.000 C 
ATOM      3  N   UNL     1       6.393   7.543  17.243  0.00  0.00    +0.000 N 
ATOM      4  H   UNL     1       7.827   6.493  15.685  0.00  0.00    +0.000 HD
ATOM      5  H   UNL     1       6.156   7.615  18.238  0.00  0.00    +0.000 HD
ENDROOT
BRANCH   2   6
ATOM      6  C   UNL     1       5.051   5.482  17.063  0.00  0.00    +0.000 A 
ATOM      7  C   UNL     1       3.916   6.111  17.590  0.00  0.00    +0.000 A 
ATOM      8  C   UNL     1       2.813   5.347  17.978  0.00  0.00    +0.000 A 
ATOM      9  C   UNL     1       2.851   3.959  17.849  0.00  0.00    +0.000 A 
ATOM     10 BR   UNL     1       1.372   2.921  18.403  0.00  0.00    +0.000 Br
ATOM     11  C   UNL     1       3.980   3.326  17.329  0.00  0.00    +0.000 A 
ATOM     12  C   UNL     1       5.080   4.087  16.934  0.00  0.00    +0.000 A 
ENDBRANCH   2   6
BRANCH   3  13
ATOM     13  O   UNL     1       7.606   8.175  16.918  0.00  0.00    +0.000 OA
BRANCH  13  14
ATOM     14  C   UNL     1       8.260   8.645  18.027  0.00  0.00    +0.000 C 
ATOM     15  O   UNL     1       8.708   7.931  18.915  0.00  0.00    +0.000 OA
BRANCH  14  16
ATOM     16  O   UNL     1       8.319  10.021  17.939  0.00  0.00    +0.000 OA
BRANCH  16  17
ATOM     17  C   UNL     1       9.307  10.732  18.642  0.00  0.00    +0.000 A 
ATOM     18  C   UNL     1      10.401  11.116  17.863  0.00  0.00    +0.000 A 
ATOM     19  C   UNL     1      11.507  11.712  18.466  0.00  0.00    +0.000 A 
ATOM     20  C   UNL     1      11.512  11.932  19.843  0.00  0.00    +0.000 A 
ATOM     21  C   UNL     1      10.402  11.577  20.612  0.00  0.00    +0.000 A 
ATOM     22  C   UNL     1       9.292  10.981  20.013  0.00  0.00    +0.000 A 
ENDBRANCH  16  17
ENDBRANCH  14  16
ENDBRANCH  13  14
ENDBRANCH   3  13
TORSDOF 5
ENDMDL
MODEL 2
REMARK VINA RESULT:      -7.4      5.753      7.948
REMARK  Name = 
REMARK  5 active torsions:
REMARK  status: ('A' for Active; 'I' for Inactive)
REMARK    1  A    between atoms: C_2  and  C_14
REMARK    2  A    between atoms: N_3  and  O_4
REMARK    3  A    between atoms: O_4  and  C_5
REMARK    4  A    between atoms: C_5  and  O_7
REMARK    5  A    between atoms: O_7  and  C_8
REMARK                            x       y       z     vdW  Elec       q    Type
REMARK                         _______ _______ _______ _____ _____    ______ ____
ROOT
ATOM      1  N   UNL     1       2.236   5.410  17.792  0.00  0.00    +0.000 NA
ATOM      2  C   UNL     1       2.955   6.362  18.295  0.00  0.00    +0.000 C 
ATOM      3  N   UNL     1       4.322   6.276  18.441  0.00  0.00    +0.000 N 
ATOM      4  H   UNL     1       2.870   4.649  17.532  0.00  0.00    +0.000 HD
ATOM      5  H   UNL     1       4.698   6.660  19.315  0.00  0.00    +0.000 HD
ENDROOT
BRANCH   2   6
ATOM      6  C   UNL     1       2.278   7.627  18.718  0.00  0.00    +0.000 A 
ATOM      7  C   UNL     1       1.810   7.771  20.031  0.00  0.00    +0.000 A 
ATOM      8  C   UNL     1       1.142   8.937  20.408  0.00  0.00    +0.000 A 
ATOM      9  C   UNL     1       0.933   9.950  19.473  0.00  0.00    +0.000 A 
ATOM     10 BR   UNL     1       0.001  11.517  19.974  0.00  0.00    +0.000 Br
ATOM     11  C   UNL     1       1.393   9.812  18.163  0.00  0.00    +0.000 A 
ATOM     12  C   UNL     1       2.067   8.651  17.785  0.00  0.00    +0.000 A 
ENDBRANCH   2   6
BRANCH   3  13
ATOM     13  O   UNL     1       4.849   5.013  18.123  0.00  0.00    +0.000 OA
BRANCH  13  14
ATOM     14  C   UNL     1       5.544   4.461  19.167  0.00  0.00    +0.000 C 
ATOM     15  O   UNL     1       6.458   5.021  19.758  0.00  0.00    +0.000 OA
BRANCH  14  16
ATOM     16  O   UNL     1       5.024   3.206  19.412  0.00  0.00    +0.000 OA
BRANCH  16  17
ATOM     17  C   UNL     1       3.683   3.062  19.810  0.00  0.00    +0.000 A 
ATOM     18  C   UNL     1       2.926   2.228  18.983  0.00  0.00    +0.000 A 
ATOM     19  C   UNL     1       1.553   2.107  19.192  0.00  0.00    +0.000 A 
ATOM     20  C   UNL     1       0.944   2.808  20.231  0.00  0.00    +0.000 A 
ATOM     21  C   UNL     1       1.710   3.614  21.075  0.00  0.00    +0.000 A 
ATOM     22  C   UNL     1       3.085   3.739  20.871  0.00  0.00    +0.000 A 
ENDBRANCH  16  17
ENDBRANCH  14  16
ENDBRANCH  13  14
ENDBRANCH   3  13
TORSDOF 5
ENDMDL
MODEL 3
REMARK VINA RESULT:      -7.4      3.559      8.333
REMARK  Name = 
REMARK  5 active torsions:
REMARK  status: ('A' for Active; 'I' for Inactive)
REMARK    1  A    between atoms: C_2  and  C_14
REMARK    2  A    between atoms: N_3  and  O_4
REMARK    3  A    between atoms: O_4  and  C_5
REMARK    4  A    between atoms: C_5  and  O_7
REMARK    5  A    between atoms: O_7  and  C_8
REMARK                            x       y       z     vdW  Elec       q    Type
REMARK                         _______ _______ _______ _____ _____    ______ ____
ROOT
ATOM      1  N   UNL     1       8.537   7.386  19.013  0.00  0.00    +0.000 NA
ATOM      2  C   UNL     1       8.235   8.319  18.168  0.00  0.00    +0.000 C 
ATOM      3  N   UNL     1       7.531   8.084  17.007  0.00  0.00    +0.000 N 
ATOM      4  H   UNL     1       8.147   6.508  18.658  0.00  0.00    +0.000 HD
ATOM      5  H   UNL     1       7.859   8.593  16.180  0.00  0.00    +0.000 HD
ENDROOT
BRANCH   2   6
ATOM      6  C   UNL     1       8.648   9.724  18.470  0.00  0.00    +0.000 A 
ATOM      7  C   UNL     1       8.340  10.757  17.576  0.00  0.00    +0.000 A 
ATOM      8  C   UNL     1       8.765  12.060  17.844  0.00  0.00    +0.000 A 
ATOM      9  C   UNL     1       9.504  12.326  18.996  0.00  0.00    +0.000 A 
ATOM     10 BR   UNL     1      10.106  14.083  19.345  0.00  0.00    +0.000 Br
ATOM     11  C   UNL     1       9.817  11.300  19.890  0.00  0.00    +0.000 A 
ATOM     12  C   UNL     1       9.388   9.999  19.628  0.00  0.00    +0.000 A 
ENDBRANCH   2   6
BRANCH   3  13
ATOM     13  O   UNL     1       7.288   6.722  16.756  0.00  0.00    +0.000 OA
BRANCH  13  14
ATOM     14  C   UNL     1       5.961   6.464  16.531  0.00  0.00    +0.000 C 
ATOM     15  O   UNL     1       5.361   6.779  15.511  0.00  0.00    +0.000 OA
BRANCH  14  16
ATOM     16  O   UNL     1       5.462   5.798  17.633  0.00  0.00    +0.000 OA
BRANCH  16  17
ATOM     17  C   UNL     1       4.210   5.162  17.566  0.00  0.00    +0.000 A 
ATOM     18  C   UNL     1       3.161   5.903  18.116  0.00  0.00    +0.000 A 
ATOM     19  C   UNL     1       1.895   5.332  18.232  0.00  0.00    +0.000 A 
ATOM     20  C   UNL     1       1.678   4.028  17.787  0.00  0.00    +0.000 A 
ATOM     21  C   UNL     1       2.722   3.305  17.208  0.00  0.00    +0.000 A 
ATOM     22  C   UNL     1       3.991   3.872  17.090  0.00  0.00    +0.000 A 
ENDBRANCH  16  17
ENDBRANCH  14  16
ENDBRANCH  13  14
ENDBRANCH   3  13
TORSDOF 5
ENDMDL
MODEL 4
REMARK VINA RESULT:      -7.3      6.065      8.334
REMARK  Name = 
REMARK  5 active torsions:
REMARK  status: ('A' for Active; 'I' for Inactive)
REMARK    1  A    between atoms: C_2  and  C_14
REMARK    2  A    between atoms: N_3  and  O_4
REMARK    3  A    between atoms: O_4  and  C_5
REMARK    4  A    between atoms: C_5  and  O_7
REMARK    5  A    between atoms: O_7  and  C_8
REMARK                            x       y       z     vdW  Elec       q    Type
REMARK                         _______ _______ _______ _____ _____    ______ ____
ROOT
ATOM      1  N   UNL     1       3.012   5.896  20.409  0.00  0.00    +0.000 NA
ATOM      2  C   UNL     1       2.970   6.500  19.265  0.00  0.00    +0.000 C 
ATOM      3  N   UNL     1       3.609   6.027  18.140  0.00  0.00    +0.000 N 
ATOM      4  H   UNL     1       3.569   5.045  20.289  0.00  0.00    +0.000 HD
ATOM      5  H   UNL     1       4.065   6.739  17.559  0.00  0.00    +0.000 HD
ENDROOT
BRANCH   2   6
ATOM      6  C   UNL     1       2.172   7.760  19.146  0.00  0.00    +0.000 A 
ATOM      7  C   UNL     1       2.161   8.477  17.943  0.00  0.00    +0.000 A 
ATOM      8  C   UNL     1       1.449   9.674  17.852  0.00  0.00    +0.000 A 
ATOM      9  C   UNL     1       0.759  10.157  18.963  0.00  0.00    +0.000 A 
ATOM     10 BR   UNL     1      -0.181  11.793  18.851  0.00  0.00    +0.000 Br
ATOM     11  C   UNL     1       0.769   9.449  20.166  0.00  0.00    +0.000 A 
ATOM     12  C   UNL     1       1.474   8.250  20.258  0.00  0.00    +0.000 A 
ENDBRANCH   2   6
BRANCH   3  13
ATOM     13  O   UNL     1       4.422   4.905  18.377  0.00  0.00    +0.000 OA
BRANCH  13  14
ATOM     14  C   UNL     1       4.248   3.928  17.433  0.00  0.00    +0.000 C 
ATOM     15  O   UNL     1       4.293   4.123  16.224  0.00  0.00    +0.000 OA
BRANCH  14  16
ATOM     16  O   UNL     1       4.031   2.733  18.087  0.00  0.00    +0.000 OA
BRANCH  16  17
ATOM     17  C   UNL     1       3.126   2.670  19.161  0.00  0.00    +0.000 A 
ATOM     18  C   UNL     1       1.797   2.910  18.806  0.00  0.00    +0.000 A 
ATOM     19  C   UNL     1       0.821   3.007  19.796  0.00  0.00    +0.000 A 
ATOM     20  C   UNL     1       1.174   2.850  21.136  0.00  0.00    +0.000 A 
ATOM     21  C   UNL     1       2.498   2.576  21.483  0.00  0.00    +0.000 A 
ATOM     22  C   UNL     1       3.478   2.479  20.496  0.00  0.00    +0.000 A 
ENDBRANCH  16  17
ENDBRANCH  14  16
ENDBRANCH  13  14
ENDBRANCH   3  13
TORSDOF 5
ENDMDL
MODEL 5
REMARK VINA RESULT:      -7.3      6.074      8.288
REMARK  Name = 
REMARK  5 active torsions:
REMARK  status: ('A' for Active; 'I' for Inactive)
REMARK    1  A    between atoms: C_2  and  C_14
REMARK    2  A    between atoms: N_3  and  O_4
REMARK    3  A    between atoms: O_4  and  C_5
REMARK    4  A    between atoms: C_5  and  O_7
REMARK    5  A    between atoms: O_7  and  C_8
REMARK                            x       y       z     vdW  Elec       q    Type
REMARK                         _______ _______ _______ _____ _____    ______ ____
ROOT
ATOM      1  N   UNL     1       3.060   5.832  20.399  0.00  0.00    +0.000 NA
ATOM      2  C   UNL     1       3.008   6.448  19.261  0.00  0.00    +0.000 C 
ATOM      3  N   UNL     1       3.632   5.982  18.125  0.00  0.00    +0.000 N 
ATOM      4  H   UNL     1       3.611   4.980  20.265  0.00  0.00    +0.000 HD
ATOM      5  H   UNL     1       4.086   6.697  17.545  0.00  0.00    +0.000 HD
ENDROOT
BRANCH   2   6
ATOM      6  C   UNL     1       2.216   7.713  19.164  0.00  0.00    +0.000 A 
ATOM      7  C   UNL     1       1.563   8.224  20.292  0.00  0.00    +0.000 A 
ATOM      8  C   UNL     1       0.790   9.382  20.185  0.00  0.00    +0.000 A 
ATOM      9  C   UNL     1       0.664  10.020  18.952  0.00  0.00    +0.000 A 
ATOM     10 BR   UNL     1      -0.406  11.571  18.798  0.00  0.00    +0.000 Br
ATOM     11  C   UNL     1       1.310   9.514  17.822  0.00  0.00    +0.000 A 
ATOM     12  C   UNL     1       2.087   8.361  17.929  0.00  0.00    +0.000 A 
ENDBRANCH   2   6
BRANCH   3  13
ATOM     13  O   UNL     1       4.442   4.854  18.342  0.00  0.00    +0.000 OA
BRANCH  13  14
ATOM     14  C   UNL     1       4.275   3.900  17.373  0.00  0.00    +0.000 C 
ATOM     15  O   UNL     1       4.356   4.119  16.171  0.00  0.00    +0.000 OA
BRANCH  14  16
ATOM     16  O   UNL     1       4.019   2.695  17.997  0.00  0.00    +0.000 OA
BRANCH  16  17
ATOM     17  C   UNL     1       3.133   2.638  19.087  0.00  0.00    +0.000 A 
ATOM     18  C   UNL     1       1.795   2.857  18.751  0.00  0.00    +0.000 A 
ATOM     19  C   UNL     1       0.835   2.957  19.756  0.00  0.00    +0.000 A 
ATOM     20  C   UNL     1       1.213   2.826  21.092  0.00  0.00    +0.000 A 
ATOM     21  C   UNL     1       2.546   2.574  21.420  0.00  0.00    +0.000 A 
ATOM     22  C   UNL     1       3.511   2.474  20.418  0.00  0.00    +0.000 A 
ENDBRANCH  16  17
ENDBRANCH  14  16
ENDBRANCH  13  14
ENDBRANCH   3  13
TORSDOF 5
ENDMDL
MODEL 6
REMARK VINA RESULT:      -7.3      3.554      8.375
REMARK  Name = 
REMARK  5 active torsions:
REMARK  status: ('A' for Active; 'I' for Inactive)
REMARK    1  A    between atoms: C_2  and  C_14
REMARK    2  A    between atoms: N_3  and  O_4
REMARK    3  A    between atoms: O_4  and  C_5
REMARK    4  A    between atoms: C_5  and  O_7
REMARK    5  A    between atoms: O_7  and  C_8
REMARK                            x       y       z     vdW  Elec       q    Type
REMARK                         _______ _______ _______ _____ _____    ______ ____
ROOT
ATOM      1  N   UNL     1       8.520   7.416  18.997  0.00  0.00    +0.000 NA
ATOM      2  C   UNL     1       8.214   8.363  18.170  0.00  0.00    +0.000 C 
ATOM      3  N   UNL     1       7.451   8.159  17.041  0.00  0.00    +0.000 N 
ATOM      4  H   UNL     1       8.084   6.554  18.656  0.00  0.00    +0.000 HD
ATOM      5  H   UNL     1       7.760   8.662  16.202  0.00  0.00    +0.000 HD
ENDROOT
BRANCH   2   6
ATOM      6  C   UNL     1       8.689   9.752  18.460  0.00  0.00    +0.000 A 
ATOM      7  C   UNL     1       9.376  10.027  19.649  0.00  0.00    +0.000 A 
ATOM      8  C   UNL     1       9.780  11.334  19.933  0.00  0.00    +0.000 A 
ATOM      9  C   UNL     1       9.487  12.361  19.037  0.00  0.00    +0.000 A 
ATOM     10 BR   UNL     1      10.006  14.134  19.434  0.00  0.00    +0.000 Br
ATOM     11  C   UNL     1       8.799  12.093  17.852  0.00  0.00    +0.000 A 
ATOM     12  C   UNL     1       8.401  10.789  17.563  0.00  0.00    +0.000 A 
ENDBRANCH   2   6
BRANCH   3  13
ATOM     13  O   UNL     1       7.150   6.809  16.795  0.00  0.00    +0.000 OA
BRANCH  13  14
ATOM     14  C   UNL     1       5.821   6.614  16.524  0.00  0.00    +0.000 C 
ATOM     15  O   UNL     1       5.304   6.817  15.432  0.00  0.00    +0.000 OA
BRANCH  14  16
ATOM     16  O   UNL     1       5.211   6.155  17.674  0.00  0.00    +0.000 OA
BRANCH  16  17
ATOM     17  C   UNL     1       4.114   5.281  17.592  0.00  0.00    +0.000 A 
ATOM     18  C   UNL     1       2.913   5.822  18.058  0.00  0.00    +0.000 A 
ATOM     19  C   UNL     1       1.780   5.017  18.153  0.00  0.00    +0.000 A 
ATOM     20  C   UNL     1       1.846   3.677  17.771  0.00  0.00    +0.000 A 
ATOM     21  C   UNL     1       3.039   3.150  17.275  0.00  0.00    +0.000 A 
ATOM     22  C   UNL     1       4.177   3.952  17.178  0.00  0.00    +0.000 A 
ENDBRANCH  16  17
ENDBRANCH  14  16
ENDBRANCH  13  14
ENDBRANCH   3  13
TORSDOF 5
ENDMDL
MODEL 7
REMARK VINA RESULT:      -7.3      3.574      8.329
REMARK  Name = 
REMARK  5 active torsions:
REMARK  status: ('A' for Active; 'I' for Inactive)
REMARK    1  A    between atoms: C_2  and  C_14
REMARK    2  A    between atoms: N_3  and  O_4
REMARK    3  A    between atoms: O_4  and  C_5
REMARK    4  A    between atoms: C_5  and  O_7
REMARK    5  A    between atoms: O_7  and  C_8
REMARK                            x       y       z     vdW  Elec       q    Type
REMARK                         _______ _______ _______ _____ _____    ______ ____
ROOT
ATOM      1  N   UNL     1       8.591   7.542  19.089  0.00  0.00    +0.000 NA
ATOM      2  C   UNL     1       8.244   8.465  18.251  0.00  0.00    +0.000 C 
ATOM      3  N   UNL     1       7.462   8.220  17.143  0.00  0.00    +0.000 N 
ATOM      4  H   UNL     1       8.170   6.663  18.775  0.00  0.00    +0.000 HD
ATOM      5  H   UNL     1       7.740   8.713  16.288  0.00  0.00    +0.000 HD
ENDROOT
BRANCH   2   6
ATOM      6  C   UNL     1       8.689   9.870  18.503  0.00  0.00    +0.000 A 
ATOM      7  C   UNL     1       8.319  10.895  17.624  0.00  0.00    +0.000 A 
ATOM      8  C   UNL     1       8.774  12.198  17.842  0.00  0.00    +0.000 A 
ATOM      9  C   UNL     1       9.603  12.470  18.928  0.00  0.00    +0.000 A 
ATOM     10 BR   UNL     1      10.245  14.226  19.207  0.00  0.00    +0.000 Br
ATOM     11  C   UNL     1       9.979  11.452  19.806  0.00  0.00    +0.000 A 
ATOM     12  C   UNL     1       9.521  10.152  19.595  0.00  0.00    +0.000 A 
ENDBRANCH   2   6
BRANCH   3  13
ATOM     13  O   UNL     1       7.189   6.857  16.930  0.00  0.00    +0.000 OA
BRANCH  13  14
ATOM     14  C   UNL     1       5.869   6.630  16.644  0.00  0.00    +0.000 C 
ATOM     15  O   UNL     1       5.392   6.668  15.517  0.00  0.00    +0.000 OA
BRANCH  14  16
ATOM     16  O   UNL     1       5.215   6.353  17.828  0.00  0.00    +0.000 OA
BRANCH  16  17
ATOM     17  C   UNL     1       4.183   5.399  17.859  0.00  0.00    +0.000 A 
ATOM     18  C   UNL     1       4.615   4.081  17.689  0.00  0.00    +0.000 A 
ATOM     19  C   UNL     1       3.680   3.055  17.568  0.00  0.00    +0.000 A 
ATOM     20  C   UNL     1       2.318   3.346  17.630  0.00  0.00    +0.000 A 
ATOM     21  C   UNL     1       1.892   4.660  17.834  0.00  0.00    +0.000 A 
ATOM     22  C   UNL     1       2.824   5.691  17.955  0.00  0.00    +0.000 A 
ENDBRANCH  16  17
ENDBRANCH  14  16
ENDBRANCH  13  14
ENDBRANCH   3  13
TORSDOF 5
ENDMDL
MODEL 8
REMARK VINA RESULT:      -7.1      5.713      7.999
REMARK  Name = 
REMARK  5 active torsions:
REMARK  status: ('A' for Active; 'I' for Inactive)
REMARK    1  A    between atoms: C_2  and  C_14
REMARK    2  A    between atoms: N_3  and  O_4
REMARK    3  A    between atoms: O_4  and  C_5
REMARK    4  A    between atoms: C_5  and  O_7
REMARK    5  A    between atoms: O_7  and  C_8
REMARK                            x       y       z     vdW  Elec       q    Type
REMARK                         _______ _______ _______ _____ _____    ______ ____
ROOT
ATOM      1  N   UNL     1       2.185   5.409  17.794  0.00  0.00    +0.000 NA
ATOM      2  C   UNL     1       2.895   6.371  18.289  0.00  0.00    +0.000 C 
ATOM      3  N   UNL     1       4.262   6.293  18.446  0.00  0.00    +0.000 N 
ATOM      4  H   UNL     1       2.824   4.647  17.548  0.00  0.00    +0.000 HD
ATOM      5  H   UNL     1       4.630   6.691  19.316  0.00  0.00    +0.000 HD
ENDROOT
BRANCH   2   6
ATOM      6  C   UNL     1       2.210   7.638  18.691  0.00  0.00    +0.000 A 
ATOM      7  C   UNL     1       2.069   8.685  17.773  0.00  0.00    +0.000 A 
ATOM      8  C   UNL     1       1.465   9.881  18.167  0.00  0.00    +0.000 A 
ATOM      9  C   UNL     1       1.014  10.031  19.477  0.00  0.00    +0.000 A 
ATOM     10 BR   UNL     1       0.224  11.660  20.021  0.00  0.00    +0.000 Br
ATOM     11  C   UNL     1       1.154   8.992  20.399  0.00  0.00    +0.000 A 
ATOM     12  C   UNL     1       1.750   7.795  20.005  0.00  0.00    +0.000 A 
ENDBRANCH   2   6
BRANCH   3  13
ATOM     13  O   UNL     1       4.797   5.029  18.147  0.00  0.00    +0.000 OA
BRANCH  13  14
ATOM     14  C   UNL     1       5.564   4.534  19.170  0.00  0.00    +0.000 C 
ATOM     15  O   UNL     1       6.501   5.134  19.680  0.00  0.00    +0.000 OA
BRANCH  14  16
ATOM     16  O   UNL     1       5.083   3.283  19.499  0.00  0.00    +0.000 OA
BRANCH  16  17
ATOM     17  C   UNL     1       3.704   3.082  19.684  0.00  0.00    +0.000 A 
ATOM     18  C   UNL     1       3.168   3.755  20.784  0.00  0.00    +0.000 A 
ATOM     19  C   UNL     1       1.843   3.535  21.154  0.00  0.00    +0.000 A 
ATOM     20  C   UNL     1       1.053   2.654  20.416  0.00  0.00    +0.000 A 
ATOM     21  C   UNL     1       1.583   2.009  19.297  0.00  0.00    +0.000 A 
ATOM     22  C   UNL     1       2.910   2.226  18.923  0.00  0.00    +0.000 A 
ENDBRANCH  16  17
ENDBRANCH  14  16
ENDBRANCH  13  14
ENDBRANCH   3  13
TORSDOF 5
ENDMDL
MODEL 9
REMARK VINA RESULT:      -7.1      5.081      6.742
REMARK  Name = 
REMARK  5 active torsions:
REMARK  status: ('A' for Active; 'I' for Inactive)
REMARK    1  A    between atoms: C_2  and  C_14
REMARK    2  A    between atoms: N_3  and  O_4
REMARK    3  A    between atoms: O_4  and  C_5
REMARK    4  A    between atoms: C_5  and  O_7
REMARK    5  A    between atoms: O_7  and  C_8
REMARK                            x       y       z     vdW  Elec       q    Type
REMARK                         _______ _______ _______ _____ _____    ______ ____
ROOT
ATOM      1  N   UNL     1       3.871   5.886  20.107  0.00  0.00    +0.000 NA
ATOM      2  C   UNL     1       2.772   6.044  19.440  0.00  0.00    +0.000 C 
ATOM      3  N   UNL     1       2.106   5.003  18.830  0.00  0.00    +0.000 N 
ATOM      4  H   UNL     1       4.100   4.888  20.092  0.00  0.00    +0.000 HD
ATOM      5  H   UNL     1       1.719   5.210  17.903  0.00  0.00    +0.000 HD
ENDROOT
BRANCH   2   6
ATOM      6  C   UNL     1       2.180   7.414  19.344  0.00  0.00    +0.000 A 
ATOM      7  C   UNL     1       1.546   7.988  20.453  0.00  0.00    +0.000 A 
ATOM      8  C   UNL     1       0.960   9.250  20.344  0.00  0.00    +0.000 A 
ATOM      9  C   UNL     1       0.997   9.931  19.127  0.00  0.00    +0.000 A 
ATOM     10 BR   UNL     1       0.177  11.625  18.969  0.00  0.00    +0.000 Br
ATOM     11  C   UNL     1       1.624   9.363  18.017  0.00  0.00    +0.000 A 
ATOM     12  C   UNL     1       2.217   8.105  18.125  0.00  0.00    +0.000 A 
ENDBRANCH   2   6
BRANCH   3  13
ATOM     13  O   UNL     1       2.795   3.780  18.880  0.00  0.00    +0.000 OA
BRANCH  13  14
ATOM     14  C   UNL     1       3.118   3.314  17.632  0.00  0.00    +0.000 C 
ATOM     15  O   UNL     1       2.295   3.017  16.774  0.00  0.00    +0.000 OA
BRANCH  14  16
ATOM     16  O   UNL     1       4.493   3.256  17.538  0.00  0.00    +0.000 OA
BRANCH  16  17
ATOM     17  C   UNL     1       5.236   4.426  17.302  0.00  0.00    +0.000 A 
ATOM     18  C   UNL     1       6.436   4.497  18.013  0.00  0.00    +0.000 A 
ATOM     19  C   UNL     1       7.200   5.662  17.968  0.00  0.00    +0.000 A 
ATOM     20  C   UNL     1       6.769   6.746  17.205  0.00  0.00    +0.000 A 
ATOM     21  C   UNL     1       5.586   6.657  16.469  0.00  0.00    +0.000 A 
ATOM     22  C   UNL     1       4.817   5.494  16.511  0.00  0.00    +0.000 A 
ENDBRANCH  16  17
ENDBRANCH  14  16
ENDBRANCH  13  14
ENDBRANCH   3  13
TORSDOF 5
ENDMDL
