MODEL 1
REMARK VINA RESULT:      -8.0      0.000      0.000
REMARK  Name = 
REMARK  2 active torsions:
REMARK  status: ('A' for Active; 'I' for Inactive)
REMARK    1  A    between atoms: N_1  and  C_2
REMARK    2  A    between atoms: C_5  and  C_6
REMARK                            x       y       z     vdW  Elec       q    Type
REMARK                         _______ _______ _______ _____ _____    ______ ____
ROOT
ATOM      1  C   UNL     1       2.429   7.720  18.500  0.00  0.00    +0.000 A 
ATOM      2  N   UNL     1       1.974   7.735  19.784  0.00  0.00    +0.000 NA
ATOM      3  C   UNL     1       1.251   8.874  19.854  0.00  0.00    +0.000 A 
ATOM      4  C   UNL     1       1.250   9.485  18.635  0.00  0.00    +0.000 A 
ATOM      5  C   UNL     1       0.549  10.655  18.371  0.00  0.00    +0.000 A 
ATOM      6  C   UNL     1      -0.169  11.235  19.423  0.00  0.00    +0.000 A 
ATOM      7  C   UNL     1      -0.155  10.648  20.712  0.00  0.00    +0.000 A 
ATOM      8  C   UNL     1      -0.845  11.256  21.768  0.00  0.00    +0.000 A 
ATOM      9  C   UNL     1      -0.812  10.692  23.045  0.00  0.00    +0.000 A 
ATOM     10  C   UNL     1      -0.096   9.512  23.278  0.00  0.00    +0.000 A 
ATOM     11  C   UNL     1       0.590   8.879  22.232  0.00  0.00    +0.000 A 
ATOM     12  C   UNL     1       0.569   9.438  20.945  0.00  0.00    +0.000 A 
ATOM     13  N   UNL     1       2.001   8.787  17.785  0.00  0.00    +0.000 N 
ATOM     14  H   UNL     1       2.178   9.008  16.780  0.00  0.00    +0.000 HD
ENDROOT
BRANCH   1  18
ATOM     15  C   UNL     1       4.848   4.572  16.873  0.00  0.00    +0.000 A 
ATOM     16  C   UNL     1       5.257   5.910  16.734  0.00  0.00    +0.000 A 
ATOM     17  C   UNL     1       4.457   6.950  17.224  0.00  0.00    +0.000 A 
ATOM     18  C   UNL     1       3.258   6.657  17.894  0.00  0.00    +0.000 A 
ATOM     19  C   UNL     1       2.859   5.316  18.025  0.00  0.00    +0.000 A 
ATOM     20  C   UNL     1       3.639   4.285  17.506  0.00  0.00    +0.000 A 
BRANCH  15  21
ATOM     21  N   UNL     1       5.654   3.510  16.382  0.00  0.00    +0.000 N 
ATOM     22  H   UNL     1       5.872   2.695  16.969  0.00  0.00    +0.000 HD
ATOM     23  H   UNL     1       6.015   3.533  15.417  0.00  0.00    +0.000 HD
ENDBRANCH  15  21
ENDBRANCH   1  18
TORSDOF 2
ENDMDL
MODEL 2
REMARK VINA RESULT:      -8.0      0.186      1.096
REMARK  Name = 
REMARK  2 active torsions:
REMARK  status: ('A' for Active; 'I' for Inactive)
REMARK    1  A    between atoms: N_1  and  C_2
REMARK    2  A    between atoms: C_5  and  C_6
REMARK                            x       y       z     vdW  Elec       q    Type
REMARK                         _______ _______ _______ _____ _____    ______ ____
ROOT
ATOM      1  C   UNL     1       2.530   7.563  18.516  0.00  0.00    +0.000 A 
ATOM      2  N   UNL     1       2.071   7.623  19.798  0.00  0.00    +0.000 NA
ATOM      3  C   UNL     1       1.335   8.755  19.822  0.00  0.00    +0.000 A 
ATOM      4  C   UNL     1       1.331   9.319  18.581  0.00  0.00    +0.000 A 
ATOM      5  C   UNL     1       0.619  10.470  18.271  0.00  0.00    +0.000 A 
ATOM      6  C   UNL     1      -0.109  11.082  19.298  0.00  0.00    +0.000 A 
ATOM      7  C   UNL     1      -0.092  10.545  20.608  0.00  0.00    +0.000 A 
ATOM      8  C   UNL     1      -0.792  11.186  21.638  0.00  0.00    +0.000 A 
ATOM      9  C   UNL     1      -0.757  10.671  22.936  0.00  0.00    +0.000 A 
ATOM     10  C   UNL     1      -0.029   9.509  23.216  0.00  0.00    +0.000 A 
ATOM     11  C   UNL     1       0.667   8.844  22.197  0.00  0.00    +0.000 A 
ATOM     12  C   UNL     1       0.644   9.353  20.890  0.00  0.00    +0.000 A 
ATOM     13  N   UNL     1       2.092   8.597  17.760  0.00  0.00    +0.000 N 
ATOM     14  H   UNL     1       2.270   8.782  16.748  0.00  0.00    +0.000 HD
ENDROOT
BRANCH   1  18
ATOM     15  C   UNL     1       4.951   4.495  16.748  0.00  0.00    +0.000 A 
ATOM     16  C   UNL     1       3.830   4.142  17.519  0.00  0.00    +0.000 A 
ATOM     17  C   UNL     1       3.054   5.131  18.136  0.00  0.00    +0.000 A 
ATOM     18  C   UNL     1       3.372   6.487  17.953  0.00  0.00    +0.000 A 
ATOM     19  C   UNL     1       4.496   6.827  17.182  0.00  0.00    +0.000 A 
ATOM     20  C   UNL     1       5.286   5.840  16.599  0.00  0.00    +0.000 A 
BRANCH  15  21
ATOM     21  N   UNL     1       5.743   3.498  16.118  0.00  0.00    +0.000 N 
ATOM     22  H   UNL     1       5.363   2.562  15.926  0.00  0.00    +0.000 HD
ATOM     23  H   UNL     1       6.708   3.707  15.823  0.00  0.00    +0.000 HD
ENDBRANCH  15  21
ENDBRANCH   1  18
TORSDOF 2
ENDMDL
MODEL 3
REMARK VINA RESULT:      -7.9      1.692      1.930
REMARK  Name = 
REMARK  2 active torsions:
REMARK  status: ('A' for Active; 'I' for Inactive)
REMARK    1  A    between atoms: N_1  and  C_2
REMARK    2  A    between atoms: C_5  and  C_6
REMARK                            x       y       z     vdW  Elec       q    Type
REMARK                         _______ _______ _______ _____ _____    ______ ____
ROOT
ATOM      1  C   UNL     1       2.301   6.880  19.837  0.00  0.00    +0.000 A 
ATOM      2  N   UNL     1       1.561   7.325  20.892  0.00  0.00    +0.000 NA
ATOM      3  C   UNL     1       1.131   8.541  20.490  0.00  0.00    +0.000 A 
ATOM      4  C   UNL     1       1.574   8.782  19.224  0.00  0.00    +0.000 A 
ATOM      5  C   UNL     1       1.254   9.932  18.513  0.00  0.00    +0.000 A 
ATOM      6  C   UNL     1       0.457  10.890  19.149  0.00  0.00    +0.000 A 
ATOM      7  C   UNL     1       0.015  10.689  20.480  0.00  0.00    +0.000 A 
ATOM      8  C   UNL     1      -0.750  11.671  21.121  0.00  0.00    +0.000 A 
ATOM      9  C   UNL     1      -1.166  11.484  22.442  0.00  0.00    +0.000 A 
ATOM     10  C   UNL     1      -0.826  10.314  23.131  0.00  0.00    +0.000 A 
ATOM     11  C   UNL     1      -0.073   9.313  22.502  0.00  0.00    +0.000 A 
ATOM     12  C   UNL     1       0.355   9.489  21.178  0.00  0.00    +0.000 A 
ATOM     13  N   UNL     1       2.324   7.763  18.811  0.00  0.00    +0.000 N 
ATOM     14  H   UNL     1       2.790   7.664  17.882  0.00  0.00    +0.000 HD
ENDROOT
BRANCH   1  18
ATOM     15  C   UNL     1       4.269   3.069  19.745  0.00  0.00    +0.000 A 
ATOM     16  C   UNL     1       4.883   4.186  19.151  0.00  0.00    +0.000 A 
ATOM     17  C   UNL     1       4.233   5.427  19.138  0.00  0.00    +0.000 A 
ATOM     18  C   UNL     1       2.979   5.570  19.755  0.00  0.00    +0.000 A 
ATOM     19  C   UNL     1       2.377   4.445  20.344  0.00  0.00    +0.000 A 
ATOM     20  C   UNL     1       3.009   3.205  20.324  0.00  0.00    +0.000 A 
BRANCH  15  21
ATOM     21  N   UNL     1       4.921   1.807  19.765  0.00  0.00    +0.000 N 
ATOM     22  H   UNL     1       4.381   0.932  19.785  0.00  0.00    +0.000 HD
ATOM     23  H   UNL     1       5.950   1.750  19.739  0.00  0.00    +0.000 HD
ENDBRANCH  15  21
ENDBRANCH   1  18
TORSDOF 2
ENDMDL
MODEL 4
REMARK VINA RESULT:      -7.8      1.710      2.244
REMARK  Name = 
REMARK  2 active torsions:
REMARK  status: ('A' for Active; 'I' for Inactive)
REMARK    1  A    between atoms: N_1  and  C_2
REMARK    2  A    between atoms: C_5  and  C_6
REMARK                            x       y       z     vdW  Elec       q    Type
REMARK                         _______ _______ _______ _____ _____    ______ ____
ROOT
ATOM      1  C   UNL     1       2.269   6.842  19.946  0.00  0.00    +0.000 A 
ATOM      2  N   UNL     1       1.525   7.329  20.979  0.00  0.00    +0.000 NA
ATOM      3  C   UNL     1       1.108   8.534  20.531  0.00  0.00    +0.000 A 
ATOM      4  C   UNL     1       1.562   8.727  19.261  0.00  0.00    +0.000 A 
ATOM      5  C   UNL     1       1.257   9.853  18.507  0.00  0.00    +0.000 A 
ATOM      6  C   UNL     1       0.462  10.839  19.103  0.00  0.00    +0.000 A 
ATOM      7  C   UNL     1       0.009  10.688  20.436  0.00  0.00    +0.000 A 
ATOM      8  C   UNL     1      -0.754  11.698  21.037  0.00  0.00    +0.000 A 
ATOM      9  C   UNL     1      -1.182  11.561  22.359  0.00  0.00    +0.000 A 
ATOM     10  C   UNL     1      -0.857  10.413  23.092  0.00  0.00    +0.000 A 
ATOM     11  C   UNL     1      -0.107   9.385  22.505  0.00  0.00    +0.000 A 
ATOM     12  C   UNL     1       0.333   9.511  21.179  0.00  0.00    +0.000 A 
ATOM     13  N   UNL     1       2.308   7.688  18.891  0.00  0.00    +0.000 N 
ATOM     14  H   UNL     1       2.781   7.553  17.969  0.00  0.00    +0.000 HD
ENDROOT
BRANCH   1  18
ATOM     15  C   UNL     1       4.220   3.028  19.711  0.00  0.00    +0.000 A 
ATOM     16  C   UNL     1       2.949   3.126  20.302  0.00  0.00    +0.000 A 
ATOM     17  C   UNL     1       2.318   4.371  20.422  0.00  0.00    +0.000 A 
ATOM     18  C   UNL     1       2.938   5.525  19.916  0.00  0.00    +0.000 A 
ATOM     19  C   UNL     1       4.210   5.413  19.328  0.00  0.00    +0.000 A 
ATOM     20  C   UNL     1       4.851   4.180  19.241  0.00  0.00    +0.000 A 
BRANCH  15  21
ATOM     21  N   UNL     1       4.867   1.770  19.582  0.00  0.00    +0.000 N 
ATOM     22  H   UNL     1       4.389   0.899  19.847  0.00  0.00    +0.000 HD
ATOM     23  H   UNL     1       5.823   1.711  19.200  0.00  0.00    +0.000 HD
ENDBRANCH  15  21
ENDBRANCH   1  18
TORSDOF 2
ENDMDL
MODEL 5
REMARK VINA RESULT:      -7.8      1.653      1.964
REMARK  Name = 
REMARK  2 active torsions:
REMARK  status: ('A' for Active; 'I' for Inactive)
REMARK    1  A    between atoms: N_1  and  C_2
REMARK    2  A    between atoms: C_5  and  C_6
REMARK                            x       y       z     vdW  Elec       q    Type
REMARK                         _______ _______ _______ _____ _____    ______ ____
ROOT
ATOM      1  C   UNL     1       2.494   6.351  19.025  0.00  0.00    +0.000 A 
ATOM      2  N   UNL     1       1.838   6.809  20.129  0.00  0.00    +0.000 NA
ATOM      3  C   UNL     1       1.580   8.102  19.833  0.00  0.00    +0.000 A 
ATOM      4  C   UNL     1       2.037   8.380  18.579  0.00  0.00    +0.000 A 
ATOM      5  C   UNL     1       1.875   9.617  17.968  0.00  0.00    +0.000 A 
ATOM      6  C   UNL     1       1.230  10.623  18.696  0.00  0.00    +0.000 A 
ATOM      7  C   UNL     1       0.782  10.380  20.016  0.00  0.00    +0.000 A 
ATOM      8  C   UNL     1       0.171  11.405  20.751  0.00  0.00    +0.000 A 
ATOM      9  C   UNL     1      -0.250  11.173  22.062  0.00  0.00    +0.000 A 
ATOM     10  C   UNL     1      -0.072   9.915  22.649  0.00  0.00    +0.000 A 
ATOM     11  C   UNL     1       0.523   8.872  21.927  0.00  0.00    +0.000 A 
ATOM     12  C   UNL     1       0.955   9.092  20.611  0.00  0.00    +0.000 A 
ATOM     13  N   UNL     1       2.630   7.302  18.071  0.00  0.00    +0.000 N 
ATOM     14  H   UNL     1       3.065   7.214  17.126  0.00  0.00    +0.000 HD
ENDROOT
BRANCH   1  18
ATOM     15  C   UNL     1       3.771   2.290  18.494  0.00  0.00    +0.000 A 
ATOM     16  C   UNL     1       4.510   3.152  19.323  0.00  0.00    +0.000 A 
ATOM     17  C   UNL     1       4.128   4.490  19.474  0.00  0.00    +0.000 A 
ATOM     18  C   UNL     1       2.978   4.970  18.825  0.00  0.00    +0.000 A 
ATOM     19  C   UNL     1       2.249   4.099  17.997  0.00  0.00    +0.000 A 
ATOM     20  C   UNL     1       2.651   2.777  17.822  0.00  0.00    +0.000 A 
BRANCH  15  21
ATOM     21  N   UNL     1       4.150   0.930  18.337  0.00  0.00    +0.000 N 
ATOM     22  H   UNL     1       3.467   0.221  18.036  0.00  0.00    +0.000 HD
ATOM     23  H   UNL     1       5.124   0.637  18.503  0.00  0.00    +0.000 HD
ENDBRANCH  15  21
ENDBRANCH   1  18
TORSDOF 2
ENDMDL
MODEL 6
REMARK VINA RESULT:      -7.8      1.728      7.447
REMARK  Name = 
REMARK  2 active torsions:
REMARK  status: ('A' for Active; 'I' for Inactive)
REMARK    1  A    between atoms: N_1  and  C_2
REMARK    2  A    between atoms: C_5  and  C_6
REMARK                            x       y       z     vdW  Elec       q    Type
REMARK                         _______ _______ _______ _____ _____    ______ ____
ROOT
ATOM      1  C   UNL     1       1.761   7.678  20.227  0.00  0.00    +0.000 A 
ATOM      2  N   UNL     1       2.454   7.771  19.057  0.00  0.00    +0.000 NA
ATOM      3  C   UNL     1       2.968   6.532  18.892  0.00  0.00    +0.000 A 
ATOM      4  C   UNL     1       2.556   5.731  19.915  0.00  0.00    +0.000 A 
ATOM      5  C   UNL     1       2.879   4.382  20.001  0.00  0.00    +0.000 A 
ATOM      6  C   UNL     1       3.685   3.840  18.993  0.00  0.00    +0.000 A 
ATOM      7  C   UNL     1       4.164   4.656  17.940  0.00  0.00    +0.000 A 
ATOM      8  C   UNL     1       5.001   4.113  16.957  0.00  0.00    +0.000 A 
ATOM      9  C   UNL     1       5.494   4.922  15.930  0.00  0.00    +0.000 A 
ATOM     10  C   UNL     1       5.151   6.277  15.872  0.00  0.00    +0.000 A 
ATOM     11  C   UNL     1       4.302   6.837  16.837  0.00  0.00    +0.000 A 
ATOM     12  C   UNL     1       3.804   6.037  17.877  0.00  0.00    +0.000 A 
ATOM     13  N   UNL     1       1.820   6.439  20.768  0.00  0.00    +0.000 N 
ATOM     14  H   UNL     1       1.363   6.090  21.640  0.00  0.00    +0.000 HD
ENDROOT
BRANCH   1  18
ATOM     15  C   UNL     1      -0.597  10.734  22.100  0.00  0.00    +0.000 A 
ATOM     16  C   UNL     1      -0.443  10.730  20.702  0.00  0.00    +0.000 A 
ATOM     17  C   UNL     1       0.357   9.762  20.082  0.00  0.00    +0.000 A 
ATOM     18  C   UNL     1       0.979   8.766  20.852  0.00  0.00    +0.000 A 
ATOM     19  C   UNL     1       0.818   8.782  22.248  0.00  0.00    +0.000 A 
ATOM     20  C   UNL     1       0.051   9.767  22.866  0.00  0.00    +0.000 A 
BRANCH  15  21
ATOM     21  N   UNL     1      -1.408  11.710  22.738  0.00  0.00    +0.000 N 
ATOM     22  H   UNL     1      -2.422  11.752  22.566  0.00  0.00    +0.000 HD
ATOM     23  H   UNL     1      -0.993  12.380  23.402  0.00  0.00    +0.000 HD
ENDBRANCH  15  21
ENDBRANCH   1  18
TORSDOF 2
ENDMDL
MODEL 7
REMARK VINA RESULT:      -7.7      1.708      7.489
REMARK  Name = 
REMARK  2 active torsions:
REMARK  status: ('A' for Active; 'I' for Inactive)
REMARK    1  A    between atoms: N_1  and  C_2
REMARK    2  A    between atoms: C_5  and  C_6
REMARK                            x       y       z     vdW  Elec       q    Type
REMARK                         _______ _______ _______ _____ _____    ______ ____
ROOT
ATOM      1  C   UNL     1       1.866   7.582  20.140  0.00  0.00    +0.000 A 
ATOM      2  N   UNL     1       2.559   7.678  18.970  0.00  0.00    +0.000 NA
ATOM      3  C   UNL     1       3.058   6.436  18.790  0.00  0.00    +0.000 A 
ATOM      4  C   UNL     1       2.636   5.628  19.804  0.00  0.00    +0.000 A 
ATOM      5  C   UNL     1       2.941   4.275  19.875  0.00  0.00    +0.000 A 
ATOM      6  C   UNL     1       3.740   3.733  18.861  0.00  0.00    +0.000 A 
ATOM      7  C   UNL     1       4.229   4.555  17.816  0.00  0.00    +0.000 A 
ATOM      8  C   UNL     1       5.059   4.012  16.827  0.00  0.00    +0.000 A 
ATOM      9  C   UNL     1       5.561   4.827  15.809  0.00  0.00    +0.000 A 
ATOM     10  C   UNL     1       5.235   6.187  15.767  0.00  0.00    +0.000 A 
ATOM     11  C   UNL     1       4.394   6.746  16.738  0.00  0.00    +0.000 A 
ATOM     12  C   UNL     1       3.887   5.941  17.769  0.00  0.00    +0.000 A 
ATOM     13  N   UNL     1       1.909   6.336  20.666  0.00  0.00    +0.000 N 
ATOM     14  H   UNL     1       1.448   5.982  21.535  0.00  0.00    +0.000 HD
ENDROOT
BRANCH   1  18
ATOM     15  C   UNL     1      -0.257  10.842  21.947  0.00  0.00    +0.000 A 
ATOM     16  C   UNL     1       0.129   9.741  22.731  0.00  0.00    +0.000 A 
ATOM     17  C   UNL     1       0.787   8.651  22.146  0.00  0.00    +0.000 A 
ATOM     18  C   UNL     1       1.099   8.672  20.777  0.00  0.00    +0.000 A 
ATOM     19  C   UNL     1       0.706   9.778  20.004  0.00  0.00    +0.000 A 
ATOM     20  C   UNL     1       0.021  10.845  20.581  0.00  0.00    +0.000 A 
BRANCH  15  21
ATOM     21  N   UNL     1      -0.923  11.952  22.532  0.00  0.00    +0.000 N 
ATOM     22  H   UNL     1      -0.663  12.294  23.467  0.00  0.00    +0.000 HD
ATOM     23  H   UNL     1      -1.666  12.447  22.016  0.00  0.00    +0.000 HD
ENDBRANCH  15  21
ENDBRANCH   1  18
TORSDOF 2
ENDMDL
MODEL 8
REMARK VINA RESULT:      -7.7      1.768      2.263
REMARK  Name = 
REMARK  2 active torsions:
REMARK  status: ('A' for Active; 'I' for Inactive)
REMARK    1  A    between atoms: N_1  and  C_2
REMARK    2  A    between atoms: C_5  and  C_6
REMARK                            x       y       z     vdW  Elec       q    Type
REMARK                         _______ _______ _______ _____ _____    ______ ____
ROOT
ATOM      1  C   UNL     1       2.385   6.107  19.036  0.00  0.00    +0.000 A 
ATOM      2  N   UNL     1       1.755   6.630  20.126  0.00  0.00    +0.000 NA
ATOM      3  C   UNL     1       1.585   7.931  19.803  0.00  0.00    +0.000 A 
ATOM      4  C   UNL     1       2.065   8.152  18.546  0.00  0.00    +0.000 A 
ATOM      5  C   UNL     1       1.987   9.384  17.908  0.00  0.00    +0.000 A 
ATOM      6  C   UNL     1       1.406  10.445  18.611  0.00  0.00    +0.000 A 
ATOM      7  C   UNL     1       0.936  10.259  19.934  0.00  0.00    +0.000 A 
ATOM      8  C   UNL     1       0.391  11.337  20.643  0.00  0.00    +0.000 A 
ATOM      9  C   UNL     1      -0.051  11.160  21.957  0.00  0.00    +0.000 A 
ATOM     10  C   UNL     1       0.042   9.906  22.571  0.00  0.00    +0.000 A 
ATOM     11  C   UNL     1       0.570   8.811  21.874  0.00  0.00    +0.000 A 
ATOM     12  C   UNL     1       1.023   8.975  20.556  0.00  0.00    +0.000 A 
ATOM     13  N   UNL     1       2.588   7.026  18.063  0.00  0.00    +0.000 N 
ATOM     14  H   UNL     1       3.021   6.891  17.123  0.00  0.00    +0.000 HD
ENDROOT
BRANCH   1  18
ATOM     15  C   UNL     1       3.663   2.046  18.510  0.00  0.00    +0.000 A 
ATOM     16  C   UNL     1       2.589   2.543  17.751  0.00  0.00    +0.000 A 
ATOM     17  C   UNL     1       2.135   3.854  17.942  0.00  0.00    +0.000 A 
ATOM     18  C   UNL     1       2.778   4.693  18.867  0.00  0.00    +0.000 A 
ATOM     19  C   UNL     1       3.850   4.183  19.620  0.00  0.00    +0.000 A 
ATOM     20  C   UNL     1       4.277   2.868  19.454  0.00  0.00    +0.000 A 
BRANCH  15  21
ATOM     21  N   UNL     1       4.132   0.718  18.322  0.00  0.00    +0.000 N 
ATOM     22  H   UNL     1       4.800   0.294  18.980  0.00  0.00    +0.000 HD
ATOM     23  H   UNL     1       3.792   0.151  17.532  0.00  0.00    +0.000 HD
ENDBRANCH  15  21
ENDBRANCH   1  18
TORSDOF 2
ENDMDL
MODEL 9
REMARK VINA RESULT:      -7.6      2.295      7.196
REMARK  Name = 
REMARK  2 active torsions:
REMARK  status: ('A' for Active; 'I' for Inactive)
REMARK    1  A    between atoms: N_1  and  C_2
REMARK    2  A    between atoms: C_5  and  C_6
REMARK                            x       y       z     vdW  Elec       q    Type
REMARK                         _______ _______ _______ _____ _____    ______ ____
ROOT
ATOM      1  C   UNL     1       1.163   8.380  20.603  0.00  0.00    +0.000 A 
ATOM      2  N   UNL     1       1.333   7.128  21.114  0.00  0.00    +0.000 NA
ATOM      3  C   UNL     1       2.057   6.492  20.167  0.00  0.00    +0.000 A 
ATOM      4  C   UNL     1       2.336   7.359  19.152  0.00  0.00    +0.000 A 
ATOM      5  C   UNL     1       3.110   7.016  18.051  0.00  0.00    +0.000 A 
ATOM      6  C   UNL     1       3.603   5.708  17.983  0.00  0.00    +0.000 A 
ATOM      7  C   UNL     1       3.296   4.772  19.000  0.00  0.00    +0.000 A 
ATOM      8  C   UNL     1       3.762   3.454  18.904  0.00  0.00    +0.000 A 
ATOM      9  C   UNL     1       3.441   2.523  19.894  0.00  0.00    +0.000 A 
ATOM     10  C   UNL     1       2.658   2.900  20.991  0.00  0.00    +0.000 A 
ATOM     11  C   UNL     1       2.194   4.217  21.114  0.00  0.00    +0.000 A 
ATOM     12  C   UNL     1       2.505   5.161  20.124  0.00  0.00    +0.000 A 
ATOM     13  N   UNL     1       1.765   8.536  19.401  0.00  0.00    +0.000 N 
ATOM     14  H   UNL     1       1.812   9.393  18.806  0.00  0.00    +0.000 HD
ENDROOT
BRANCH   1  18
ATOM     15  C   UNL     1      -0.770  11.676  22.554  0.00  0.00    +0.000 A 
ATOM     16  C   UNL     1      -0.881  10.383  23.094  0.00  0.00    +0.000 A 
ATOM     17  C   UNL     1      -0.289   9.291  22.446  0.00  0.00    +0.000 A 
ATOM     18  C   UNL     1       0.453   9.491  21.270  0.00  0.00    +0.000 A 
ATOM     19  C   UNL     1       0.555  10.789  20.740  0.00  0.00    +0.000 A 
ATOM     20  C   UNL     1      -0.064  11.867  21.368  0.00  0.00    +0.000 A 
BRANCH  15  21
ATOM     21  N   UNL     1      -1.365  12.789  23.206  0.00  0.00    +0.000 N 
ATOM     22  H   UNL     1      -2.354  13.027  23.051  0.00  0.00    +0.000 HD
ATOM     23  H   UNL     1      -0.817  13.364  23.862  0.00  0.00    +0.000 HD
ENDBRANCH  15  21
ENDBRANCH   1  18
TORSDOF 2
ENDMDL
