MODEL 1
REMARK VINA RESULT:      -8.6      0.000      0.000
REMARK  Name = 
REMARK  6 active torsions:
REMARK  status: ('A' for Active; 'I' for Inactive)
REMARK    1  A    between atoms: C_2  and  C_3
REMARK    2  A    between atoms: C_6  and  C_7
REMARK    3  A    between atoms: C_8  and  C_9
REMARK    4  A    between atoms: N_19  and  C_20
REMARK    5  A    between atoms: C_24  and  N_25
REMARK    6  A    between atoms: C_26  and  C_28
REMARK                            x       y       z     vdW  Elec       q    Type
REMARK                         _______ _______ _______ _____ _____    ______ ____
ROOT
ATOM      1  C   UNL     1       6.661   6.263  16.418  0.00  0.00    +0.000 A 
ATOM      2  N   UNL     1       7.400   6.018  15.380  0.00  0.00    +0.000 NA
ATOM      3  C   UNL     1       6.951   5.097  14.432  0.00  0.00    +0.000 A 
ATOM      4  C   UNL     1       7.715   4.902  13.279  0.00  0.00    +0.000 A 
ATOM      5  C   UNL     1       7.275   4.041  12.270  0.00  0.00    +0.000 A 
ATOM      6  C   UNL     1       6.072   3.354  12.417  0.00  0.00    +0.000 A 
ATOM      7  C   UNL     1       5.317   3.514  13.581  0.00  0.00    +0.000 A 
ATOM      8  C   UNL     1       5.763   4.386  14.582  0.00  0.00    +0.000 A 
ATOM      9  C   UNL     1       4.982   4.603  15.815  0.00  0.00    +0.000 A 
ATOM     10  O   UNL     1       3.986   3.912  16.015  0.00  0.00    +0.000 OA
ATOM     11  N   UNL     1       5.450   5.612  16.663  0.00  0.00    +0.000 N 
ENDROOT
BRANCH  11  12
ATOM     12  C   UNL     1       4.687   5.902  17.830  0.00  0.00    +0.000 A 
ATOM     13  C   UNL     1       4.736   5.032  18.925  0.00  0.00    +0.000 A 
ATOM     14  C   UNL     1       3.847   5.202  19.977  0.00  0.00    +0.000 A 
ATOM     15  C   UNL     1       2.900   6.227  19.929  0.00  0.00    +0.000 A 
ATOM     16  C   UNL     1       2.858   7.126  18.858  0.00  0.00    +0.000 A 
ATOM     17  C   UNL     1       3.778   6.973  17.816  0.00  0.00    +0.000 A 
BRANCH  16  18
ATOM     18  N   UNL     1       1.888   8.152  18.750  0.00  0.00    +0.000 N 
ATOM     19  C   UNL     1       1.321   8.844  19.806  0.00  0.00    +0.000 C 
ATOM     20  O   UNL     1       1.630   8.737  20.989  0.00  0.00    +0.000 OA
ATOM     21  H   UNL     1       1.657   8.456  17.811  0.00  0.00    +0.000 HD
BRANCH  19  22
ATOM     22  C   UNL     1       0.274   9.845  19.466  0.00  0.00    +0.000 A 
ATOM     23  C   UNL     1      -0.263   9.979  18.180  0.00  0.00    +0.000 A 
ATOM     24  C   UNL     1      -1.270  10.923  17.945  0.00  0.00    +0.000 A 
ATOM     25  C   UNL     1      -1.745  11.721  18.988  0.00  0.00    +0.000 A 
ATOM     26  C   UNL     1      -1.225  11.575  20.272  0.00  0.00    +0.000 A 
ATOM     27  C   UNL     1      -0.223  10.638  20.510  0.00  0.00    +0.000 A 
ENDBRANCH  19  22
ENDBRANCH  16  18
ENDBRANCH  11  12
BRANCH   1  29
ATOM     28  C   UNL     1       7.756   8.374  17.069  0.00  0.00    +0.000 C 
ATOM     29  C   UNL     1       7.160   7.232  17.447  0.00  0.00    +0.000 C 
BRANCH  28  33
ATOM     30  C   UNL     1       9.316  11.372  19.717  0.00  0.00    +0.000 A 
ATOM     31  C   UNL     1       8.785  11.716  18.472  0.00  0.00    +0.000 A 
ATOM     32  C   UNL     1       8.289  10.721  17.621  0.00  0.00    +0.000 A 
ATOM     33  C   UNL     1       8.325   9.369  17.992  0.00  0.00    +0.000 A 
ATOM     34  C   UNL     1       8.855   9.036  19.247  0.00  0.00    +0.000 A 
ATOM     35  C   UNL     1       9.354  10.029  20.101  0.00  0.00    +0.000 A 
BRANCH  30  37
ATOM     36  N   UNL     1      10.216  13.212  21.307  0.00  0.00    +0.000 NA
ATOM     37  C   UNL     1       9.814  12.392  20.597  0.00  0.00    +0.000 C 
ENDBRANCH  30  37
ENDBRANCH  28  33
ENDBRANCH   1  29
TORSDOF 6
ENDMDL
MODEL 2
REMARK VINA RESULT:      -8.5      2.584      6.417
REMARK  Name = 
REMARK  6 active torsions:
REMARK  status: ('A' for Active; 'I' for Inactive)
REMARK    1  A    between atoms: C_2  and  C_3
REMARK    2  A    between atoms: C_6  and  C_7
REMARK    3  A    between atoms: C_8  and  C_9
REMARK    4  A    between atoms: N_19  and  C_20
REMARK    5  A    between atoms: C_24  and  N_25
REMARK    6  A    between atoms: C_26  and  C_28
REMARK                            x       y       z     vdW  Elec       q    Type
REMARK                         _______ _______ _______ _____ _____    ______ ____
ROOT
ATOM      1  C   UNL     1       5.202   4.884  15.746  0.00  0.00    +0.000 A 
ATOM      2  N   UNL     1       4.555   4.304  14.781  0.00  0.00    +0.000 NA
ATOM      3  C   UNL     1       5.246   3.948  13.621  0.00  0.00    +0.000 A 
ATOM      4  C   UNL     1       4.559   3.253  12.624  0.00  0.00    +0.000 A 
ATOM      5  C   UNL     1       5.223   2.816  11.475  0.00  0.00    +0.000 A 
ATOM      6  C   UNL     1       6.579   3.090  11.307  0.00  0.00    +0.000 A 
ATOM      7  C   UNL     1       7.267   3.816  12.281  0.00  0.00    +0.000 A 
ATOM      8  C   UNL     1       6.594   4.241  13.433  0.00  0.00    +0.000 A 
ATOM      9  C   UNL     1       7.292   4.988  14.498  0.00  0.00    +0.000 A 
ATOM     10  O   UNL     1       8.452   5.346  14.308  0.00  0.00    +0.000 OA
ATOM     11  N   UNL     1       6.555   5.217  15.664  0.00  0.00    +0.000 N 
ENDROOT
BRANCH  11  12
ATOM     12  C   UNL     1       7.212   5.874  16.744  0.00  0.00    +0.000 A 
ATOM     13  C   UNL     1       7.492   5.166  17.918  0.00  0.00    +0.000 A 
ATOM     14  C   UNL     1       7.947   5.849  19.038  0.00  0.00    +0.000 A 
ATOM     15  C   UNL     1       8.105   7.235  18.992  0.00  0.00    +0.000 A 
ATOM     16  C   UNL     1       7.860   7.955  17.817  0.00  0.00    +0.000 A 
ATOM     17  C   UNL     1       7.436   7.259  16.680  0.00  0.00    +0.000 A 
BRANCH  16  18
ATOM     18  N   UNL     1       7.967   9.365  17.739  0.00  0.00    +0.000 N 
ATOM     19  C   UNL     1       8.808  10.156  18.503  0.00  0.00    +0.000 C 
ATOM     20  O   UNL     1       9.648   9.755  19.302  0.00  0.00    +0.000 OA
ATOM     21  H   UNL     1       7.440   9.815  17.000  0.00  0.00    +0.000 HD
BRANCH  19  22
ATOM     22  C   UNL     1       8.715  11.627  18.296  0.00  0.00    +0.000 A 
ATOM     23  C   UNL     1       7.769  12.218  17.450  0.00  0.00    +0.000 A 
ATOM     24  C   UNL     1       7.721  13.612  17.333  0.00  0.00    +0.000 A 
ATOM     25  C   UNL     1       8.605  14.411  18.062  0.00  0.00    +0.000 A 
ATOM     26  C   UNL     1       9.533  13.825  18.919  0.00  0.00    +0.000 A 
ATOM     27  C   UNL     1       9.584  12.438  19.038  0.00  0.00    +0.000 A 
ENDBRANCH  19  22
ENDBRANCH  16  18
ENDBRANCH  11  12
BRANCH   1  29
ATOM     28  C   UNL     1       3.810   6.468  17.024  0.00  0.00    +0.000 C 
ATOM     29  C   UNL     1       4.450   5.289  16.978  0.00  0.00    +0.000 C 
BRANCH  28  33
ATOM     30  C   UNL     1       1.602   8.041  20.353  0.00  0.00    +0.000 A 
ATOM     31  C   UNL     1       1.736   8.769  19.169  0.00  0.00    +0.000 A 
ATOM     32  C   UNL     1       2.467   8.240  18.098  0.00  0.00    +0.000 A 
ATOM     33  C   UNL     1       3.085   6.985  18.196  0.00  0.00    +0.000 A 
ATOM     34  C   UNL     1       2.939   6.260  19.387  0.00  0.00    +0.000 A 
ATOM     35  C   UNL     1       2.209   6.787  20.461  0.00  0.00    +0.000 A 
BRANCH  30  37
ATOM     36  N   UNL     1       0.227   9.005  22.329  0.00  0.00    +0.000 NA
ATOM     37  C   UNL     1       0.842   8.576  21.448  0.00  0.00    +0.000 C 
ENDBRANCH  30  37
ENDBRANCH  28  33
ENDBRANCH   1  29
TORSDOF 6
ENDMDL
MODEL 3
REMARK VINA RESULT:      -8.4      0.928      1.125
REMARK  Name = 
REMARK  6 active torsions:
REMARK  status: ('A' for Active; 'I' for Inactive)
REMARK    1  A    between atoms: C_2  and  C_3
REMARK    2  A    between atoms: C_6  and  C_7
REMARK    3  A    between atoms: C_8  and  C_9
REMARK    4  A    between atoms: N_19  and  C_20
REMARK    5  A    between atoms: C_24  and  N_25
REMARK    6  A    between atoms: C_26  and  C_28
REMARK                            x       y       z     vdW  Elec       q    Type
REMARK                         _______ _______ _______ _____ _____    ______ ____
ROOT
ATOM      1  C   UNL     1       6.647   6.216  16.434  0.00  0.00    +0.000 A 
ATOM      2  N   UNL     1       7.360   6.029  15.365  0.00  0.00    +0.000 NA
ATOM      3  C   UNL     1       6.931   5.094  14.421  0.00  0.00    +0.000 A 
ATOM      4  C   UNL     1       7.661   4.960  13.238  0.00  0.00    +0.000 A 
ATOM      5  C   UNL     1       7.234   4.087  12.234  0.00  0.00    +0.000 A 
ATOM      6  C   UNL     1       6.080   3.327  12.416  0.00  0.00    +0.000 A 
ATOM      7  C   UNL     1       5.363   3.427  13.608  0.00  0.00    +0.000 A 
ATOM      8  C   UNL     1       5.794   4.311  14.605  0.00  0.00    +0.000 A 
ATOM      9  C   UNL     1       5.050   4.466  15.870  0.00  0.00    +0.000 A 
ATOM     10  O   UNL     1       4.105   3.713  16.097  0.00  0.00    +0.000 OA
ATOM     11  N   UNL     1       5.489   5.490  16.715  0.00  0.00    +0.000 N 
ENDROOT
BRANCH  11  12
ATOM     12  C   UNL     1       4.755   5.719  17.913  0.00  0.00    +0.000 A 
ATOM     13  C   UNL     1       4.836   4.797  18.963  0.00  0.00    +0.000 A 
ATOM     14  C   UNL     1       3.973   4.911  20.044  0.00  0.00    +0.000 A 
ATOM     15  C   UNL     1       3.021   5.931  20.071  0.00  0.00    +0.000 A 
ATOM     16  C   UNL     1       2.947   6.882  19.046  0.00  0.00    +0.000 A 
ATOM     17  C   UNL     1       3.841   6.784  17.975  0.00  0.00    +0.000 A 
BRANCH  16  18
ATOM     18  N   UNL     1       1.971   7.907  19.013  0.00  0.00    +0.000 N 
ATOM     19  C   UNL     1       1.895   8.922  18.075  0.00  0.00    +0.000 C 
ATOM     20  O   UNL     1       2.605   9.042  17.082  0.00  0.00    +0.000 OA
ATOM     21  H   UNL     1       1.220   7.834  19.690  0.00  0.00    +0.000 HD
BRANCH  19  22
ATOM     22  C   UNL     1       0.818   9.931  18.266  0.00  0.00    +0.000 A 
ATOM     23  C   UNL     1       1.045  11.187  18.841  0.00  0.00    +0.000 A 
ATOM     24  C   UNL     1      -0.013  12.096  18.956  0.00  0.00    +0.000 A 
ATOM     25  C   UNL     1      -1.286  11.759  18.493  0.00  0.00    +0.000 A 
ATOM     26  C   UNL     1      -1.509  10.517  17.904  0.00  0.00    +0.000 A 
ATOM     27  C   UNL     1      -0.460   9.609  17.787  0.00  0.00    +0.000 A 
ENDBRANCH  19  22
ENDBRANCH  16  18
ENDBRANCH  11  12
BRANCH   1  29
ATOM     28  C   UNL     1       7.792   8.303  17.078  0.00  0.00    +0.000 C 
ATOM     29  C   UNL     1       7.127   7.200  17.458  0.00  0.00    +0.000 C 
BRANCH  28  33
ATOM     30  C   UNL     1       9.316  11.326  19.718  0.00  0.00    +0.000 A 
ATOM     31  C   UNL     1       8.804  11.657  18.463  0.00  0.00    +0.000 A 
ATOM     32  C   UNL     1       8.319  10.655  17.615  0.00  0.00    +0.000 A 
ATOM     33  C   UNL     1       8.349   9.307  18.000  0.00  0.00    +0.000 A 
ATOM     34  C   UNL     1       8.860   8.985  19.265  0.00  0.00    +0.000 A 
ATOM     35  C   UNL     1       9.347   9.987  20.116  0.00  0.00    +0.000 A 
BRANCH  30  37
ATOM     36  N   UNL     1      10.192  13.184  21.301  0.00  0.00    +0.000 NA
ATOM     37  C   UNL     1       9.802  12.354  20.596  0.00  0.00    +0.000 C 
ENDBRANCH  30  37
ENDBRANCH  28  33
ENDBRANCH   1  29
TORSDOF 6
ENDMDL
MODEL 4
REMARK VINA RESULT:      -8.2      0.885      1.195
REMARK  Name = 
REMARK  6 active torsions:
REMARK  status: ('A' for Active; 'I' for Inactive)
REMARK    1  A    between atoms: C_2  and  C_3
REMARK    2  A    between atoms: C_6  and  C_7
REMARK    3  A    between atoms: C_8  and  C_9
REMARK    4  A    between atoms: N_19  and  C_20
REMARK    5  A    between atoms: C_24  and  N_25
REMARK    6  A    between atoms: C_26  and  C_28
REMARK                            x       y       z     vdW  Elec       q    Type
REMARK                         _______ _______ _______ _____ _____    ______ ____
ROOT
ATOM      1  C   UNL     1       6.599   6.274  16.399  0.00  0.00    +0.000 A 
ATOM      2  N   UNL     1       7.333   6.058  15.351  0.00  0.00    +0.000 NA
ATOM      3  C   UNL     1       6.919   5.101  14.421  0.00  0.00    +0.000 A 
ATOM      4  C   UNL     1       7.673   4.934  13.258  0.00  0.00    +0.000 A 
ATOM      5  C   UNL     1       7.263   4.039  12.266  0.00  0.00    +0.000 A 
ATOM      6  C   UNL     1       6.102   3.289  12.442  0.00  0.00    +0.000 A 
ATOM      7  C   UNL     1       5.360   3.422  13.617  0.00  0.00    +0.000 A 
ATOM      8  C   UNL     1       5.775   4.329  14.600  0.00  0.00    +0.000 A 
ATOM      9  C   UNL     1       5.004   4.518  15.845  0.00  0.00    +0.000 A 
ATOM     10  O   UNL     1       4.051   3.776  16.070  0.00  0.00    +0.000 OA
ATOM     11  N   UNL     1       5.431   5.561  16.673  0.00  0.00    +0.000 N 
ENDROOT
BRANCH  11  12
ATOM     12  C   UNL     1       4.673   5.823  17.850  0.00  0.00    +0.000 A 
ATOM     13  C   UNL     1       4.797   4.977  18.957  0.00  0.00    +0.000 A 
ATOM     14  C   UNL     1       3.918   5.110  20.024  0.00  0.00    +0.000 A 
ATOM     15  C   UNL     1       2.909   6.072  19.979  0.00  0.00    +0.000 A 
ATOM     16  C   UNL     1       2.790   6.949  18.894  0.00  0.00    +0.000 A 
ATOM     17  C   UNL     1       3.699   6.835  17.837  0.00  0.00    +0.000 A 
BRANCH  16  18
ATOM     18  N   UNL     1       1.756   7.911  18.789  0.00  0.00    +0.000 N 
ATOM     19  C   UNL     1       1.844   9.123  18.128  0.00  0.00    +0.000 C 
ATOM     20  O   UNL     1       2.797   9.515  17.460  0.00  0.00    +0.000 OA
ATOM     21  H   UNL     1       0.853   7.642  19.162  0.00  0.00    +0.000 HD
BRANCH  19  22
ATOM     22  C   UNL     1       0.651  10.010  18.194  0.00  0.00    +0.000 A 
ATOM     23  C   UNL     1      -0.606   9.634  17.704  0.00  0.00    +0.000 A 
ATOM     24  C   UNL     1      -1.689  10.510  17.832  0.00  0.00    +0.000 A 
ATOM     25  C   UNL     1      -1.523  11.750  18.453  0.00  0.00    +0.000 A 
ATOM     26  C   UNL     1      -0.278  12.118  18.958  0.00  0.00    +0.000 A 
ATOM     27  C   UNL     1       0.803  11.249  18.831  0.00  0.00    +0.000 A 
ENDBRANCH  19  22
ENDBRANCH  16  18
ENDBRANCH  11  12
BRANCH   1  29
ATOM     28  C   UNL     1       7.698   8.395  17.011  0.00  0.00    +0.000 C 
ATOM     29  C   UNL     1       7.063   7.281  17.409  0.00  0.00    +0.000 C 
BRANCH  28  33
ATOM     30  C   UNL     1       9.375  11.299  19.692  0.00  0.00    +0.000 A 
ATOM     31  C   UNL     1       9.406   9.937  19.995  0.00  0.00    +0.000 A 
ATOM     32  C   UNL     1       8.847   9.007  19.110  0.00  0.00    +0.000 A 
ATOM     33  C   UNL     1       8.237   9.423  17.917  0.00  0.00    +0.000 A 
ATOM     34  C   UNL     1       8.216  10.793  17.620  0.00  0.00    +0.000 A 
ATOM     35  C   UNL     1       8.775  11.726  18.504  0.00  0.00    +0.000 A 
BRANCH  30  37
ATOM     36  N   UNL     1      10.430  13.023  21.317  0.00  0.00    +0.000 NA
ATOM     37  C   UNL     1       9.961  12.254  20.592  0.00  0.00    +0.000 C 
ENDBRANCH  30  37
ENDBRANCH  28  33
ENDBRANCH   1  29
TORSDOF 6
ENDMDL
MODEL 5
REMARK VINA RESULT:      -7.9      5.020      8.423
REMARK  Name = 
REMARK  6 active torsions:
REMARK  status: ('A' for Active; 'I' for Inactive)
REMARK    1  A    between atoms: C_2  and  C_3
REMARK    2  A    between atoms: C_6  and  C_7
REMARK    3  A    between atoms: C_8  and  C_9
REMARK    4  A    between atoms: N_19  and  C_20
REMARK    5  A    between atoms: C_24  and  N_25
REMARK    6  A    between atoms: C_26  and  C_28
REMARK                            x       y       z     vdW  Elec       q    Type
REMARK                         _______ _______ _______ _____ _____    ______ ____
ROOT
ATOM      1  C   UNL     1       0.800   8.922  20.427  0.00  0.00    +0.000 A 
ATOM      2  N   UNL     1       1.175   7.769  20.892  0.00  0.00    +0.000 NA
ATOM      3  C   UNL     1       2.029   6.975  20.123  0.00  0.00    +0.000 A 
ATOM      4  C   UNL     1       2.491   5.775  20.667  0.00  0.00    +0.000 A 
ATOM      5  C   UNL     1       3.399   4.978  19.965  0.00  0.00    +0.000 A 
ATOM      6  C   UNL     1       3.838   5.371  18.702  0.00  0.00    +0.000 A 
ATOM      7  C   UNL     1       3.356   6.551  18.134  0.00  0.00    +0.000 A 
ATOM      8  C   UNL     1       2.452   7.346  18.850  0.00  0.00    +0.000 A 
ATOM      9  C   UNL     1       1.939   8.614  18.296  0.00  0.00    +0.000 A 
ATOM     10  O   UNL     1       2.218   8.910  17.135  0.00  0.00    +0.000 OA
ATOM     11  N   UNL     1       1.171   9.393  19.167  0.00  0.00    +0.000 N 
ENDROOT
BRANCH  11  12
ATOM     12  C   UNL     1       0.713  10.657  18.695  0.00  0.00    +0.000 A 
ATOM     13  C   UNL     1       1.608  11.729  18.606  0.00  0.00    +0.000 A 
ATOM     14  C   UNL     1       1.127  13.004  18.342  0.00  0.00    +0.000 A 
ATOM     15  C   UNL     1      -0.245  13.211  18.184  0.00  0.00    +0.000 A 
ATOM     16  C   UNL     1      -1.151  12.146  18.237  0.00  0.00    +0.000 A 
ATOM     17  C   UNL     1      -0.658  10.857  18.469  0.00  0.00    +0.000 A 
BRANCH  16  18
ATOM     18  N   UNL     1      -2.552  12.318  18.124  0.00  0.00    +0.000 N 
ATOM     19  C   UNL     1      -3.445  12.399  19.178  0.00  0.00    +0.000 C 
ATOM     20  O   UNL     1      -3.155  12.421  20.371  0.00  0.00    +0.000 OA
ATOM     21  H   UNL     1      -2.911  12.477  17.190  0.00  0.00    +0.000 HD
BRANCH  19  22
ATOM     22  C   UNL     1      -4.886  12.521  18.827  0.00  0.00    +0.000 A 
ATOM     23  C   UNL     1      -5.845  13.026  19.714  0.00  0.00    +0.000 A 
ATOM     24  C   UNL     1      -7.177  13.141  19.300  0.00  0.00    +0.000 A 
ATOM     25  C   UNL     1      -7.548  12.765  18.007  0.00  0.00    +0.000 A 
ATOM     26  C   UNL     1      -6.591  12.281  17.118  0.00  0.00    +0.000 A 
ATOM     27  C   UNL     1      -5.265  12.164  17.526  0.00  0.00    +0.000 A 
ENDBRANCH  19  22
ENDBRANCH  16  18
ENDBRANCH  11  12
BRANCH   1  29
ATOM     28  C   UNL     1       0.171  11.030  21.541  0.00  0.00    +0.000 C 
ATOM     29  C   UNL     1      -0.139   9.758  21.244  0.00  0.00    +0.000 C 
BRANCH  28  33
ATOM     30  C   UNL     1      -2.209  13.737  23.873  0.00  0.00    +0.000 A 
ATOM     31  C   UNL     1      -1.118  14.193  23.130  0.00  0.00    +0.000 A 
ATOM     32  C   UNL     1      -0.351  13.291  22.383  0.00  0.00    +0.000 A 
ATOM     33  C   UNL     1      -0.651  11.922  22.374  0.00  0.00    +0.000 A 
ATOM     34  C   UNL     1      -1.752  11.476  23.119  0.00  0.00    +0.000 A 
ATOM     35  C   UNL     1      -2.522  12.375  23.868  0.00  0.00    +0.000 A 
BRANCH  30  37
ATOM     36  N   UNL     1      -3.649  15.407  25.237  0.00  0.00    +0.000 NA
ATOM     37  C   UNL     1      -3.006  14.662  24.629  0.00  0.00    +0.000 C 
ENDBRANCH  30  37
ENDBRANCH  28  33
ENDBRANCH   1  29
TORSDOF 6
ENDMDL
MODEL 6
REMARK VINA RESULT:      -7.8      5.116     11.671
REMARK  Name = 
REMARK  6 active torsions:
REMARK  status: ('A' for Active; 'I' for Inactive)
REMARK    1  A    between atoms: C_2  and  C_3
REMARK    2  A    between atoms: C_6  and  C_7
REMARK    3  A    between atoms: C_8  and  C_9
REMARK    4  A    between atoms: N_19  and  C_20
REMARK    5  A    between atoms: C_24  and  N_25
REMARK    6  A    between atoms: C_26  and  C_28
REMARK                            x       y       z     vdW  Elec       q    Type
REMARK                         _______ _______ _______ _____ _____    ______ ____
ROOT
ATOM      1  C   UNL     1      -2.717  12.410  20.226  0.00  0.00    +0.000 A 
ATOM      2  N   UNL     1      -3.851  12.684  20.795  0.00  0.00    +0.000 NA
ATOM      3  C   UNL     1      -3.876  12.931  22.169  0.00  0.00    +0.000 A 
ATOM      4  C   UNL     1      -5.087  13.304  22.757  0.00  0.00    +0.000 A 
ATOM      5  C   UNL     1      -5.150  13.628  24.114  0.00  0.00    +0.000 A 
ATOM      6  C   UNL     1      -4.000  13.563  24.899  0.00  0.00    +0.000 A 
ATOM      7  C   UNL     1      -2.792  13.157  24.331  0.00  0.00    +0.000 A 
ATOM      8  C   UNL     1      -2.738  12.843  22.967  0.00  0.00    +0.000 A 
ATOM      9  C   UNL     1      -1.475  12.436  22.322  0.00  0.00    +0.000 A 
ATOM     10  O   UNL     1      -0.483  12.252  23.024  0.00  0.00    +0.000 OA
ATOM     11  N   UNL     1      -1.516  12.303  20.930  0.00  0.00    +0.000 N 
ENDROOT
BRANCH  11  12
ATOM     12  C   UNL     1      -0.302  11.979  20.260  0.00  0.00    +0.000 A 
ATOM     13  C   UNL     1       0.412  12.982  19.596  0.00  0.00    +0.000 A 
ATOM     14  C   UNL     1       1.480  12.636  18.778  0.00  0.00    +0.000 A 
ATOM     15  C   UNL     1       1.823  11.294  18.611  0.00  0.00    +0.000 A 
ATOM     16  C   UNL     1       1.140  10.280  19.293  0.00  0.00    +0.000 A 
ATOM     17  C   UNL     1       0.087  10.634  20.143  0.00  0.00    +0.000 A 
BRANCH  16  18
ATOM     18  N   UNL     1       1.428   8.904  19.120  0.00  0.00    +0.000 N 
ATOM     19  C   UNL     1       1.746   8.011  20.128  0.00  0.00    +0.000 C 
ATOM     20  O   UNL     1       1.745   8.250  21.332  0.00  0.00    +0.000 OA
ATOM     21  H   UNL     1       1.307   8.534  18.184  0.00  0.00    +0.000 HD
BRANCH  19  22
ATOM     22  C   UNL     1       2.072   6.620  19.712  0.00  0.00    +0.000 A 
ATOM     23  C   UNL     1       1.847   5.508  20.533  0.00  0.00    +0.000 A 
ATOM     24  C   UNL     1       2.149   4.226  20.059  0.00  0.00    +0.000 A 
ATOM     25  C   UNL     1       2.661   4.053  18.772  0.00  0.00    +0.000 A 
ATOM     26  C   UNL     1       2.867   5.157  17.947  0.00  0.00    +0.000 A 
ATOM     27  C   UNL     1       2.569   6.434  18.415  0.00  0.00    +0.000 A 
ENDBRANCH  19  22
ENDBRANCH  16  18
ENDBRANCH  11  12
BRANCH   1  29
ATOM     28  C   UNL     1      -3.410  11.092  18.261  0.00  0.00    +0.000 C 
ATOM     29  C   UNL     1      -2.700  12.117  18.756  0.00  0.00    +0.000 C 
BRANCH  28  33
ATOM     30  C   UNL     1      -3.509  10.039  14.100  0.00  0.00    +0.000 A 
ATOM     31  C   UNL     1      -4.479  10.876  14.655  0.00  0.00    +0.000 A 
ATOM     32  C   UNL     1      -4.432  11.200  16.016  0.00  0.00    +0.000 A 
ATOM     33  C   UNL     1      -3.426  10.686  16.846  0.00  0.00    +0.000 A 
ATOM     34  C   UNL     1      -2.453   9.852  16.278  0.00  0.00    +0.000 A 
ATOM     35  C   UNL     1      -2.498   9.525  14.916  0.00  0.00    +0.000 A 
BRANCH  30  37
ATOM     36  N   UNL     1      -3.576   9.457  11.574  0.00  0.00    +0.000 NA
ATOM     37  C   UNL     1      -3.546   9.716  12.701  0.00  0.00    +0.000 C 
ENDBRANCH  30  37
ENDBRANCH  28  33
ENDBRANCH   1  29
TORSDOF 6
ENDMDL
MODEL 7
REMARK VINA RESULT:      -7.8      4.979     11.139
REMARK  Name = 
REMARK  6 active torsions:
REMARK  status: ('A' for Active; 'I' for Inactive)
REMARK    1  A    between atoms: C_2  and  C_3
REMARK    2  A    between atoms: C_6  and  C_7
REMARK    3  A    between atoms: C_8  and  C_9
REMARK    4  A    between atoms: N_19  and  C_20
REMARK    5  A    between atoms: C_24  and  N_25
REMARK    6  A    between atoms: C_26  and  C_28
REMARK                            x       y       z     vdW  Elec       q    Type
REMARK                         _______ _______ _______ _____ _____    ______ ____
ROOT
ATOM      1  C   UNL     1      -3.118  12.972  20.797  0.00  0.00    +0.000 A 
ATOM      2  N   UNL     1      -4.399  13.125  20.945  0.00  0.00    +0.000 NA
ATOM      3  C   UNL     1      -5.260  12.570  19.996  0.00  0.00    +0.000 A 
ATOM      4  C   UNL     1      -6.637  12.671  20.207  0.00  0.00    +0.000 A 
ATOM      5  C   UNL     1      -7.538  12.074  19.323  0.00  0.00    +0.000 A 
ATOM      6  C   UNL     1      -7.066  11.386  18.207  0.00  0.00    +0.000 A 
ATOM      7  C   UNL     1      -5.693  11.310  17.966  0.00  0.00    +0.000 A 
ATOM      8  C   UNL     1      -4.798  11.904  18.864  0.00  0.00    +0.000 A 
ATOM      9  C   UNL     1      -3.339  11.824  18.660  0.00  0.00    +0.000 A 
ATOM     10  O   UNL     1      -2.912  11.331  17.618  0.00  0.00    +0.000 OA
ATOM     11  N   UNL     1      -2.549  12.317  19.704  0.00  0.00    +0.000 N 
ENDROOT
BRANCH  11  12
ATOM     12  C   UNL     1      -1.136  12.196  19.579  0.00  0.00    +0.000 A 
ATOM     13  C   UNL     1      -0.385  13.282  19.116  0.00  0.00    +0.000 A 
ATOM     14  C   UNL     1       0.956  13.105  18.803  0.00  0.00    +0.000 A 
ATOM     15  C   UNL     1       1.541  11.845  18.935  0.00  0.00    +0.000 A 
ATOM     16  C   UNL     1       0.815  10.755  19.427  0.00  0.00    +0.000 A 
ATOM     17  C   UNL     1      -0.527  10.945  19.774  0.00  0.00    +0.000 A 
BRANCH  16  18
ATOM     18  N   UNL     1       1.357   9.452  19.537  0.00  0.00    +0.000 N 
ATOM     19  C   UNL     1       1.952   8.734  18.513  0.00  0.00    +0.000 C 
ATOM     20  O   UNL     1       2.178   9.145  17.379  0.00  0.00    +0.000 OA
ATOM     21  H   UNL     1       1.382   9.052  20.467  0.00  0.00    +0.000 HD
BRANCH  19  22
ATOM     22  C   UNL     1       2.403   7.353  18.837  0.00  0.00    +0.000 A 
ATOM     23  C   UNL     1       2.086   6.712  20.041  0.00  0.00    +0.000 A 
ATOM     24  C   UNL     1       2.519   5.399  20.260  0.00  0.00    +0.000 A 
ATOM     25  C   UNL     1       3.254   4.726  19.281  0.00  0.00    +0.000 A 
ATOM     26  C   UNL     1       3.552   5.357  18.075  0.00  0.00    +0.000 A 
ATOM     27  C   UNL     1       3.125   6.663  17.854  0.00  0.00    +0.000 A 
ENDBRANCH  19  22
ENDBRANCH  16  18
ENDBRANCH  11  12
BRANCH   1  29
ATOM     28  C   UNL     1      -2.684  14.395  22.764  0.00  0.00    +0.000 C 
ATOM     29  C   UNL     1      -2.197  13.594  21.804  0.00  0.00    +0.000 C 
BRANCH  28  33
ATOM     30  C   UNL     1      -0.283  16.545  25.601  0.00  0.00    +0.000 A 
ATOM     31  C   UNL     1      -0.028  16.629  24.231  0.00  0.00    +0.000 A 
ATOM     32  C   UNL     1      -0.819  15.914  23.324  0.00  0.00    +0.000 A 
ATOM     33  C   UNL     1      -1.866  15.095  23.769  0.00  0.00    +0.000 A 
ATOM     34  C   UNL     1      -2.117  15.021  25.146  0.00  0.00    +0.000 A 
ATOM     35  C   UNL     1      -1.327  15.736  26.057  0.00  0.00    +0.000 A 
BRANCH  30  37
ATOM     36  N   UNL     1       1.161  17.888  27.285  0.00  0.00    +0.000 NA
ATOM     37  C   UNL     1       0.518  17.289  26.533  0.00  0.00    +0.000 C 
ENDBRANCH  30  37
ENDBRANCH  28  33
ENDBRANCH   1  29
TORSDOF 6
ENDMDL
MODEL 8
REMARK VINA RESULT:      -7.7      4.099     10.110
REMARK  Name = 
REMARK  6 active torsions:
REMARK  status: ('A' for Active; 'I' for Inactive)
REMARK    1  A    between atoms: C_2  and  C_3
REMARK    2  A    between atoms: C_6  and  C_7
REMARK    3  A    between atoms: C_8  and  C_9
REMARK    4  A    between atoms: N_19  and  C_20
REMARK    5  A    between atoms: C_24  and  N_25
REMARK    6  A    between atoms: C_26  and  C_28
REMARK                            x       y       z     vdW  Elec       q    Type
REMARK                         _______ _______ _______ _____ _____    ______ ____
ROOT
ATOM      1  C   UNL     1       0.018  13.882  21.670  0.00  0.00    +0.000 A 
ATOM      2  N   UNL     1      -0.039  14.670  22.700  0.00  0.00    +0.000 NA
ATOM      3  C   UNL     1      -1.153  14.604  23.540  0.00  0.00    +0.000 A 
ATOM      4  C   UNL     1      -1.167  15.398  24.689  0.00  0.00    +0.000 A 
ATOM      5  C   UNL     1      -2.227  15.318  25.596  0.00  0.00    +0.000 A 
ATOM      6  C   UNL     1      -3.292  14.455  25.349  0.00  0.00    +0.000 A 
ATOM      7  C   UNL     1      -3.305  13.684  24.186  0.00  0.00    +0.000 A 
ATOM      8  C   UNL     1      -2.234  13.764  23.287  0.00  0.00    +0.000 A 
ATOM      9  C   UNL     1      -2.197  12.946  22.060  0.00  0.00    +0.000 A 
ATOM     10  O   UNL     1      -3.185  12.276  21.764  0.00  0.00    +0.000 OA
ATOM     11  N   UNL     1      -1.007  12.998  21.328  0.00  0.00    +0.000 N 
ENDROOT
BRANCH  11  12
ATOM     12  C   UNL     1      -0.903  12.170  20.173  0.00  0.00    +0.000 A 
ATOM     13  C   UNL     1      -1.807  12.336  19.118  0.00  0.00    +0.000 A 
ATOM     14  C   UNL     1      -1.837  11.405  18.088  0.00  0.00    +0.000 A 
ATOM     15  C   UNL     1      -0.979  10.305  18.119  0.00  0.00    +0.000 A 
ATOM     16  C   UNL     1      -0.047  10.140  19.150  0.00  0.00    +0.000 A 
ATOM     17  C   UNL     1       0.004  11.098  20.168  0.00  0.00    +0.000 A 
BRANCH  16  18
ATOM     18  N   UNL     1       0.812   9.018  19.242  0.00  0.00    +0.000 N 
ATOM     19  C   UNL     1       1.837   8.710  18.364  0.00  0.00    +0.000 C 
ATOM     20  O   UNL     1       2.216   9.402  17.424  0.00  0.00    +0.000 OA
ATOM     21  H   UNL     1       0.712   8.442  20.070  0.00  0.00    +0.000 HD
BRANCH  19  22
ATOM     22  C   UNL     1       2.578   7.444  18.618  0.00  0.00    +0.000 A 
ATOM     23  C   UNL     1       3.648   7.016  17.823  0.00  0.00    +0.000 A 
ATOM     24  C   UNL     1       4.318   5.830  18.145  0.00  0.00    +0.000 A 
ATOM     25  C   UNL     1       3.930   5.081  19.258  0.00  0.00    +0.000 A 
ATOM     26  C   UNL     1       2.878   5.516  20.061  0.00  0.00    +0.000 A 
ATOM     27  C   UNL     1       2.209   6.695  19.744  0.00  0.00    +0.000 A 
ENDBRANCH  19  22
ENDBRANCH  16  18
ENDBRANCH  11  12
BRANCH   1  29
ATOM     28  C   UNL     1       2.311  14.622  21.147  0.00  0.00    +0.000 C 
ATOM     29  C   UNL     1       1.202  13.975  20.755  0.00  0.00    +0.000 C 
BRANCH  28  33
ATOM     30  C   UNL     1       5.885  15.128  18.821  0.00  0.00    +0.000 A 
ATOM     31  C   UNL     1       5.907  15.248  20.212  0.00  0.00    +0.000 A 
ATOM     32  C   UNL     1       4.728  15.087  20.950  0.00  0.00    +0.000 A 
ATOM     33  C   UNL     1       3.509  14.816  20.313  0.00  0.00    +0.000 A 
ATOM     34  C   UNL     1       3.499  14.691  18.917  0.00  0.00    +0.000 A 
ATOM     35  C   UNL     1       4.677  14.853  18.175  0.00  0.00    +0.000 A 
BRANCH  30  37
ATOM     36  N   UNL     1       8.069  15.404  17.452  0.00  0.00    +0.000 NA
ATOM     37  C   UNL     1       7.095  15.279  18.063  0.00  0.00    +0.000 C 
ENDBRANCH  30  37
ENDBRANCH  28  33
ENDBRANCH   1  29
TORSDOF 6
ENDMDL
MODEL 9
REMARK VINA RESULT:      -7.7      4.905     11.165
REMARK  Name = 
REMARK  6 active torsions:
REMARK  status: ('A' for Active; 'I' for Inactive)
REMARK    1  A    between atoms: C_2  and  C_3
REMARK    2  A    between atoms: C_6  and  C_7
REMARK    3  A    between atoms: C_8  and  C_9
REMARK    4  A    between atoms: N_19  and  C_20
REMARK    5  A    between atoms: C_24  and  N_25
REMARK    6  A    between atoms: C_26  and  C_28
REMARK                            x       y       z     vdW  Elec       q    Type
REMARK                         _______ _______ _______ _____ _____    ______ ____
ROOT
ATOM      1  C   UNL     1      -3.170  12.927  20.937  0.00  0.00    +0.000 A 
ATOM      2  N   UNL     1      -4.459  13.013  21.067  0.00  0.00    +0.000 NA
ATOM      3  C   UNL     1      -5.276  12.498  20.059  0.00  0.00    +0.000 A 
ATOM      4  C   UNL     1      -6.660  12.523  20.247  0.00  0.00    +0.000 A 
ATOM      5  C   UNL     1      -7.517  11.958  19.299  0.00  0.00    +0.000 A 
ATOM      6  C   UNL     1      -6.994  11.380  18.144  0.00  0.00    +0.000 A 
ATOM      7  C   UNL     1      -5.615  11.382  17.929  0.00  0.00    +0.000 A 
ATOM      8  C   UNL     1      -4.764  11.942  18.890  0.00  0.00    +0.000 A 
ATOM      9  C   UNL     1      -3.299  11.940  18.713  0.00  0.00    +0.000 A 
ATOM     10  O   UNL     1      -2.831  11.548  17.646  0.00  0.00    +0.000 OA
ATOM     11  N   UNL     1      -2.552  12.383  19.810  0.00  0.00    +0.000 N 
ENDROOT
BRANCH  11  12
ATOM     12  C   UNL     1      -1.132  12.333  19.707  0.00  0.00    +0.000 A 
ATOM     13  C   UNL     1      -0.423  13.477  19.325  0.00  0.00    +0.000 A 
ATOM     14  C   UNL     1       0.930  13.378  19.030  0.00  0.00    +0.000 A 
ATOM     15  C   UNL     1       1.569  12.140  19.100  0.00  0.00    +0.000 A 
ATOM     16  C   UNL     1       0.884  10.991  19.511  0.00  0.00    +0.000 A 
ATOM     17  C   UNL     1      -0.471  11.100  19.841  0.00  0.00    +0.000 A 
BRANCH  16  18
ATOM     18  N   UNL     1       1.483   9.709  19.556  0.00  0.00    +0.000 N 
ATOM     19  C   UNL     1       1.866   8.957  18.459  0.00  0.00    +0.000 C 
ATOM     20  O   UNL     1       1.824   9.316  17.286  0.00  0.00    +0.000 OA
ATOM     21  H   UNL     1       1.724   9.357  20.475  0.00  0.00    +0.000 HD
BRANCH  19  22
ATOM     22  C   UNL     1       2.424   7.605  18.735  0.00  0.00    +0.000 A 
ATOM     23  C   UNL     1       3.384   6.996  17.918  0.00  0.00    +0.000 A 
ATOM     24  C   UNL     1       3.887   5.736  18.262  0.00  0.00    +0.000 A 
ATOM     25  C   UNL     1       3.442   5.091  19.418  0.00  0.00    +0.000 A 
ATOM     26  C   UNL     1       2.502   5.705  20.243  0.00  0.00    +0.000 A 
ATOM     27  C   UNL     1       1.999   6.958  19.904  0.00  0.00    +0.000 A 
ENDBRANCH  19  22
ENDBRANCH  16  18
ENDBRANCH  11  12
BRANCH   1  29
ATOM     28  C   UNL     1      -2.664  14.627  22.650  0.00  0.00    +0.000 C 
ATOM     29  C   UNL     1      -2.296  13.507  22.008  0.00  0.00    +0.000 C 
BRANCH  28  33
ATOM     30  C   UNL     1      -0.339  16.494  25.739  0.00  0.00    +0.000 A 
ATOM     31  C   UNL     1      -1.407  15.650  26.051  0.00  0.00    +0.000 A 
ATOM     32  C   UNL     1      -2.157  15.058  25.028  0.00  0.00    +0.000 A 
ATOM     33  C   UNL     1      -1.862  15.307  23.680  0.00  0.00    +0.000 A 
ATOM     34  C   UNL     1      -0.784  16.151  23.378  0.00  0.00    +0.000 A 
ATOM     35  C   UNL     1      -0.032  16.746  24.400  0.00  0.00    +0.000 A 
BRANCH  30  37
ATOM     36  N   UNL     1       1.068  17.576  27.629  0.00  0.00    +0.000 NA
ATOM     37  C   UNL     1       0.440  17.092  26.787  0.00  0.00    +0.000 C 
ENDBRANCH  30  37
ENDBRANCH  28  33
ENDBRANCH   1  29
TORSDOF 6
ENDMDL
