MODEL 1
REMARK VINA RESULT:      -8.4      0.000      0.000
REMARK  Name = 
REMARK  5 active torsions:
REMARK  status: ('A' for Active; 'I' for Inactive)
REMARK    1  A    between atoms: N_1  and  C_2
REMARK    2  A    between atoms: C_5  and  S_6
REMARK    3  A    between atoms: S_6  and  N_9
REMARK    4  A    between atoms: N_9  and  C_10
REMARK    5  A    between atoms: C_16  and  C_17
REMARK                            x       y       z     vdW  Elec       q    Type
REMARK                         _______ _______ _______ _____ _____    ______ ____
ROOT
ATOM      1  N   UNL     1       2.704   6.251  20.335  0.00  0.00    +0.000 N 
ATOM      2  H   UNL     1       3.585   6.314  20.844  0.00  0.00    +0.000 HD
ENDROOT
BRANCH   1   3
ATOM      3  C   UNL     1       2.239   7.450  19.701  0.00  0.00    +0.000 A 
ATOM      4  C   UNL     1       2.547   7.645  18.360  0.00  0.00    +0.000 A 
ATOM      5  C   UNL     1       2.021   8.756  17.737  0.00  0.00    +0.000 A 
ATOM      6  N   UNL     1       1.232   9.657  18.356  0.00  0.00    +0.000 NA
ATOM      7  C   UNL     1       0.946   9.477  19.653  0.00  0.00    +0.000 A 
ATOM      8  C   UNL     1       0.137  10.412  20.287  0.00  0.00    +0.000 A 
ATOM      9  C   UNL     1      -0.202  10.319  21.645  0.00  0.00    +0.000 A 
ATOM     10  C   UNL     1       0.311   9.252  22.388  0.00  0.00    +0.000 A 
ATOM     11  C   UNL     1       1.121   8.296  21.773  0.00  0.00    +0.000 A 
ATOM     12  C   UNL     1       1.436   8.383  20.397  0.00  0.00    +0.000 A 
BRANCH   9  13
ATOM     13  C   UNL     1      -1.103  11.337  22.297  0.00  0.00    +0.000 C 
ATOM     14  F   UNL     1      -2.086  11.802  21.478  0.00  0.00    +0.000 F 
ATOM     15  F   UNL     1      -1.737  10.842  23.395  0.00  0.00    +0.000 F 
ATOM     16  F   UNL     1      -0.422  12.438  22.723  0.00  0.00    +0.000 F 
ENDBRANCH   9  13
ENDBRANCH   1   3
BRANCH   1  17
ATOM     17  S   UNL     1       2.615   4.796  19.463  0.00  0.00    +0.000 S 
ATOM     18  O   UNL     1       1.527   4.863  18.513  0.00  0.00    +0.000 OA
ATOM     19  O   UNL     1       2.688   3.738  20.450  0.00  0.00    +0.000 OA
BRANCH  17  23
ATOM     20  C   UNL     1       6.577   4.681  17.158  0.00  0.00    +0.000 A 
ATOM     21  C   UNL     1       6.533   5.132  18.481  0.00  0.00    +0.000 A 
ATOM     22  C   UNL     1       5.323   5.194  19.177  0.00  0.00    +0.000 A 
ATOM     23  C   UNL     1       4.146   4.771  18.553  0.00  0.00    +0.000 A 
ATOM     24  C   UNL     1       4.182   4.256  17.256  0.00  0.00    +0.000 A 
ATOM     25  C   UNL     1       5.400   4.206  16.570  0.00  0.00    +0.000 A 
BRANCH  20  26
ATOM     26  N   UNL     1       7.808   4.478  16.528  0.00  0.00    +0.000 N 
ATOM     27  H   UNL     1       8.595   4.354  17.158  0.00  0.00    +0.000 HD
ATOM     28  H   UNL     1       8.011   5.123  15.771  0.00  0.00    +0.000 HD
ENDBRANCH  20  26
ENDBRANCH  17  23
ENDBRANCH   1  17
TORSDOF 5
ENDMDL
MODEL 2
REMARK VINA RESULT:      -8.4      0.086      1.228
REMARK  Name = 
REMARK  5 active torsions:
REMARK  status: ('A' for Active; 'I' for Inactive)
REMARK    1  A    between atoms: N_1  and  C_2
REMARK    2  A    between atoms: C_5  and  S_6
REMARK    3  A    between atoms: S_6  and  N_9
REMARK    4  A    between atoms: N_9  and  C_10
REMARK    5  A    between atoms: C_16  and  C_17
REMARK                            x       y       z     vdW  Elec       q    Type
REMARK                         _______ _______ _______ _____ _____    ______ ____
ROOT
ATOM      1  N   UNL     1       2.739   6.253  20.256  0.00  0.00    +0.000 N 
ATOM      2  H   UNL     1       3.640   6.306  20.729  0.00  0.00    +0.000 HD
ENDROOT
BRANCH   1   3
ATOM      3  C   UNL     1       2.266   7.456  19.634  0.00  0.00    +0.000 A 
ATOM      4  C   UNL     1       2.567   7.664  18.294  0.00  0.00    +0.000 A 
ATOM      5  C   UNL     1       2.034   8.779  17.684  0.00  0.00    +0.000 A 
ATOM      6  N   UNL     1       1.244   9.671  18.314  0.00  0.00    +0.000 NA
ATOM      7  C   UNL     1       0.965   9.477  19.611  0.00  0.00    +0.000 A 
ATOM      8  C   UNL     1       0.155  10.404  20.257  0.00  0.00    +0.000 A 
ATOM      9  C   UNL     1      -0.178  10.297  21.616  0.00  0.00    +0.000 A 
ATOM     10  C   UNL     1       0.343   9.226  22.346  0.00  0.00    +0.000 A 
ATOM     11  C   UNL     1       1.154   8.279  21.719  0.00  0.00    +0.000 A 
ATOM     12  C   UNL     1       1.463   8.379  20.342  0.00  0.00    +0.000 A 
BRANCH   9  13
ATOM     13  C   UNL     1      -1.080  11.306  22.281  0.00  0.00    +0.000 C 
ATOM     14  F   UNL     1      -1.726  10.822  23.377  0.00  0.00    +0.000 F 
ATOM     15  F   UNL     1      -0.404  12.409  22.703  0.00  0.00    +0.000 F 
ATOM     16  F   UNL     1      -2.055  11.762  21.445  0.00  0.00    +0.000 F 
ENDBRANCH   9  13
ENDBRANCH   1   3
BRANCH   1  17
ATOM     17  S   UNL     1       2.594   4.795  19.395  0.00  0.00    +0.000 S 
ATOM     18  O   UNL     1       1.540   4.913  18.413  0.00  0.00    +0.000 OA
ATOM     19  O   UNL     1       2.578   3.747  20.394  0.00  0.00    +0.000 OA
BRANCH  17  23
ATOM     20  C   UNL     1       6.575   4.535  17.135  0.00  0.00    +0.000 A 
ATOM     21  C   UNL     1       5.383   4.118  16.533  0.00  0.00    +0.000 A 
ATOM     22  C   UNL     1       4.172   4.170  17.229  0.00  0.00    +0.000 A 
ATOM     23  C   UNL     1       4.148   4.674  18.533  0.00  0.00    +0.000 A 
ATOM     24  C   UNL     1       5.317   5.155  19.125  0.00  0.00    +0.000 A 
ATOM     25  C   UNL     1       6.522   5.091  18.418  0.00  0.00    +0.000 A 
BRANCH  20  26
ATOM     26  N   UNL     1       7.747   4.622  16.379  0.00  0.00    +0.000 N 
ATOM     27  H   UNL     1       8.603   4.670  16.923  0.00  0.00    +0.000 HD
ATOM     28  H   UNL     1       7.720   5.304  15.629  0.00  0.00    +0.000 HD
ENDBRANCH  20  26
ENDBRANCH  17  23
ENDBRANCH   1  17
TORSDOF 5
ENDMDL
MODEL 3
REMARK VINA RESULT:      -7.9      5.720      8.638
REMARK  Name = 
REMARK  5 active torsions:
REMARK  status: ('A' for Active; 'I' for Inactive)
REMARK    1  A    between atoms: N_1  and  C_2
REMARK    2  A    between atoms: C_5  and  S_6
REMARK    3  A    between atoms: S_6  and  N_9
REMARK    4  A    between atoms: N_9  and  C_10
REMARK    5  A    between atoms: C_16  and  C_17
REMARK                            x       y       z     vdW  Elec       q    Type
REMARK                         _______ _______ _______ _____ _____    ______ ____
ROOT
ATOM      1  N   UNL     1       5.556   3.656  18.865  0.00  0.00    +0.000 N 
ATOM      2  H   UNL     1       6.014   2.746  18.901  0.00  0.00    +0.000 HD
ENDROOT
BRANCH   1   3
ATOM      3  C   UNL     1       6.132   4.633  17.987  0.00  0.00    +0.000 A 
ATOM      4  C   UNL     1       6.670   5.784  18.549  0.00  0.00    +0.000 A 
ATOM      5  C   UNL     1       7.299   6.675  17.706  0.00  0.00    +0.000 A 
ATOM      6  N   UNL     1       7.417   6.491  16.376  0.00  0.00    +0.000 NA
ATOM      7  C   UNL     1       6.884   5.387  15.832  0.00  0.00    +0.000 A 
ATOM      8  C   UNL     1       7.003   5.206  14.459  0.00  0.00    +0.000 A 
ATOM      9  C   UNL     1       6.463   4.094  13.796  0.00  0.00    +0.000 A 
ATOM     10  C   UNL     1       5.765   3.144  14.547  0.00  0.00    +0.000 A 
ATOM     11  C   UNL     1       5.638   3.301  15.928  0.00  0.00    +0.000 A 
ATOM     12  C   UNL     1       6.208   4.411  16.593  0.00  0.00    +0.000 A 
BRANCH   9  13
ATOM     13  C   UNL     1       6.631   3.913  12.308  0.00  0.00    +0.000 C 
ATOM     14  F   UNL     1       7.173   2.714  11.960  0.00  0.00    +0.000 F 
ATOM     15  F   UNL     1       5.449   3.997  11.638  0.00  0.00    +0.000 F 
ATOM     16  F   UNL     1       7.441   4.861  11.757  0.00  0.00    +0.000 F 
ENDBRANCH   9  13
ENDBRANCH   1   3
BRANCH   1  17
ATOM     17  S   UNL     1       3.866   3.479  18.870  0.00  0.00    +0.000 S 
ATOM     18  O   UNL     1       3.447   2.845  20.100  0.00  0.00    +0.000 OA
ATOM     19  O   UNL     1       3.523   2.918  17.580  0.00  0.00    +0.000 OA
BRANCH  17  23
ATOM     20  C   UNL     1       2.301   7.790  18.874  0.00  0.00    +0.000 A 
ATOM     21  C   UNL     1       2.761   7.197  17.693  0.00  0.00    +0.000 A 
ATOM     22  C   UNL     1       3.264   5.893  17.694  0.00  0.00    +0.000 A 
ATOM     23  C   UNL     1       3.279   5.161  18.884  0.00  0.00    +0.000 A 
ATOM     24  C   UNL     1       2.764   5.713  20.058  0.00  0.00    +0.000 A 
ATOM     25  C   UNL     1       2.270   7.021  20.043  0.00  0.00    +0.000 A 
BRANCH  20  26
ATOM     26  N   UNL     1       1.661   9.031  18.831  0.00  0.00    +0.000 N 
ATOM     27  H   UNL     1       1.704   9.564  19.694  0.00  0.00    +0.000 HD
ATOM     28  H   UNL     1       0.731   9.016  18.426  0.00  0.00    +0.000 HD
ENDBRANCH  20  26
ENDBRANCH  17  23
ENDBRANCH   1  17
TORSDOF 5
ENDMDL
MODEL 4
REMARK VINA RESULT:      -7.9      4.861      7.494
REMARK  Name = 
REMARK  5 active torsions:
REMARK  status: ('A' for Active; 'I' for Inactive)
REMARK    1  A    between atoms: N_1  and  C_2
REMARK    2  A    between atoms: C_5  and  S_6
REMARK    3  A    between atoms: S_6  and  N_9
REMARK    4  A    between atoms: N_9  and  C_10
REMARK    5  A    between atoms: C_16  and  C_17
REMARK                            x       y       z     vdW  Elec       q    Type
REMARK                         _______ _______ _______ _____ _____    ______ ____
ROOT
ATOM      1  N   UNL     1       1.778   8.349  21.494  0.00  0.00    +0.000 N 
ATOM      2  H   UNL     1       2.114   7.732  22.232  0.00  0.00    +0.000 HD
ENDROOT
BRANCH   1   3
ATOM      3  C   UNL     1       1.926   7.882  20.146  0.00  0.00    +0.000 A 
ATOM      4  C   UNL     1       2.222   8.812  19.157  0.00  0.00    +0.000 A 
ATOM      5  C   UNL     1       2.449   8.341  17.882  0.00  0.00    +0.000 A 
ATOM      6  N   UNL     1       2.396   7.037  17.546  0.00  0.00    +0.000 NA
ATOM      7  C   UNL     1       2.096   6.140  18.497  0.00  0.00    +0.000 A 
ATOM      8  C   UNL     1       2.036   4.798  18.143  0.00  0.00    +0.000 A 
ATOM      9  C   UNL     1       1.712   3.789  19.063  0.00  0.00    +0.000 A 
ATOM     10  C   UNL     1       1.421   4.157  20.379  0.00  0.00    +0.000 A 
ATOM     11  C   UNL     1       1.480   5.498  20.760  0.00  0.00    +0.000 A 
ATOM     12  C   UNL     1       1.834   6.506  19.833  0.00  0.00    +0.000 A 
BRANCH   9  13
ATOM     13  C   UNL     1       1.681   2.338  18.652  0.00  0.00    +0.000 C 
ATOM     14  F   UNL     1       0.425   1.818  18.577  0.00  0.00    +0.000 F 
ATOM     15  F   UNL     1       2.244   2.132  17.430  0.00  0.00    +0.000 F 
ATOM     16  F   UNL     1       2.364   1.538  19.518  0.00  0.00    +0.000 F 
ENDBRANCH   9  13
ENDBRANCH   1   3
BRANCH   1  17
ATOM     17  S   UNL     1       0.305   9.071  21.936  0.00  0.00    +0.000 S 
ATOM     18  O   UNL     1       0.464   9.773  23.190  0.00  0.00    +0.000 OA
ATOM     19  O   UNL     1      -0.703   8.044  21.772  0.00  0.00    +0.000 OA
BRANCH  17  23
ATOM     20  C   UNL     1      -0.438  12.191  18.659  0.00  0.00    +0.000 A 
ATOM     21  C   UNL     1      -1.137  10.979  18.664  0.00  0.00    +0.000 A 
ATOM     22  C   UNL     1      -0.893  10.014  19.645  0.00  0.00    +0.000 A 
ATOM     23  C   UNL     1       0.039  10.277  20.653  0.00  0.00    +0.000 A 
ATOM     24  C   UNL     1       0.698  11.507  20.701  0.00  0.00    +0.000 A 
ATOM     25  C   UNL     1       0.447  12.460  19.709  0.00  0.00    +0.000 A 
BRANCH  20  26
ATOM     26  N   UNL     1      -0.800  13.204  17.768  0.00  0.00    +0.000 N 
ATOM     27  H   UNL     1      -0.452  13.085  16.822  0.00  0.00    +0.000 HD
ATOM     28  H   UNL     1      -0.668  14.147  18.118  0.00  0.00    +0.000 HD
ENDBRANCH  20  26
ENDBRANCH  17  23
ENDBRANCH   1  17
TORSDOF 5
ENDMDL
MODEL 5
REMARK VINA RESULT:      -7.8      3.961      5.525
REMARK  Name = 
REMARK  5 active torsions:
REMARK  status: ('A' for Active; 'I' for Inactive)
REMARK    1  A    between atoms: N_1  and  C_2
REMARK    2  A    between atoms: C_5  and  S_6
REMARK    3  A    between atoms: S_6  and  N_9
REMARK    4  A    between atoms: N_9  and  C_10
REMARK    5  A    between atoms: C_16  and  C_17
REMARK                            x       y       z     vdW  Elec       q    Type
REMARK                         _______ _______ _______ _____ _____    ______ ____
ROOT
ATOM      1  N   UNL     1       0.863  10.564  20.795  0.00  0.00    +0.000 N 
ATOM      2  H   UNL     1       1.482  10.513  19.987  0.00  0.00    +0.000 HD
ENDROOT
BRANCH   1   3
ATOM      3  C   UNL     1      -0.399  11.218  20.600  0.00  0.00    +0.000 A 
ATOM      4  C   UNL     1      -0.832  12.110  21.573  0.00  0.00    +0.000 A 
ATOM      5  C   UNL     1      -2.002  12.799  21.334  0.00  0.00    +0.000 A 
ATOM      6  N   UNL     1      -2.741  12.653  20.217  0.00  0.00    +0.000 NA
ATOM      7  C   UNL     1      -2.330  11.781  19.284  0.00  0.00    +0.000 A 
ATOM      8  C   UNL     1      -3.100  11.630  18.138  0.00  0.00    +0.000 A 
ATOM      9  C   UNL     1      -2.762  10.730  17.116  0.00  0.00    +0.000 A 
ATOM     10  C   UNL     1      -1.616   9.946  17.271  0.00  0.00    +0.000 A 
ATOM     11  C   UNL     1      -0.823  10.085  18.411  0.00  0.00    +0.000 A 
ATOM     12  C   UNL     1      -1.156  11.013  19.424  0.00  0.00    +0.000 A 
BRANCH   9  13
ATOM     13  C   UNL     1      -3.606  10.608  15.871  0.00  0.00    +0.000 C 
ATOM     14  F   UNL     1      -4.913  10.935  16.063  0.00  0.00    +0.000 F 
ATOM     15  F   UNL     1      -3.165  11.411  14.864  0.00  0.00    +0.000 F 
ATOM     16  F   UNL     1      -3.608   9.343  15.367  0.00  0.00    +0.000 F 
ENDBRANCH   9  13
ENDBRANCH   1   3
BRANCH   1  17
ATOM     17  S   UNL     1       0.883   9.102  21.661  0.00  0.00    +0.000 S 
ATOM     18  O   UNL     1      -0.473   8.682  21.938  0.00  0.00    +0.000 OA
ATOM     19  O   UNL     1       1.845   9.288  22.728  0.00  0.00    +0.000 OA
BRANCH  17  23
ATOM     20  C   UNL     1       2.661   6.115  18.672  0.00  0.00    +0.000 A 
ATOM     21  C   UNL     1       2.196   5.686  19.920  0.00  0.00    +0.000 A 
ATOM     22  C   UNL     1       1.679   6.598  20.844  0.00  0.00    +0.000 A 
ATOM     23  C   UNL     1       1.597   7.952  20.505  0.00  0.00    +0.000 A 
ATOM     24  C   UNL     1       1.995   8.387  19.239  0.00  0.00    +0.000 A 
ATOM     25  C   UNL     1       2.516   7.463  18.328  0.00  0.00    +0.000 A 
BRANCH  20  26
ATOM     26  N   UNL     1       3.030   5.178  17.703  0.00  0.00    +0.000 N 
ATOM     27  H   UNL     1       3.965   5.299  17.326  0.00  0.00    +0.000 HD
ATOM     28  H   UNL     1       2.335   5.015  16.982  0.00  0.00    +0.000 HD
ENDBRANCH  20  26
ENDBRANCH  17  23
ENDBRANCH   1  17
TORSDOF 5
ENDMDL
MODEL 6
REMARK VINA RESULT:      -7.8      5.631      9.025
REMARK  Name = 
REMARK  5 active torsions:
REMARK  status: ('A' for Active; 'I' for Inactive)
REMARK    1  A    between atoms: N_1  and  C_2
REMARK    2  A    between atoms: C_5  and  S_6
REMARK    3  A    between atoms: S_6  and  N_9
REMARK    4  A    between atoms: N_9  and  C_10
REMARK    5  A    between atoms: C_16  and  C_17
REMARK                            x       y       z     vdW  Elec       q    Type
REMARK                         _______ _______ _______ _____ _____    ______ ____
ROOT
ATOM      1  N   UNL     1       4.703   6.857  17.930  0.00  0.00    +0.000 N 
ATOM      2  H   UNL     1       4.932   7.748  18.370  0.00  0.00    +0.000 HD
ENDROOT
BRANCH   1   3
ATOM      3  C   UNL     1       5.806   6.022  17.553  0.00  0.00    +0.000 A 
ATOM      4  C   UNL     1       6.758   5.718  18.518  0.00  0.00    +0.000 A 
ATOM      5  C   UNL     1       7.766   4.844  18.170  0.00  0.00    +0.000 A 
ATOM      6  N   UNL     1       7.876   4.276  16.953  0.00  0.00    +0.000 NA
ATOM      7  C   UNL     1       6.966   4.581  16.017  0.00  0.00    +0.000 A 
ATOM      8  C   UNL     1       7.089   3.997  14.762  0.00  0.00    +0.000 A 
ATOM      9  C   UNL     1       6.197   4.268  13.714  0.00  0.00    +0.000 A 
ATOM     10  C   UNL     1       5.158   5.174  13.941  0.00  0.00    +0.000 A 
ATOM     11  C   UNL     1       5.009   5.769  15.195  0.00  0.00    +0.000 A 
ATOM     12  C   UNL     1       5.897   5.470  16.254  0.00  0.00    +0.000 A 
BRANCH   9  13
ATOM     13  C   UNL     1       6.343   3.598  12.371  0.00  0.00    +0.000 C 
ATOM     14  F   UNL     1       6.711   2.290  12.449  0.00  0.00    +0.000 F 
ATOM     15  F   UNL     1       5.187   3.617  11.652  0.00  0.00    +0.000 F 
ATOM     16  F   UNL     1       7.280   4.201  11.587  0.00  0.00    +0.000 F 
ENDBRANCH   9  13
ENDBRANCH   1   3
BRANCH   1  17
ATOM     17  S   UNL     1       3.372   6.131  18.697  0.00  0.00    +0.000 S 
ATOM     18  O   UNL     1       3.795   5.541  19.948  0.00  0.00    +0.000 OA
ATOM     19  O   UNL     1       2.711   5.341  17.679  0.00  0.00    +0.000 OA
BRANCH  17  23
ATOM     20  C   UNL     1       0.683   9.712  19.678  0.00  0.00    +0.000 A 
ATOM     21  C   UNL     1       1.011   8.774  20.663  0.00  0.00    +0.000 A 
ATOM     22  C   UNL     1       1.808   7.667  20.360  0.00  0.00    +0.000 A 
ATOM     23  C   UNL     1       2.309   7.511  19.064  0.00  0.00    +0.000 A 
ATOM     24  C   UNL     1       2.045   8.472  18.087  0.00  0.00    +0.000 A 
ATOM     25  C   UNL     1       1.241   9.572  18.403  0.00  0.00    +0.000 A 
BRANCH  20  26
ATOM     26  N   UNL     1       0.017  10.890  20.028  0.00  0.00    +0.000 N 
ATOM     27  H   UNL     1      -0.388  10.891  20.959  0.00  0.00    +0.000 HD
ATOM     28  H   UNL     1      -0.620  11.245  19.322  0.00  0.00    +0.000 HD
ENDBRANCH  20  26
ENDBRANCH  17  23
ENDBRANCH   1  17
TORSDOF 5
ENDMDL
MODEL 7
REMARK VINA RESULT:      -7.8      5.599      9.032
REMARK  Name = 
REMARK  5 active torsions:
REMARK  status: ('A' for Active; 'I' for Inactive)
REMARK    1  A    between atoms: N_1  and  C_2
REMARK    2  A    between atoms: C_5  and  S_6
REMARK    3  A    between atoms: S_6  and  N_9
REMARK    4  A    between atoms: N_9  and  C_10
REMARK    5  A    between atoms: C_16  and  C_17
REMARK                            x       y       z     vdW  Elec       q    Type
REMARK                         _______ _______ _______ _____ _____    ______ ____
ROOT
ATOM      1  N   UNL     1       4.732   6.869  18.030  0.00  0.00    +0.000 N 
ATOM      2  H   UNL     1       4.967   7.734  18.514  0.00  0.00    +0.000 HD
ENDROOT
BRANCH   1   3
ATOM      3  C   UNL     1       5.829   6.031  17.640  0.00  0.00    +0.000 A 
ATOM      4  C   UNL     1       6.781   5.706  18.599  0.00  0.00    +0.000 A 
ATOM      5  C   UNL     1       7.781   4.830  18.237  0.00  0.00    +0.000 A 
ATOM      6  N   UNL     1       7.885   4.278  17.012  0.00  0.00    +0.000 NA
ATOM      7  C   UNL     1       6.975   4.602  16.082  0.00  0.00    +0.000 A 
ATOM      8  C   UNL     1       7.092   4.035  14.819  0.00  0.00    +0.000 A 
ATOM      9  C   UNL     1       6.201   4.327  13.776  0.00  0.00    +0.000 A 
ATOM     10  C   UNL     1       5.169   5.238  14.017  0.00  0.00    +0.000 A 
ATOM     11  C   UNL     1       5.027   5.816  15.280  0.00  0.00    +0.000 A 
ATOM     12  C   UNL     1       5.914   5.496  16.333  0.00  0.00    +0.000 A 
BRANCH   9  13
ATOM     13  C   UNL     1       6.340   3.675  12.423  0.00  0.00    +0.000 C 
ATOM     14  F   UNL     1       5.183   3.652  11.706  0.00  0.00    +0.000 F 
ATOM     15  F   UNL     1       7.255   4.302  11.635  0.00  0.00    +0.000 F 
ATOM     16  F   UNL     1       6.748   2.378  12.511  0.00  0.00    +0.000 F 
ENDBRANCH   9  13
ENDBRANCH   1   3
BRANCH   1  17
ATOM     17  S   UNL     1       3.373   6.134  18.735  0.00  0.00    +0.000 S 
ATOM     18  O   UNL     1       3.761   5.462  19.956  0.00  0.00    +0.000 OA
ATOM     19  O   UNL     1       2.708   5.421  17.664  0.00  0.00    +0.000 OA
BRANCH  17  23
ATOM     20  C   UNL     1       0.660   9.670  19.814  0.00  0.00    +0.000 A 
ATOM     21  C   UNL     1       1.152   9.517  18.513  0.00  0.00    +0.000 A 
ATOM     22  C   UNL     1       2.001   8.456  18.188  0.00  0.00    +0.000 A 
ATOM     23  C   UNL     1       2.339   7.517  19.168  0.00  0.00    +0.000 A 
ATOM     24  C   UNL     1       1.804   7.618  20.453  0.00  0.00    +0.000 A 
ATOM     25  C   UNL     1       0.960   8.689  20.765  0.00  0.00    +0.000 A 
BRANCH  20  26
ATOM     26  N   UNL     1      -0.306  10.641  20.087  0.00  0.00    +0.000 N 
ATOM     27  H   UNL     1      -0.040  11.323  20.791  0.00  0.00    +0.000 HD
ATOM     28  H   UNL     1      -1.245  10.281  20.225  0.00  0.00    +0.000 HD
ENDBRANCH  20  26
ENDBRANCH  17  23
ENDBRANCH   1  17
TORSDOF 5
ENDMDL
MODEL 8
REMARK VINA RESULT:      -7.7      4.833      7.490
REMARK  Name = 
REMARK  5 active torsions:
REMARK  status: ('A' for Active; 'I' for Inactive)
REMARK    1  A    between atoms: N_1  and  C_2
REMARK    2  A    between atoms: C_5  and  S_6
REMARK    3  A    between atoms: S_6  and  N_9
REMARK    4  A    between atoms: N_9  and  C_10
REMARK    5  A    between atoms: C_16  and  C_17
REMARK                            x       y       z     vdW  Elec       q    Type
REMARK                         _______ _______ _______ _____ _____    ______ ____
ROOT
ATOM      1  N   UNL     1       1.764   8.493  21.472  0.00  0.00    +0.000 N 
ATOM      2  H   UNL     1       2.191   7.947  22.220  0.00  0.00    +0.000 HD
ENDROOT
BRANCH   1   3
ATOM      3  C   UNL     1       1.909   7.983  20.139  0.00  0.00    +0.000 A 
ATOM      4  C   UNL     1       2.044   8.895  19.099  0.00  0.00    +0.000 A 
ATOM      5  C   UNL     1       2.272   8.395  17.835  0.00  0.00    +0.000 A 
ATOM      6  N   UNL     1       2.367   7.080  17.557  0.00  0.00    +0.000 NA
ATOM      7  C   UNL     1       2.222   6.200  18.558  0.00  0.00    +0.000 A 
ATOM      8  C   UNL     1       2.314   4.844  18.264  0.00  0.00    +0.000 A 
ATOM      9  C   UNL     1       2.159   3.849  19.239  0.00  0.00    +0.000 A 
ATOM     10  C   UNL     1       1.882   4.240  20.552  0.00  0.00    +0.000 A 
ATOM     11  C   UNL     1       1.790   5.595  20.874  0.00  0.00    +0.000 A 
ATOM     12  C   UNL     1       1.975   6.593  19.889  0.00  0.00    +0.000 A 
BRANCH   9  13
ATOM     13  C   UNL     1       2.290   2.387  18.892  0.00  0.00    +0.000 C 
ATOM     14  F   UNL     1       2.273   2.139  17.554  0.00  0.00    +0.000 F 
ATOM     15  F   UNL     1       3.450   1.845  19.357  0.00  0.00    +0.000 F 
ATOM     16  F   UNL     1       1.287   1.634  19.423  0.00  0.00    +0.000 F 
ENDBRANCH   9  13
ENDBRANCH   1   3
BRANCH   1  17
ATOM     17  S   UNL     1       0.240   9.075  21.946  0.00  0.00    +0.000 S 
ATOM     18  O   UNL     1       0.344   9.712  23.240  0.00  0.00    +0.000 OA
ATOM     19  O   UNL     1      -0.688   7.988  21.716  0.00  0.00    +0.000 OA
BRANCH  17  23
ATOM     20  C   UNL     1      -0.610  12.299  18.798  0.00  0.00    +0.000 A 
ATOM     21  C   UNL     1       0.357  12.504  19.789  0.00  0.00    +0.000 A 
ATOM     22  C   UNL     1       0.598  11.535  20.766  0.00  0.00    +0.000 A 
ATOM     23  C   UNL     1      -0.113  10.332  20.735  0.00  0.00    +0.000 A 
ATOM     24  C   UNL     1      -1.033  10.084  19.715  0.00  0.00    +0.000 A 
ATOM     25  C   UNL     1      -1.268  11.066  18.747  0.00  0.00    +0.000 A 
BRANCH  20  26
ATOM     26  N   UNL     1      -0.732  13.205  17.741  0.00  0.00    +0.000 N 
ATOM     27  H   UNL     1      -0.413  12.858  16.842  0.00  0.00    +0.000 HD
ATOM     28  H   UNL     1      -0.395  14.141  17.942  0.00  0.00    +0.000 HD
ENDBRANCH  20  26
ENDBRANCH  17  23
ENDBRANCH   1  17
TORSDOF 5
ENDMDL
MODEL 9
REMARK VINA RESULT:      -7.7      5.625      8.575
REMARK  Name = 
REMARK  5 active torsions:
REMARK  status: ('A' for Active; 'I' for Inactive)
REMARK    1  A    between atoms: N_1  and  C_2
REMARK    2  A    between atoms: C_5  and  S_6
REMARK    3  A    between atoms: S_6  and  N_9
REMARK    4  A    between atoms: N_9  and  C_10
REMARK    5  A    between atoms: C_16  and  C_17
REMARK                            x       y       z     vdW  Elec       q    Type
REMARK                         _______ _______ _______ _____ _____    ______ ____
ROOT
ATOM      1  N   UNL     1       4.369   2.837  18.012  0.00  0.00    +0.000 N 
ATOM      2  H   UNL     1       4.624   1.958  17.564  0.00  0.00    +0.000 HD
ENDROOT
BRANCH   1   3
ATOM      3  C   UNL     1       5.275   3.935  17.839  0.00  0.00    +0.000 A 
ATOM      4  C   UNL     1       5.625   4.680  18.958  0.00  0.00    +0.000 A 
ATOM      5  C   UNL     1       6.563   5.677  18.795  0.00  0.00    +0.000 A 
ATOM      6  N   UNL     1       7.153   5.965  17.618  0.00  0.00    +0.000 NA
ATOM      7  C   UNL     1       6.804   5.255  16.535  0.00  0.00    +0.000 A 
ATOM      8  C   UNL     1       7.410   5.561  15.322  0.00  0.00    +0.000 A 
ATOM      9  C   UNL     1       7.098   4.888  14.132  0.00  0.00    +0.000 A 
ATOM     10  C   UNL     1       6.127   3.884  14.170  0.00  0.00    +0.000 A 
ATOM     11  C   UNL     1       5.508   3.554  15.377  0.00  0.00    +0.000 A 
ATOM     12  C   UNL     1       5.848   4.220  16.578  0.00  0.00    +0.000 A 
BRANCH   9  13
ATOM     13  C   UNL     1       7.793   5.227  12.837  0.00  0.00    +0.000 C 
ATOM     14  F   UNL     1       9.142   5.356  12.958  0.00  0.00    +0.000 F 
ATOM     15  F   UNL     1       7.594   4.281  11.878  0.00  0.00    +0.000 F 
ATOM     16  F   UNL     1       7.353   6.400  12.302  0.00  0.00    +0.000 F 
ENDBRANCH   9  13
ENDBRANCH   1   3
BRANCH   1  17
ATOM     17  S   UNL     1       2.705   3.136  17.849  0.00  0.00    +0.000 S 
ATOM     18  O   UNL     1       1.955   2.093  18.513  0.00  0.00    +0.000 OA
ATOM     19  O   UNL     1       2.494   3.438  16.448  0.00  0.00    +0.000 OA
BRANCH  17  23
ATOM     20  C   UNL     1       2.044   7.046  20.151  0.00  0.00    +0.000 A 
ATOM     21  C   UNL     1       2.307   7.061  18.777  0.00  0.00    +0.000 A 
ATOM     22  C   UNL     1       2.536   5.873  18.078  0.00  0.00    +0.000 A 
ATOM     23  C   UNL     1       2.471   4.652  18.754  0.00  0.00    +0.000 A 
ATOM     24  C   UNL     1       2.145   4.614  20.111  0.00  0.00    +0.000 A 
ATOM     25  C   UNL     1       1.924   5.811  20.799  0.00  0.00    +0.000 A 
BRANCH  20  26
ATOM     26  N   UNL     1       1.666   8.222  20.804  0.00  0.00    +0.000 N 
ATOM     27  H   UNL     1       1.935   9.079  20.330  0.00  0.00    +0.000 HD
ATOM     28  H   UNL     1       1.872   8.243  21.797  0.00  0.00    +0.000 HD
ENDBRANCH  20  26
ENDBRANCH  17  23
ENDBRANCH   1  17
TORSDOF 5
ENDMDL
