MODEL 1
REMARK VINA RESULT:      -7.9      0.000      0.000
REMARK  Name = 
REMARK  4 active torsions:
REMARK  status: ('A' for Active; 'I' for Inactive)
REMARK    1  A    between atoms: C_1  and  O_2
REMARK    2  A    between atoms: O_2  and  C_3
REMARK    3  A    between atoms: N_11  and  N_12
REMARK    4  A    between atoms: C_13  and  C_14
REMARK                            x       y       z     vdW  Elec       q    Type
REMARK                         _______ _______ _______ _____ _____    ______ ____
ROOT
ATOM      1  C   UNL     1       6.053   3.502  12.303  0.00  0.00    +0.000 A 
ATOM      2  C   UNL     1       7.283   4.151  12.168  0.00  0.00    +0.000 A 
ATOM      3  C   UNL     1       7.803   4.902  13.227  0.00  0.00    +0.000 A 
ATOM      4  C   UNL     1       7.105   5.012  14.431  0.00  0.00    +0.000 A 
ATOM      5  N   UNL     1       7.597   5.820  15.463  0.00  0.00    +0.000 N 
ATOM      6  C   UNL     1       6.895   5.980  16.622  0.00  0.00    +0.000 A 
ATOM      7  C   UNL     1       5.717   5.403  16.878  0.00  0.00    +0.000 A 
ATOM      8  C   UNL     1       5.108   4.493  15.852  0.00  0.00    +0.000 A 
ATOM      9  N   UNL     1       4.002   3.823  16.024  0.00  0.00    +0.000 NA
ATOM     10  C   UNL     1       5.862   4.365  14.561  0.00  0.00    +0.000 A 
ATOM     11  C   UNL     1       5.341   3.615  13.499  0.00  0.00    +0.000 A 
ATOM     12  H   UNL     1       8.542   6.176  15.409  0.00  0.00    +0.000 HD
ENDROOT
BRANCH   1  14
ATOM     13  C   UNL     1       4.041   3.012  11.150  0.00  0.00    +0.000 C 
ATOM     14  O   UNL     1       5.434   2.775  11.324  0.00  0.00    +0.000 OA
ENDBRANCH   1  14
BRANCH   9  15
ATOM     15  N   UNL     1       3.432   4.014  17.277  0.00  0.00    +0.000 NA
ATOM     16  C   UNL     1       3.137   2.895  17.858  0.00  0.00    +0.000 C 
BRANCH  16  17
ATOM     17  C   UNL     1       2.552   2.887  19.218  0.00  0.00    +0.000 A 
ATOM     18  C   UNL     1       1.235   3.353  19.384  0.00  0.00    +0.000 A 
ATOM     19  C   UNL     1       0.650   3.392  20.651  0.00  0.00    +0.000 A 
ATOM     20  C   UNL     1       1.371   2.966  21.760  0.00  0.00    +0.000 A 
ATOM     21  C   UNL     1       2.675   2.492  21.605  0.00  0.00    +0.000 A 
ATOM     22  C   UNL     1       3.270   2.449  20.336  0.00  0.00    +0.000 A 
ATOM     23 CL   UNL     1       4.885   1.847  20.243  0.00  0.00    +0.000 Cl
ENDBRANCH  16  17
ENDBRANCH   9  15
TORSDOF 3
ENDMDL
MODEL 2
REMARK VINA RESULT:      -7.7      5.196      6.917
REMARK  Name = 
REMARK  4 active torsions:
REMARK  status: ('A' for Active; 'I' for Inactive)
REMARK    1  A    between atoms: C_1  and  O_2
REMARK    2  A    between atoms: O_2  and  C_3
REMARK    3  A    between atoms: N_11  and  N_12
REMARK    4  A    between atoms: C_13  and  C_14
REMARK                            x       y       z     vdW  Elec       q    Type
REMARK                         _______ _______ _______ _____ _____    ______ ____
ROOT
ATOM      1  C   UNL     1       4.528   4.708  16.876  0.00  0.00    +0.000 A 
ATOM      2  C   UNL     1       4.302   3.330  16.873  0.00  0.00    +0.000 A 
ATOM      3  C   UNL     1       3.416   2.759  17.792  0.00  0.00    +0.000 A 
ATOM      4  C   UNL     1       2.743   3.556  18.720  0.00  0.00    +0.000 A 
ATOM      5  N   UNL     1       1.909   2.974  19.682  0.00  0.00    +0.000 N 
ATOM      6  C   UNL     1       1.292   3.737  20.629  0.00  0.00    +0.000 A 
ATOM      7  C   UNL     1       1.416   5.064  20.728  0.00  0.00    +0.000 A 
ATOM      8  C   UNL     1       2.264   5.798  19.732  0.00  0.00    +0.000 A 
ATOM      9  N   UNL     1       2.397   7.094  19.690  0.00  0.00    +0.000 NA
ATOM     10  C   UNL     1       2.979   4.944  18.727  0.00  0.00    +0.000 A 
ATOM     11  C   UNL     1       3.869   5.514  17.808  0.00  0.00    +0.000 A 
ATOM     12  H   UNL     1       1.650   2.000  19.591  0.00  0.00    +0.000 HD
ENDROOT
BRANCH   1  14
ATOM     13  C   UNL     1       6.578   4.658  15.686  0.00  0.00    +0.000 C 
ATOM     14  O   UNL     1       5.399   5.366  16.052  0.00  0.00    +0.000 OA
ENDBRANCH   1  14
BRANCH   9  15
ATOM     15  N   UNL     1       1.653   7.757  20.659  0.00  0.00    +0.000 NA
ATOM     16  C   UNL     1       1.239   8.915  20.255  0.00  0.00    +0.000 C 
BRANCH  16  17
ATOM     17  C   UNL     1       0.398   9.760  21.132  0.00  0.00    +0.000 A 
ATOM     18  C   UNL     1       0.013   9.249  22.385  0.00  0.00    +0.000 A 
ATOM     19  C   UNL     1      -0.804   9.996  23.236  0.00  0.00    +0.000 A 
ATOM     20  C   UNL     1      -1.241  11.257  22.845  0.00  0.00    +0.000 A 
ATOM     21  C   UNL     1      -0.858  11.777  21.608  0.00  0.00    +0.000 A 
ATOM     22  C   UNL     1      -0.037  11.033  20.748  0.00  0.00    +0.000 A 
ATOM     23 CL   UNL     1       0.387  11.758  19.240  0.00  0.00    +0.000 Cl
ENDBRANCH  16  17
ENDBRANCH   9  15
TORSDOF 3
ENDMDL
MODEL 3
REMARK VINA RESULT:      -7.6      5.476      6.765
REMARK  Name = 
REMARK  4 active torsions:
REMARK  status: ('A' for Active; 'I' for Inactive)
REMARK    1  A    between atoms: C_1  and  O_2
REMARK    2  A    between atoms: O_2  and  C_3
REMARK    3  A    between atoms: N_11  and  N_12
REMARK    4  A    between atoms: C_13  and  C_14
REMARK                            x       y       z     vdW  Elec       q    Type
REMARK                         _______ _______ _______ _____ _____    ______ ____
ROOT
ATOM      1  C   UNL     1       6.771   6.274  16.848  0.00  0.00    +0.000 A 
ATOM      2  C   UNL     1       6.851   4.894  16.656  0.00  0.00    +0.000 A 
ATOM      3  C   UNL     1       5.719   4.091  16.826  0.00  0.00    +0.000 A 
ATOM      4  C   UNL     1       4.495   4.657  17.187  0.00  0.00    +0.000 A 
ATOM      5  N   UNL     1       3.380   3.844  17.423  0.00  0.00    +0.000 N 
ATOM      6  C   UNL     1       2.194   4.381  17.832  0.00  0.00    +0.000 A 
ATOM      7  C   UNL     1       1.987   5.685  18.038  0.00  0.00    +0.000 A 
ATOM      8  C   UNL     1       3.105   6.654  17.789  0.00  0.00    +0.000 A 
ATOM      9  N   UNL     1       2.994   7.950  17.888  0.00  0.00    +0.000 NA
ATOM     10  C   UNL     1       4.419   6.048  17.391  0.00  0.00    +0.000 A 
ATOM     11  C   UNL     1       5.555   6.850  17.222  0.00  0.00    +0.000 A 
ATOM     12  H   UNL     1       3.410   2.868  17.155  0.00  0.00    +0.000 HD
ENDROOT
BRANCH   1  14
ATOM     13  C   UNL     1       7.845   8.214  17.688  0.00  0.00    +0.000 C 
ATOM     14  O   UNL     1       7.820   7.146  16.748  0.00  0.00    +0.000 OA
ENDBRANCH   1  14
BRANCH   9  15
ATOM     15  N   UNL     1       1.714   8.368  18.233  0.00  0.00    +0.000 NA
ATOM     16  C   UNL     1       1.579   9.653  18.152  0.00  0.00    +0.000 C 
BRANCH  16  17
ATOM     17  C   UNL     1       0.276  10.291  18.446  0.00  0.00    +0.000 A 
ATOM     18  C   UNL     1      -0.852   9.876  17.716  0.00  0.00    +0.000 A 
ATOM     19  C   UNL     1      -2.098  10.468  17.936  0.00  0.00    +0.000 A 
ATOM     20  C   UNL     1      -2.228  11.475  18.885  0.00  0.00    +0.000 A 
ATOM     21  C   UNL     1      -1.116  11.888  19.622  0.00  0.00    +0.000 A 
ATOM     22  C   UNL     1       0.138  11.298  19.407  0.00  0.00    +0.000 A 
ATOM     23 CL   UNL     1       1.454  11.873  20.366  0.00  0.00    +0.000 Cl
ENDBRANCH  16  17
ENDBRANCH   9  15
TORSDOF 3
ENDMDL
MODEL 4
REMARK VINA RESULT:      -7.4      5.660      6.923
REMARK  Name = 
REMARK  4 active torsions:
REMARK  status: ('A' for Active; 'I' for Inactive)
REMARK    1  A    between atoms: C_1  and  O_2
REMARK    2  A    between atoms: O_2  and  C_3
REMARK    3  A    between atoms: N_11  and  N_12
REMARK    4  A    between atoms: C_13  and  C_14
REMARK                            x       y       z     vdW  Elec       q    Type
REMARK                         _______ _______ _______ _____ _____    ______ ____
ROOT
ATOM      1  C   UNL     1       5.170   5.328  16.236  0.00  0.00    +0.000 A 
ATOM      2  C   UNL     1       5.224   4.032  16.753  0.00  0.00    +0.000 A 
ATOM      3  C   UNL     1       4.474   3.691  17.883  0.00  0.00    +0.000 A 
ATOM      4  C   UNL     1       3.661   4.638  18.508  0.00  0.00    +0.000 A 
ATOM      5  N   UNL     1       2.965   4.313  19.678  0.00  0.00    +0.000 N 
ATOM      6  C   UNL     1       2.213   5.247  20.329  0.00  0.00    +0.000 A 
ATOM      7  C   UNL     1       2.070   6.514  19.930  0.00  0.00    +0.000 A 
ATOM      8  C   UNL     1       2.750   6.967  18.670  0.00  0.00    +0.000 A 
ATOM      9  N   UNL     1       2.622   8.156  18.150  0.00  0.00    +0.000 NA
ATOM     10  C   UNL     1       3.616   5.947  17.991  0.00  0.00    +0.000 A 
ATOM     11  C   UNL     1       4.370   6.287  16.861  0.00  0.00    +0.000 A 
ATOM     12  H   UNL     1       2.904   3.346  19.969  0.00  0.00    +0.000 HD
ENDROOT
BRANCH   1  14
ATOM     13  C   UNL     1       6.884   4.899  14.657  0.00  0.00    +0.000 C 
ATOM     14  O   UNL     1       5.888   5.780  15.164  0.00  0.00    +0.000 OA
ENDBRANCH   1  14
BRANCH   9  15
ATOM     15  N   UNL     1       1.765   8.983  18.868  0.00  0.00    +0.000 NA
ATOM     16  C   UNL     1       0.924   9.601  18.103  0.00  0.00    +0.000 C 
BRANCH  16  17
ATOM     17  C   UNL     1      -0.097  10.502  18.684  0.00  0.00    +0.000 A 
ATOM     18  C   UNL     1       0.243  11.252  19.824  0.00  0.00    +0.000 A 
ATOM     19  C   UNL     1      -0.695  12.094  20.426  0.00  0.00    +0.000 A 
ATOM     20  C   UNL     1      -1.976  12.195  19.896  0.00  0.00    +0.000 A 
ATOM     21  C   UNL     1      -2.321  11.462  18.759  0.00  0.00    +0.000 A 
ATOM     22  C   UNL     1      -1.385  10.615  18.148  0.00  0.00    +0.000 A 
ATOM     23 CL   UNL     1      -1.901   9.749  16.747  0.00  0.00    +0.000 Cl
ENDBRANCH  16  17
ENDBRANCH   9  15
TORSDOF 3
ENDMDL
MODEL 5
REMARK VINA RESULT:      -7.3      1.330      1.441
REMARK  Name = 
REMARK  4 active torsions:
REMARK  status: ('A' for Active; 'I' for Inactive)
REMARK    1  A    between atoms: C_1  and  O_2
REMARK    2  A    between atoms: O_2  and  C_3
REMARK    3  A    between atoms: N_11  and  N_12
REMARK    4  A    between atoms: C_13  and  C_14
REMARK                            x       y       z     vdW  Elec       q    Type
REMARK                         _______ _______ _______ _____ _____    ______ ____
ROOT
ATOM      1  C   UNL     1       5.720   3.332  12.019  0.00  0.00    +0.000 A 
ATOM      2  C   UNL     1       6.865   4.041  11.648  0.00  0.00    +0.000 A 
ATOM      3  C   UNL     1       7.577   4.779  12.598  0.00  0.00    +0.000 A 
ATOM      4  C   UNL     1       7.158   4.814  13.930  0.00  0.00    +0.000 A 
ATOM      5  N   UNL     1       7.834   5.608  14.864  0.00  0.00    +0.000 N 
ATOM      6  C   UNL     1       7.400   5.695  16.154  0.00  0.00    +0.000 A 
ATOM      7  C   UNL     1       6.329   5.057  16.636  0.00  0.00    +0.000 A 
ATOM      8  C   UNL     1       5.543   4.155  15.729  0.00  0.00    +0.000 A 
ATOM      9  N   UNL     1       4.529   3.429  16.109  0.00  0.00    +0.000 NA
ATOM     10  C   UNL     1       5.999   4.107  14.300  0.00  0.00    +0.000 A 
ATOM     11  C   UNL     1       5.285   3.371  13.346  0.00  0.00    +0.000 A 
ATOM     12  H   UNL     1       8.730   6.009  14.620  0.00  0.00    +0.000 HD
ENDROOT
BRANCH   1  14
ATOM     13  C   UNL     1       3.625   3.131  10.931  0.00  0.00    +0.000 C 
ATOM     14  O   UNL     1       4.928   2.612  11.168  0.00  0.00    +0.000 OA
ENDBRANCH   1  14
BRANCH   9  15
ATOM     15  N   UNL     1       4.241   3.550  17.463  0.00  0.00    +0.000 NA
ATOM     16  C   UNL     1       2.977   3.422  17.711  0.00  0.00    +0.000 C 
BRANCH  16  17
ATOM     17  C   UNL     1       2.474   3.484  19.101  0.00  0.00    +0.000 A 
ATOM     18  C   UNL     1       2.023   2.295  19.704  0.00  0.00    +0.000 A 
ATOM     19  C   UNL     1       1.513   2.307  21.004  0.00  0.00    +0.000 A 
ATOM     20  C   UNL     1       1.450   3.502  21.712  0.00  0.00    +0.000 A 
ATOM     21  C   UNL     1       1.903   4.685  21.126  0.00  0.00    +0.000 A 
ATOM     22  C   UNL     1       2.417   4.681  19.822  0.00  0.00    +0.000 A 
ATOM     23 CL   UNL     1       2.954   6.192  19.182  0.00  0.00    +0.000 Cl
ENDBRANCH  16  17
ENDBRANCH   9  15
TORSDOF 3
ENDMDL
MODEL 6
REMARK VINA RESULT:      -7.2      6.281      8.729
REMARK  Name = 
REMARK  4 active torsions:
REMARK  status: ('A' for Active; 'I' for Inactive)
REMARK    1  A    between atoms: C_1  and  O_2
REMARK    2  A    between atoms: O_2  and  C_3
REMARK    3  A    between atoms: N_11  and  N_12
REMARK    4  A    between atoms: C_13  and  C_14
REMARK                            x       y       z     vdW  Elec       q    Type
REMARK                         _______ _______ _______ _____ _____    ______ ____
ROOT
ATOM      1  C   UNL     1      -0.628  10.885  21.846  0.00  0.00    +0.000 A 
ATOM      2  C   UNL     1      -0.775  11.906  20.904  0.00  0.00    +0.000 A 
ATOM      3  C   UNL     1      -0.201  11.783  19.635  0.00  0.00    +0.000 A 
ATOM      4  C   UNL     1       0.522  10.639  19.291  0.00  0.00    +0.000 A 
ATOM      5  N   UNL     1       1.152  10.548  18.043  0.00  0.00    +0.000 N 
ATOM      6  C   UNL     1       1.908   9.460  17.718  0.00  0.00    +0.000 A 
ATOM      7  C   UNL     1       2.114   8.414  18.524  0.00  0.00    +0.000 A 
ATOM      8  C   UNL     1       1.463   8.391  19.876  0.00  0.00    +0.000 A 
ATOM      9  N   UNL     1       1.535   7.394  20.713  0.00  0.00    +0.000 NA
ATOM     10  C   UNL     1       0.677   9.615  20.244  0.00  0.00    +0.000 A 
ATOM     11  C   UNL     1       0.104   9.742  21.516  0.00  0.00    +0.000 A 
ATOM     12  H   UNL     1       0.933  11.226  17.325  0.00  0.00    +0.000 HD
ENDROOT
BRANCH   1  14
ATOM     13  C   UNL     1      -2.239  11.754  23.352  0.00  0.00    +0.000 C 
ATOM     14  O   UNL     1      -1.111  10.916  23.125  0.00  0.00    +0.000 OA
ENDBRANCH   1  14
BRANCH   9  15
ATOM     15  N   UNL     1       2.268   6.318  20.225  0.00  0.00    +0.000 NA
ATOM     16  C   UNL     1       1.510   5.355  19.807  0.00  0.00    +0.000 C 
BRANCH  16  17
ATOM     17  C   UNL     1       2.103   4.134  19.217  0.00  0.00    +0.000 A 
ATOM     18  C   UNL     1       2.276   4.080  17.823  0.00  0.00    +0.000 A 
ATOM     19  C   UNL     1       2.805   2.939  17.216  0.00  0.00    +0.000 A 
ATOM     20  C   UNL     1       3.166   1.845  17.995  0.00  0.00    +0.000 A 
ATOM     21  C   UNL     1       3.007   1.892  19.381  0.00  0.00    +0.000 A 
ATOM     22  C   UNL     1       2.478   3.035  19.998  0.00  0.00    +0.000 A 
ATOM     23 CL   UNL     1       2.320   3.002  21.717  0.00  0.00    +0.000 Cl
ENDBRANCH  16  17
ENDBRANCH   9  15
TORSDOF 3
ENDMDL
MODEL 7
REMARK VINA RESULT:      -7.2      6.033      7.829
REMARK  Name = 
REMARK  4 active torsions:
REMARK  status: ('A' for Active; 'I' for Inactive)
REMARK    1  A    between atoms: C_1  and  O_2
REMARK    2  A    between atoms: O_2  and  C_3
REMARK    3  A    between atoms: N_11  and  N_12
REMARK    4  A    between atoms: C_13  and  C_14
REMARK                            x       y       z     vdW  Elec       q    Type
REMARK                         _______ _______ _______ _____ _____    ______ ____
ROOT
ATOM      1  C   UNL     1       3.151   3.380  20.198  0.00  0.00    +0.000 A 
ATOM      2  C   UNL     1       3.934   3.096  19.077  0.00  0.00    +0.000 A 
ATOM      3  C   UNL     1       4.204   4.094  18.134  0.00  0.00    +0.000 A 
ATOM      4  C   UNL     1       3.700   5.384  18.302  0.00  0.00    +0.000 A 
ATOM      5  N   UNL     1       3.916   6.362  17.324  0.00  0.00    +0.000 N 
ATOM      6  C   UNL     1       3.379   7.610  17.449  0.00  0.00    +0.000 A 
ATOM      7  C   UNL     1       2.626   8.009  18.478  0.00  0.00    +0.000 A 
ATOM      8  C   UNL     1       2.352   7.051  19.601  0.00  0.00    +0.000 A 
ATOM      9  N   UNL     1       1.693   7.354  20.685  0.00  0.00    +0.000 NA
ATOM     10  C   UNL     1       2.902   5.666  19.428  0.00  0.00    +0.000 A 
ATOM     11  C   UNL     1       2.631   4.665  20.369  0.00  0.00    +0.000 A 
ATOM     12  H   UNL     1       4.588   6.189  16.587  0.00  0.00    +0.000 HD
ENDROOT
BRANCH   1  14
ATOM     13  C   UNL     1       1.481   2.611  21.694  0.00  0.00    +0.000 C 
ATOM     14  O   UNL     1       2.792   2.475  21.158  0.00  0.00    +0.000 OA
ENDBRANCH   1  14
BRANCH   9  15
ATOM     15  N   UNL     1       1.272   8.678  20.722  0.00  0.00    +0.000 NA
ATOM     16  C   UNL     1       0.110   8.808  21.277  0.00  0.00    +0.000 C 
BRANCH  16  17
ATOM     17  C   UNL     1      -0.497  10.149  21.443  0.00  0.00    +0.000 A 
ATOM     18  C   UNL     1      -0.676  10.646  22.747  0.00  0.00    +0.000 A 
ATOM     19  C   UNL     1      -1.270  11.892  22.956  0.00  0.00    +0.000 A 
ATOM     20  C   UNL     1      -1.687  12.652  21.869  0.00  0.00    +0.000 A 
ATOM     21  C   UNL     1      -1.506  12.172  20.571  0.00  0.00    +0.000 A 
ATOM     22  C   UNL     1      -0.910  10.921  20.352  0.00  0.00    +0.000 A 
ATOM     23 CL   UNL     1      -0.725  10.412  18.713  0.00  0.00    +0.000 Cl
ENDBRANCH  16  17
ENDBRANCH   9  15
TORSDOF 3
ENDMDL
MODEL 8
REMARK VINA RESULT:      -7.1      5.122      6.399
REMARK  Name = 
REMARK  4 active torsions:
REMARK  status: ('A' for Active; 'I' for Inactive)
REMARK    1  A    between atoms: C_1  and  O_2
REMARK    2  A    between atoms: O_2  and  C_3
REMARK    3  A    between atoms: N_11  and  N_12
REMARK    4  A    between atoms: C_13  and  C_14
REMARK                            x       y       z     vdW  Elec       q    Type
REMARK                         _______ _______ _______ _____ _____    ______ ____
ROOT
ATOM      1  C   UNL     1       6.618   5.887  16.642  0.00  0.00    +0.000 A 
ATOM      2  C   UNL     1       6.590   4.525  16.335  0.00  0.00    +0.000 A 
ATOM      3  C   UNL     1       5.414   3.788  16.507  0.00  0.00    +0.000 A 
ATOM      4  C   UNL     1       4.255   4.401  16.985  0.00  0.00    +0.000 A 
ATOM      5  N   UNL     1       3.099   3.647  17.221  0.00  0.00    +0.000 N 
ATOM      6  C   UNL     1       1.979   4.224  17.741  0.00  0.00    +0.000 A 
ATOM      7  C   UNL     1       1.875   5.517  18.063  0.00  0.00    +0.000 A 
ATOM      8  C   UNL     1       3.045   6.428  17.827  0.00  0.00    +0.000 A 
ATOM      9  N   UNL     1       3.031   7.715  18.035  0.00  0.00    +0.000 NA
ATOM     10  C   UNL     1       4.288   5.772  17.303  0.00  0.00    +0.000 A 
ATOM     11  C   UNL     1       5.468   6.508  17.132  0.00  0.00    +0.000 A 
ATOM     12  H   UNL     1       3.046   2.697  16.874  0.00  0.00    +0.000 HD
ENDROOT
BRANCH   1  14
ATOM     13  C   UNL     1       7.787   7.776  17.470  0.00  0.00    +0.000 C 
ATOM     14  O   UNL     1       7.719   6.693  16.549  0.00  0.00    +0.000 OA
ENDBRANCH   1  14
BRANCH   9  15
ATOM     15  N   UNL     1       1.805   8.187  18.489  0.00  0.00    +0.000 NA
ATOM     16  C   UNL     1       1.865   9.421  18.874  0.00  0.00    +0.000 C 
BRANCH  16  17
ATOM     17  C   UNL     1       0.652  10.117  19.358  0.00  0.00    +0.000 A 
ATOM     18  C   UNL     1      -0.191  10.729  18.413  0.00  0.00    +0.000 A 
ATOM     19  C   UNL     1      -1.332  11.422  18.822  0.00  0.00    +0.000 A 
ATOM     20  C   UNL     1      -1.642  11.509  20.175  0.00  0.00    +0.000 A 
ATOM     21  C   UNL     1      -0.817  10.897  21.120  0.00  0.00    +0.000 A 
ATOM     22  C   UNL     1       0.330  10.199  20.717  0.00  0.00    +0.000 A 
ATOM     23 CL   UNL     1       1.288   9.474  21.957  0.00  0.00    +0.000 Cl
ENDBRANCH  16  17
ENDBRANCH   9  15
TORSDOF 3
ENDMDL
MODEL 9
REMARK VINA RESULT:      -7.1      6.891      8.932
REMARK  Name = 
REMARK  4 active torsions:
REMARK  status: ('A' for Active; 'I' for Inactive)
REMARK    1  A    between atoms: C_1  and  O_2
REMARK    2  A    between atoms: O_2  and  C_3
REMARK    3  A    between atoms: N_11  and  N_12
REMARK    4  A    between atoms: C_13  and  C_14
REMARK                            x       y       z     vdW  Elec       q    Type
REMARK                         _______ _______ _______ _____ _____    ______ ____
ROOT
ATOM      1  C   UNL     1      -3.075  10.626  16.924  0.00  0.00    +0.000 A 
ATOM      2  C   UNL     1      -3.598  11.495  17.883  0.00  0.00    +0.000 A 
ATOM      3  C   UNL     1      -2.851  11.826  19.018  0.00  0.00    +0.000 A 
ATOM      4  C   UNL     1      -1.573  11.296  19.206  0.00  0.00    +0.000 A 
ATOM      5  N   UNL     1      -0.856  11.575  20.376  0.00  0.00    +0.000 N 
ATOM      6  C   UNL     1       0.369  11.017  20.596  0.00  0.00    +0.000 A 
ATOM      7  C   UNL     1       0.983  10.182  19.752  0.00  0.00    +0.000 A 
ATOM      8  C   UNL     1       0.317   9.834  18.452  0.00  0.00    +0.000 A 
ATOM      9  N   UNL     1       0.854   9.090  17.525  0.00  0.00    +0.000 NA
ATOM     10  C   UNL     1      -1.052  10.411  18.243  0.00  0.00    +0.000 A 
ATOM     11  C   UNL     1      -1.803  10.080  17.109  0.00  0.00    +0.000 A 
ATOM     12  H   UNL     1      -1.182  12.303  20.998  0.00  0.00    +0.000 HD
ENDROOT
BRANCH   1  14
ATOM     13  C   UNL     1      -2.969  10.178  14.599  0.00  0.00    +0.000 C 
ATOM     14  O   UNL     1      -3.731  10.205  15.800  0.00  0.00    +0.000 OA
ENDBRANCH   1  14
BRANCH   9  15
ATOM     15  N   UNL     1       2.134   8.653  17.842  0.00  0.00    +0.000 NA
ATOM     16  C   UNL     1       2.227   7.361  17.840  0.00  0.00    +0.000 C 
BRANCH  16  17
ATOM     17  C   UNL     1       3.522   6.701  18.119  0.00  0.00    +0.000 A 
ATOM     18  C   UNL     1       4.612   6.982  17.276  0.00  0.00    +0.000 A 
ATOM     19  C   UNL     1       5.847   6.362  17.481  0.00  0.00    +0.000 A 
ATOM     20  C   UNL     1       6.003   5.459  18.527  0.00  0.00    +0.000 A 
ATOM     21  C   UNL     1       4.930   5.180  19.375  0.00  0.00    +0.000 A 
ATOM     22  C   UNL     1       3.687   5.800  19.176  0.00  0.00    +0.000 A 
ATOM     23 CL   UNL     1       2.420   5.394  20.276  0.00  0.00    +0.000 Cl
ENDBRANCH  16  17
ENDBRANCH   9  15
TORSDOF 3
ENDMDL
