MODEL 1
REMARK VINA RESULT:      -8.3      0.000      0.000
REMARK  Name = 
REMARK  7 active torsions:
REMARK  status: ('A' for Active; 'I' for Inactive)
REMARK    1  A    between atoms: C_3  and  O_4
REMARK    2  A    between atoms: C_5  and  C_6
REMARK    3  A    between atoms: C_6  and  N_7
REMARK    4  A    between atoms: C_6  and  C_15
REMARK    5  A    between atoms: N_7  and  C_8
REMARK    6  A    between atoms: C_8  and  C_9
REMARK    7  A    between atoms: C_18  and  N_19
REMARK                            x       y       z     vdW  Elec       q    Type
REMARK                         _______ _______ _______ _____ _____    ______ ____
ROOT
ATOM      1  C   UNL     1       6.059   5.885  17.249  0.00  0.00    +0.000 C 
ENDROOT
BRANCH   1   5
ATOM      2  O   UNL     1       1.908   7.265  19.381  0.00  0.00    +0.000 OA
ATOM      3  C   UNL     1       2.714   6.354  19.230  0.00  0.00    +0.000 C 
ATOM      4  C   UNL     1       3.843   6.526  18.271  0.00  0.00    +0.000 C 
ATOM      5  C   UNL     1       4.876   5.666  18.192  0.00  0.00    +0.000 C 
ATOM      6  C   UNL     1       4.845   4.469  19.080  0.00  0.00    +0.000 C 
ATOM      7  O   UNL     1       5.829   3.776  19.299  0.00  0.00    +0.000 OA
ATOM      8  C   UNL     1       3.582   4.113  19.759  0.00  0.00    +0.000 A 
ATOM      9  C   UNL     1       3.417   2.836  20.313  0.00  0.00    +0.000 A 
ATOM     10  C   UNL     1       2.258   2.529  21.029  0.00  0.00    +0.000 A 
ATOM     11  C   UNL     1       1.275   3.499  21.216  0.00  0.00    +0.000 A 
ATOM     12  C   UNL     1       1.429   4.767  20.651  0.00  0.00    +0.000 A 
ATOM     13  C   UNL     1       2.576   5.059  19.901  0.00  0.00    +0.000 A 
BRANCH   4  14
ATOM     14  O   UNL     1       3.779   7.669  17.487  0.00  0.00    +0.000 OA
ATOM     15  H   UNL     1       4.694   7.804  17.151  0.00  0.00    +0.000 HD
ENDBRANCH   4  14
ENDBRANCH   1   5
BRANCH   1  16
ATOM     16  C   UNL     1       7.033   7.011  17.647  0.00  0.00    +0.000 A 
ATOM     17  C   UNL     1       6.938   8.280  17.051  0.00  0.00    +0.000 A 
ATOM     18  C   UNL     1       7.720   9.348  17.518  0.00  0.00    +0.000 A 
ATOM     19  C   UNL     1       8.602   9.145  18.588  0.00  0.00    +0.000 A 
ATOM     20  C   UNL     1       8.741   7.887  19.171  0.00  0.00    +0.000 A 
ATOM     21  C   UNL     1       7.972   6.828  18.686  0.00  0.00    +0.000 A 
BRANCH  19  22
ATOM     22  N   UNL     1       9.378  10.273  19.127  0.00  0.00    +0.000 N 
ATOM     23  O   UNL     1       9.965  11.001  18.317  0.00  0.00    +0.000 OA
ATOM     24  O   UNL     1       9.390  10.429  20.355  0.00  0.00    +0.000 OA
ENDBRANCH  19  22
ENDBRANCH   1  16
BRANCH   1  25
ATOM     25  N   UNL     1       5.605   5.985  15.835  0.00  0.00    +0.000 NA
ATOM     26  H   UNL     1       6.368   6.346  15.267  0.00  0.00    +0.000 HD
BRANCH  25  27
ATOM     27  C   UNL     1       5.170   4.687  15.300  0.00  0.00    +0.000 C 
BRANCH  27  28
ATOM     28  C   UNL     1       5.842   4.305  13.998  0.00  0.00    +0.000 A 
ATOM     29  C   UNL     1       5.190   3.424  13.115  0.00  0.00    +0.000 A 
ATOM     30  C   UNL     1       5.752   3.099  11.879  0.00  0.00    +0.000 A 
ATOM     31  C   UNL     1       6.972   3.657  11.505  0.00  0.00    +0.000 A 
ATOM     32  C   UNL     1       7.626   4.538  12.365  0.00  0.00    +0.000 A 
ATOM     33  C   UNL     1       7.062   4.865  13.601  0.00  0.00    +0.000 A 
ENDBRANCH  27  28
ENDBRANCH  25  27
ENDBRANCH   1  25
TORSDOF 7
ENDMDL
MODEL 2
REMARK VINA RESULT:      -8.0      3.441      6.275
REMARK  Name = 
REMARK  7 active torsions:
REMARK  status: ('A' for Active; 'I' for Inactive)
REMARK    1  A    between atoms: C_3  and  O_4
REMARK    2  A    between atoms: C_5  and  C_6
REMARK    3  A    between atoms: C_6  and  N_7
REMARK    4  A    between atoms: C_6  and  C_15
REMARK    5  A    between atoms: N_7  and  C_8
REMARK    6  A    between atoms: C_8  and  C_9
REMARK    7  A    between atoms: C_18  and  N_19
REMARK                            x       y       z     vdW  Elec       q    Type
REMARK                         _______ _______ _______ _____ _____    ______ ____
ROOT
ATOM      1  C   UNL     1       2.285   6.070  18.778  0.00  0.00    +0.000 C 
ENDROOT
BRANCH   1   5
ATOM      2  O   UNL     1       2.092  10.866  17.979  0.00  0.00    +0.000 OA
ATOM      3  C   UNL     1       1.784   9.953  18.737  0.00  0.00    +0.000 C 
ATOM      4  C   UNL     1       2.060   8.544  18.336  0.00  0.00    +0.000 C 
ATOM      5  C   UNL     1       1.940   7.503  19.182  0.00  0.00    +0.000 C 
ATOM      6  C   UNL     1       1.463   7.792  20.565  0.00  0.00    +0.000 C 
ATOM      7  O   UNL     1       1.574   6.997  21.488  0.00  0.00    +0.000 OA
ATOM      8  C   UNL     1       0.858   9.108  20.854  0.00  0.00    +0.000 A 
ATOM      9  C   UNL     1       0.100   9.294  22.019  0.00  0.00    +0.000 A 
ATOM     10  C   UNL     1      -0.399  10.559  22.335  0.00  0.00    +0.000 A 
ATOM     11  C   UNL     1      -0.124  11.645  21.505  0.00  0.00    +0.000 A 
ATOM     12  C   UNL     1       0.615  11.460  20.334  0.00  0.00    +0.000 A 
ATOM     13  C   UNL     1       1.082  10.181  20.002  0.00  0.00    +0.000 A 
BRANCH   4  14
ATOM     14  O   UNL     1       2.496   8.379  17.029  0.00  0.00    +0.000 OA
ATOM     15  H   UNL     1       1.727   8.627  16.467  0.00  0.00    +0.000 HD
ENDBRANCH   4  14
ENDBRANCH   1   5
BRANCH   1  16
ATOM     16  C   UNL     1       3.759   5.815  18.408  0.00  0.00    +0.000 A 
ATOM     17  C   UNL     1       4.713   5.569  19.409  0.00  0.00    +0.000 A 
ATOM     18  C   UNL     1       6.021   5.187  19.070  0.00  0.00    +0.000 A 
ATOM     19  C   UNL     1       6.375   5.052  17.720  0.00  0.00    +0.000 A 
ATOM     20  C   UNL     1       5.457   5.328  16.709  0.00  0.00    +0.000 A 
ATOM     21  C   UNL     1       4.165   5.723  17.058  0.00  0.00    +0.000 A 
BRANCH  19  22
ATOM     22  N   UNL     1       7.725   4.591  17.356  0.00  0.00    +0.000 N 
ATOM     23  O   UNL     1       7.976   4.454  16.152  0.00  0.00    +0.000 OA
ATOM     24  O   UNL     1       8.526   4.376  18.274  0.00  0.00    +0.000 OA
ENDBRANCH  19  22
ENDBRANCH   1  16
BRANCH   1  25
ATOM     25  N   UNL     1       1.334   5.559  17.755  0.00  0.00    +0.000 NA
ATOM     26  H   UNL     1       1.643   5.863  16.834  0.00  0.00    +0.000 HD
BRANCH  25  27
ATOM     27  C   UNL     1       1.232   4.093  17.775  0.00  0.00    +0.000 C 
BRANCH  27  28
ATOM     28  C   UNL     1       1.637   3.469  19.095  0.00  0.00    +0.000 A 
ATOM     29  C   UNL     1       2.805   2.687  19.162  0.00  0.00    +0.000 A 
ATOM     30  C   UNL     1       3.240   2.149  20.374  0.00  0.00    +0.000 A 
ATOM     31  C   UNL     1       2.517   2.390  21.539  0.00  0.00    +0.000 A 
ATOM     32  C   UNL     1       1.361   3.169  21.490  0.00  0.00    +0.000 A 
ATOM     33  C   UNL     1       0.927   3.711  20.277  0.00  0.00    +0.000 A 
ENDBRANCH  27  28
ENDBRANCH  25  27
ENDBRANCH   1  25
TORSDOF 7
ENDMDL
MODEL 3
REMARK VINA RESULT:      -7.8      0.293      1.377
REMARK  Name = 
REMARK  7 active torsions:
REMARK  status: ('A' for Active; 'I' for Inactive)
REMARK    1  A    between atoms: C_3  and  O_4
REMARK    2  A    between atoms: C_5  and  C_6
REMARK    3  A    between atoms: C_6  and  N_7
REMARK    4  A    between atoms: C_6  and  C_15
REMARK    5  A    between atoms: N_7  and  C_8
REMARK    6  A    between atoms: C_8  and  C_9
REMARK    7  A    between atoms: C_18  and  N_19
REMARK                            x       y       z     vdW  Elec       q    Type
REMARK                         _______ _______ _______ _____ _____    ______ ____
ROOT
ATOM      1  C   UNL     1       6.080   6.077  17.359  0.00  0.00    +0.000 C 
ENDROOT
BRANCH   1   5
ATOM      2  O   UNL     1       1.732   7.150  19.264  0.00  0.00    +0.000 OA
ATOM      3  C   UNL     1       2.604   6.296  19.149  0.00  0.00    +0.000 C 
ATOM      4  C   UNL     1       3.771   6.556  18.259  0.00  0.00    +0.000 C 
ATOM      5  C   UNL     1       4.862   5.767  18.230  0.00  0.00    +0.000 C 
ATOM      6  C   UNL     1       4.859   4.557  19.102  0.00  0.00    +0.000 C 
ATOM      7  O   UNL     1       5.874   3.927  19.370  0.00  0.00    +0.000 OA
ATOM      8  C   UNL     1       3.587   4.109  19.703  0.00  0.00    +0.000 A 
ATOM      9  C   UNL     1       3.475   2.816  20.232  0.00  0.00    +0.000 A 
ATOM     10  C   UNL     1       2.300   2.423  20.876  0.00  0.00    +0.000 A 
ATOM     11  C   UNL     1       1.246   3.324  21.017  0.00  0.00    +0.000 A 
ATOM     12  C   UNL     1       1.348   4.607  20.476  0.00  0.00    +0.000 A 
ATOM     13  C   UNL     1       2.513   4.985  19.797  0.00  0.00    +0.000 A 
BRANCH   4  14
ATOM     14  O   UNL     1       3.676   7.704  17.485  0.00  0.00    +0.000 OA
ATOM     15  H   UNL     1       4.159   7.496  16.654  0.00  0.00    +0.000 HD
ENDBRANCH   4  14
ENDBRANCH   1   5
BRANCH   1  16
ATOM     16  C   UNL     1       6.938   7.274  17.812  0.00  0.00    +0.000 A 
ATOM     17  C   UNL     1       7.990   7.091  18.726  0.00  0.00    +0.000 A 
ATOM     18  C   UNL     1       8.868   8.146  19.023  0.00  0.00    +0.000 A 
ATOM     19  C   UNL     1       8.692   9.390  18.402  0.00  0.00    +0.000 A 
ATOM     20  C   UNL     1       7.633   9.606  17.522  0.00  0.00    +0.000 A 
ATOM     21  C   UNL     1       6.756   8.555  17.247  0.00  0.00    +0.000 A 
BRANCH  19  22
ATOM     22  N   UNL     1       9.644  10.482  18.658  0.00  0.00    +0.000 N 
ATOM     23  O   UNL     1       9.863  10.785  19.838  0.00  0.00    +0.000 OA
ATOM     24  O   UNL     1      10.174  11.025  17.680  0.00  0.00    +0.000 OA
ENDBRANCH  19  22
ENDBRANCH   1  16
BRANCH   1  25
ATOM     25  N   UNL     1       5.705   6.143  15.921  0.00  0.00    +0.000 NA
ATOM     26  H   UNL     1       6.514   6.449  15.382  0.00  0.00    +0.000 HD
BRANCH  25  27
ATOM     27  C   UNL     1       5.240   4.846  15.409  0.00  0.00    +0.000 C 
BRANCH  27  28
ATOM     28  C   UNL     1       5.832   4.469  14.067  0.00  0.00    +0.000 A 
ATOM     29  C   UNL     1       7.074   5.007  13.683  0.00  0.00    +0.000 A 
ATOM     30  C   UNL     1       7.678   4.634  12.481  0.00  0.00    +0.000 A 
ATOM     31  C   UNL     1       7.051   3.712  11.648  0.00  0.00    +0.000 A 
ATOM     32  C   UNL     1       5.823   3.163  12.018  0.00  0.00    +0.000 A 
ATOM     33  C   UNL     1       5.221   3.535  13.224  0.00  0.00    +0.000 A 
ENDBRANCH  27  28
ENDBRANCH  25  27
ENDBRANCH   1  25
TORSDOF 7
ENDMDL
MODEL 4
REMARK VINA RESULT:      -7.8      3.466      6.036
REMARK  Name = 
REMARK  7 active torsions:
REMARK  status: ('A' for Active; 'I' for Inactive)
REMARK    1  A    between atoms: C_3  and  O_4
REMARK    2  A    between atoms: C_5  and  C_6
REMARK    3  A    between atoms: C_6  and  N_7
REMARK    4  A    between atoms: C_6  and  C_15
REMARK    5  A    between atoms: N_7  and  C_8
REMARK    6  A    between atoms: C_8  and  C_9
REMARK    7  A    between atoms: C_18  and  N_19
REMARK                            x       y       z     vdW  Elec       q    Type
REMARK                         _______ _______ _______ _____ _____    ______ ____
ROOT
ATOM      1  C   UNL     1       2.448   5.985  19.113  0.00  0.00    +0.000 C 
ENDROOT
BRANCH   1   5
ATOM      2  O   UNL     1       2.170  10.550  17.448  0.00  0.00    +0.000 OA
ATOM      3  C   UNL     1       1.837   9.774  18.338  0.00  0.00    +0.000 C 
ATOM      4  C   UNL     1       2.181   8.329  18.216  0.00  0.00    +0.000 C 
ATOM      5  C   UNL     1       2.033   7.452  19.228  0.00  0.00    +0.000 C 
ATOM      6  C   UNL     1       1.452   7.963  20.502  0.00  0.00    +0.000 C 
ATOM      7  O   UNL     1       1.523   7.351  21.559  0.00  0.00    +0.000 OA
ATOM      8  C   UNL     1       0.790   9.283  20.510  0.00  0.00    +0.000 A 
ATOM      9  C   UNL     1      -0.051   9.642  21.571  0.00  0.00    +0.000 A 
ATOM     10  C   UNL     1      -0.608  10.922  21.621  0.00  0.00    +0.000 A 
ATOM     11  C   UNL     1      -0.309  11.853  20.628  0.00  0.00    +0.000 A 
ATOM     12  C   UNL     1       0.516  11.493  19.559  0.00  0.00    +0.000 A 
ATOM     13  C   UNL     1       1.042  10.196  19.494  0.00  0.00    +0.000 A 
BRANCH   4  14
ATOM     14  O   UNL     1       2.712   7.952  16.991  0.00  0.00    +0.000 OA
ATOM     15  H   UNL     1       3.671   7.809  17.158  0.00  0.00    +0.000 HD
ENDBRANCH   4  14
ENDBRANCH   1   5
BRANCH   1  16
ATOM     16  C   UNL     1       3.851   5.730  18.529  0.00  0.00    +0.000 A 
ATOM     17  C   UNL     1       4.982   5.738  19.362  0.00  0.00    +0.000 A 
ATOM     18  C   UNL     1       6.237   5.357  18.863  0.00  0.00    +0.000 A 
ATOM     19  C   UNL     1       6.362   4.966  17.522  0.00  0.00    +0.000 A 
ATOM     20  C   UNL     1       5.262   4.987  16.667  0.00  0.00    +0.000 A 
ATOM     21  C   UNL     1       4.022   5.385  17.170  0.00  0.00    +0.000 A 
BRANCH  19  22
ATOM     22  N   UNL     1       7.661   4.504  17.007  0.00  0.00    +0.000 N 
ATOM     23  O   UNL     1       8.486   4.086  17.830  0.00  0.00    +0.000 OA
ATOM     24  O   UNL     1       7.845   4.554  15.784  0.00  0.00    +0.000 OA
ENDBRANCH  19  22
ENDBRANCH   1  16
BRANCH   1  25
ATOM     25  N   UNL     1       1.388   5.181  18.447  0.00  0.00    +0.000 NA
ATOM     26  H   UNL     1       1.699   4.934  17.510  0.00  0.00    +0.000 HD
BRANCH  25  27
ATOM     27  C   UNL     1       1.070   3.956  19.194  0.00  0.00    +0.000 C 
BRANCH  27  28
ATOM     28  C   UNL     1       2.240   3.004  19.335  0.00  0.00    +0.000 A 
ATOM     29  C   UNL     1       2.642   2.233  18.229  0.00  0.00    +0.000 A 
ATOM     30  C   UNL     1       3.753   1.392  18.306  0.00  0.00    +0.000 A 
ATOM     31  C   UNL     1       4.484   1.315  19.489  0.00  0.00    +0.000 A 
ATOM     32  C   UNL     1       4.103   2.079  20.591  0.00  0.00    +0.000 A 
ATOM     33  C   UNL     1       2.992   2.923  20.513  0.00  0.00    +0.000 A 
ENDBRANCH  27  28
ENDBRANCH  25  27
ENDBRANCH   1  25
TORSDOF 7
ENDMDL
MODEL 5
REMARK VINA RESULT:      -7.7      3.697      6.553
REMARK  Name = 
REMARK  7 active torsions:
REMARK  status: ('A' for Active; 'I' for Inactive)
REMARK    1  A    between atoms: C_3  and  O_4
REMARK    2  A    between atoms: C_5  and  C_6
REMARK    3  A    between atoms: C_6  and  N_7
REMARK    4  A    between atoms: C_6  and  C_15
REMARK    5  A    between atoms: N_7  and  C_8
REMARK    6  A    between atoms: C_8  and  C_9
REMARK    7  A    between atoms: C_18  and  N_19
REMARK                            x       y       z     vdW  Elec       q    Type
REMARK                         _______ _______ _______ _____ _____    ______ ____
ROOT
ATOM      1  C   UNL     1       2.396   7.445  18.393  0.00  0.00    +0.000 C 
ENDROOT
BRANCH   1   5
ATOM      2  O   UNL     1       0.826  12.033  18.811  0.00  0.00    +0.000 OA
ATOM      3  C   UNL     1       0.885  10.931  19.344  0.00  0.00    +0.000 C 
ATOM      4  C   UNL     1       1.462   9.782  18.589  0.00  0.00    +0.000 C 
ATOM      5  C   UNL     1       1.746   8.596  19.162  0.00  0.00    +0.000 C 
ATOM      6  C   UNL     1       1.416   8.433  20.607  0.00  0.00    +0.000 C 
ATOM      7  O   UNL     1       1.867   7.528  21.295  0.00  0.00    +0.000 OA
ATOM      8  C   UNL     1       0.533   9.423  21.257  0.00  0.00    +0.000 A 
ATOM      9  C   UNL     1      -0.068   9.128  22.488  0.00  0.00    +0.000 A 
ATOM     10  C   UNL     1      -0.833  10.096  23.143  0.00  0.00    +0.000 A 
ATOM     11  C   UNL     1      -0.979  11.365  22.585  0.00  0.00    +0.000 A 
ATOM     12  C   UNL     1      -0.395  11.657  21.350  0.00  0.00    +0.000 A 
ATOM     13  C   UNL     1       0.339  10.671  20.678  0.00  0.00    +0.000 A 
BRANCH   4  14
ATOM     14  O   UNL     1       1.731  10.033  17.251  0.00  0.00    +0.000 OA
ATOM     15  H   UNL     1       2.329  10.815  17.250  0.00  0.00    +0.000 HD
ENDBRANCH   4  14
ENDBRANCH   1   5
BRANCH   1  16
ATOM     16  C   UNL     1       2.442   6.092  19.128  0.00  0.00    +0.000 A 
ATOM     17  C   UNL     1       3.644   5.624  19.686  0.00  0.00    +0.000 A 
ATOM     18  C   UNL     1       3.657   4.470  20.485  0.00  0.00    +0.000 A 
ATOM     19  C   UNL     1       2.462   3.780  20.726  0.00  0.00    +0.000 A 
ATOM     20  C   UNL     1       1.264   4.203  20.153  0.00  0.00    +0.000 A 
ATOM     21  C   UNL     1       1.265   5.341  19.346  0.00  0.00    +0.000 A 
BRANCH  19  22
ATOM     22  N   UNL     1       2.455   2.606  21.615  0.00  0.00    +0.000 N 
ATOM     23  O   UNL     1       1.401   2.343  22.206  0.00  0.00    +0.000 OA
ATOM     24  O   UNL     1       3.501   1.951  21.709  0.00  0.00    +0.000 OA
ENDBRANCH  19  22
ENDBRANCH   1  16
BRANCH   1  25
ATOM     25  N   UNL     1       3.716   7.850  17.840  0.00  0.00    +0.000 NA
ATOM     26  H   UNL     1       4.441   7.637  18.523  0.00  0.00    +0.000 HD
BRANCH  25  27
ATOM     27  C   UNL     1       4.021   7.164  16.576  0.00  0.00    +0.000 C 
BRANCH  27  28
ATOM     28  C   UNL     1       5.228   6.251  16.650  0.00  0.00    +0.000 A 
ATOM     29  C   UNL     1       6.310   6.602  17.478  0.00  0.00    +0.000 A 
ATOM     30  C   UNL     1       7.411   5.755  17.618  0.00  0.00    +0.000 A 
ATOM     31  C   UNL     1       7.443   4.542  16.937  0.00  0.00    +0.000 A 
ATOM     32  C   UNL     1       6.374   4.176  16.119  0.00  0.00    +0.000 A 
ATOM     33  C   UNL     1       5.270   5.023  15.982  0.00  0.00    +0.000 A 
ENDBRANCH  27  28
ENDBRANCH  25  27
ENDBRANCH   1  25
TORSDOF 7
ENDMDL
MODEL 6
REMARK VINA RESULT:      -7.7      3.446      6.585
REMARK  Name = 
REMARK  7 active torsions:
REMARK  status: ('A' for Active; 'I' for Inactive)
REMARK    1  A    between atoms: C_3  and  O_4
REMARK    2  A    between atoms: C_5  and  C_6
REMARK    3  A    between atoms: C_6  and  N_7
REMARK    4  A    between atoms: C_6  and  C_15
REMARK    5  A    between atoms: N_7  and  C_8
REMARK    6  A    between atoms: C_8  and  C_9
REMARK    7  A    between atoms: C_18  and  N_19
REMARK                            x       y       z     vdW  Elec       q    Type
REMARK                         _______ _______ _______ _____ _____    ______ ____
ROOT
ATOM      1  C   UNL     1       2.255   6.219  18.840  0.00  0.00    +0.000 C 
ENDROOT
BRANCH   1   5
ATOM      2  O   UNL     1       0.659   9.572  21.986  0.00  0.00    +0.000 OA
ATOM      3  C   UNL     1       1.164   9.374  20.887  0.00  0.00    +0.000 C 
ATOM      4  C   UNL     1       1.550   7.988  20.496  0.00  0.00    +0.000 C 
ATOM      5  C   UNL     1       1.922   7.655  19.245  0.00  0.00    +0.000 C 
ATOM      6  C   UNL     1       1.989   8.748  18.233  0.00  0.00    +0.000 C 
ATOM      7  O   UNL     1       2.041   8.538  17.029  0.00  0.00    +0.000 OA
ATOM      8  C   UNL     1       1.957  10.152  18.691  0.00  0.00    +0.000 A 
ATOM      9  C   UNL     1       2.356  11.183  17.829  0.00  0.00    +0.000 A 
ATOM     10  C   UNL     1       2.244  12.515  18.231  0.00  0.00    +0.000 A 
ATOM     11  C   UNL     1       1.712  12.823  19.482  0.00  0.00    +0.000 A 
ATOM     12  C   UNL     1       1.329  11.798  20.351  0.00  0.00    +0.000 A 
ATOM     13  C   UNL     1       1.479  10.462  19.957  0.00  0.00    +0.000 A 
BRANCH   4  14
ATOM     14  O   UNL     1       1.457   7.045  21.509  0.00  0.00    +0.000 OA
ATOM     15  H   UNL     1       2.307   6.551  21.481  0.00  0.00    +0.000 HD
ENDBRANCH   4  14
ENDBRANCH   1   5
BRANCH   1  16
ATOM     16  C   UNL     1       3.728   5.953  18.472  0.00  0.00    +0.000 A 
ATOM     17  C   UNL     1       4.657   5.597  19.464  0.00  0.00    +0.000 A 
ATOM     18  C   UNL     1       5.959   5.206  19.113  0.00  0.00    +0.000 A 
ATOM     19  C   UNL     1       6.333   5.172  17.763  0.00  0.00    +0.000 A 
ATOM     20  C   UNL     1       5.441   5.557  16.764  0.00  0.00    +0.000 A 
ATOM     21  C   UNL     1       4.154   5.960  17.125  0.00  0.00    +0.000 A 
BRANCH  19  22
ATOM     22  N   UNL     1       7.675   4.703  17.382  0.00  0.00    +0.000 N 
ATOM     23  O   UNL     1       8.479   4.468  18.293  0.00  0.00    +0.000 OA
ATOM     24  O   UNL     1       7.915   4.564  16.175  0.00  0.00    +0.000 OA
ENDBRANCH  19  22
ENDBRANCH   1  16
BRANCH   1  25
ATOM     25  N   UNL     1       1.302   5.718  17.814  0.00  0.00    +0.000 NA
ATOM     26  H   UNL     1       1.574   6.081  16.903  0.00  0.00    +0.000 HD
BRANCH  25  27
ATOM     27  C   UNL     1       1.265   4.249  17.762  0.00  0.00    +0.000 C 
BRANCH  27  28
ATOM     28  C   UNL     1       1.652   3.580  19.065  0.00  0.00    +0.000 A 
ATOM     29  C   UNL     1       2.804   2.775  19.114  0.00  0.00    +0.000 A 
ATOM     30  C   UNL     1       3.224   2.194  20.312  0.00  0.00    +0.000 A 
ATOM     31  C   UNL     1       2.501   2.415  21.480  0.00  0.00    +0.000 A 
ATOM     32  C   UNL     1       1.361   3.218  21.450  0.00  0.00    +0.000 A 
ATOM     33  C   UNL     1       0.943   3.803  20.251  0.00  0.00    +0.000 A 
ENDBRANCH  27  28
ENDBRANCH  25  27
ENDBRANCH   1  25
TORSDOF 7
ENDMDL
MODEL 7
REMARK VINA RESULT:      -7.7      3.352      6.071
REMARK  Name = 
REMARK  7 active torsions:
REMARK  status: ('A' for Active; 'I' for Inactive)
REMARK    1  A    between atoms: C_3  and  O_4
REMARK    2  A    between atoms: C_5  and  C_6
REMARK    3  A    between atoms: C_6  and  N_7
REMARK    4  A    between atoms: C_6  and  C_15
REMARK    5  A    between atoms: N_7  and  C_8
REMARK    6  A    between atoms: C_8  and  C_9
REMARK    7  A    between atoms: C_18  and  N_19
REMARK                            x       y       z     vdW  Elec       q    Type
REMARK                         _______ _______ _______ _____ _____    ______ ____
ROOT
ATOM      1  C   UNL     1       2.567   7.554  17.840  0.00  0.00    +0.000 C 
ENDROOT
BRANCH   1   5
ATOM      2  O   UNL     1       1.142  12.016  19.163  0.00  0.00    +0.000 OA
ATOM      3  C   UNL     1       1.147  10.826  19.457  0.00  0.00    +0.000 C 
ATOM      4  C   UNL     1       1.708   9.835  18.494  0.00  0.00    +0.000 C 
ATOM      5  C   UNL     1       1.934   8.547  18.815  0.00  0.00    +0.000 C 
ATOM      6  C   UNL     1       1.554   8.102  20.187  0.00  0.00    +0.000 C 
ATOM      7  O   UNL     1       1.953   7.057  20.683  0.00  0.00    +0.000 OA
ATOM      8  C   UNL     1       0.686   8.971  21.007  0.00  0.00    +0.000 A 
ATOM      9  C   UNL     1       0.037   8.453  22.136  0.00  0.00    +0.000 A 
ATOM     10  C   UNL     1      -0.714   9.294  22.960  0.00  0.00    +0.000 A 
ATOM     11  C   UNL     1      -0.800  10.655  22.674  0.00  0.00    +0.000 A 
ATOM     12  C   UNL     1      -0.169  11.172  21.540  0.00  0.00    +0.000 A 
ATOM     13  C   UNL     1       0.552  10.318  20.695  0.00  0.00    +0.000 A 
BRANCH   4  14
ATOM     14  O   UNL     1       2.026  10.346  17.244  0.00  0.00    +0.000 OA
ATOM     15  H   UNL     1       1.722   9.666  16.602  0.00  0.00    +0.000 HD
ENDBRANCH   4  14
ENDBRANCH   1   5
BRANCH   1  16
ATOM     16  C   UNL     1       2.823   6.140  18.396  0.00  0.00    +0.000 A 
ATOM     17  C   UNL     1       2.051   5.051  17.957  0.00  0.00    +0.000 A 
ATOM     18  C   UNL     1       2.379   3.743  18.345  0.00  0.00    +0.000 A 
ATOM     19  C   UNL     1       3.485   3.522  19.176  0.00  0.00    +0.000 A 
ATOM     20  C   UNL     1       4.243   4.589  19.654  0.00  0.00    +0.000 A 
ATOM     21  C   UNL     1       3.898   5.888  19.277  0.00  0.00    +0.000 A 
BRANCH  19  22
ATOM     22  N   UNL     1       3.875   2.149  19.536  0.00  0.00    +0.000 N 
ATOM     23  O   UNL     1       3.300   1.221  18.953  0.00  0.00    +0.000 OA
ATOM     24  O   UNL     1       4.759   2.008  20.390  0.00  0.00    +0.000 OA
ENDBRANCH  19  22
ENDBRANCH   1  16
BRANCH   1  25
ATOM     25  N   UNL     1       3.764   8.143  17.180  0.00  0.00    +0.000 NA
ATOM     26  H   UNL     1       4.514   8.223  17.864  0.00  0.00    +0.000 HD
BRANCH  25  27
ATOM     27  C   UNL     1       4.225   7.332  16.044  0.00  0.00    +0.000 C 
BRANCH  27  28
ATOM     28  C   UNL     1       5.370   6.400  16.382  0.00  0.00    +0.000 A 
ATOM     29  C   UNL     1       6.410   6.854  17.214  0.00  0.00    +0.000 A 
ATOM     30  C   UNL     1       7.448   6.003  17.595  0.00  0.00    +0.000 A 
ATOM     31  C   UNL     1       7.459   4.682  17.156  0.00  0.00    +0.000 A 
ATOM     32  C   UNL     1       6.431   4.214  16.338  0.00  0.00    +0.000 A 
ATOM     33  C   UNL     1       5.389   5.066  15.958  0.00  0.00    +0.000 A 
ENDBRANCH  27  28
ENDBRANCH  25  27
ENDBRANCH   1  25
TORSDOF 7
ENDMDL
MODEL 8
REMARK VINA RESULT:      -7.6      2.782      6.984
REMARK  Name = 
REMARK  7 active torsions:
REMARK  status: ('A' for Active; 'I' for Inactive)
REMARK    1  A    between atoms: C_3  and  O_4
REMARK    2  A    between atoms: C_5  and  C_6
REMARK    3  A    between atoms: C_6  and  N_7
REMARK    4  A    between atoms: C_6  and  C_15
REMARK    5  A    between atoms: N_7  and  C_8
REMARK    6  A    between atoms: C_8  and  C_9
REMARK    7  A    between atoms: C_18  and  N_19
REMARK                            x       y       z     vdW  Elec       q    Type
REMARK                         _______ _______ _______ _____ _____    ______ ____
ROOT
ATOM      1  C   UNL     1       4.353   4.752  18.323  0.00  0.00    +0.000 C 
ENDROOT
BRANCH   1   5
ATOM      2  O   UNL     1       8.073   6.698  15.862  0.00  0.00    +0.000 OA
ATOM      3  C   UNL     1       7.145   5.897  15.828  0.00  0.00    +0.000 C 
ATOM      4  C   UNL     1       6.346   5.650  17.062  0.00  0.00    +0.000 C 
ATOM      5  C   UNL     1       5.197   4.946  17.064  0.00  0.00    +0.000 C 
ATOM      6  C   UNL     1       4.750   4.357  15.769  0.00  0.00    +0.000 C 
ATOM      7  O   UNL     1       3.613   3.944  15.583  0.00  0.00    +0.000 OA
ATOM      8  C   UNL     1       5.702   4.296  14.642  0.00  0.00    +0.000 A 
ATOM      9  C   UNL     1       5.443   3.460  13.547  0.00  0.00    +0.000 A 
ATOM     10  C   UNL     1       6.299   3.466  12.444  0.00  0.00    +0.000 A 
ATOM     11  C   UNL     1       7.399   4.323  12.419  0.00  0.00    +0.000 A 
ATOM     12  C   UNL     1       7.669   5.145  13.515  0.00  0.00    +0.000 A 
ATOM     13  C   UNL     1       6.829   5.107  14.636  0.00  0.00    +0.000 A 
BRANCH   4  14
ATOM     14  O   UNL     1       6.847   6.238  18.215  0.00  0.00    +0.000 OA
ATOM     15  H   UNL     1       7.258   5.502  18.722  0.00  0.00    +0.000 HD
ENDBRANCH   4  14
ENDBRANCH   1   5
BRANCH   1  16
ATOM     16  C   UNL     1       3.553   5.983  18.789  0.00  0.00    +0.000 A 
ATOM     17  C   UNL     1       3.354   7.073  17.925  0.00  0.00    +0.000 A 
ATOM     18  C   UNL     1       2.501   8.126  18.290  0.00  0.00    +0.000 A 
ATOM     19  C   UNL     1       1.844   8.089  19.528  0.00  0.00    +0.000 A 
ATOM     20  C   UNL     1       2.055   7.038  20.417  0.00  0.00    +0.000 A 
ATOM     21  C   UNL     1       2.919   6.005  20.051  0.00  0.00    +0.000 A 
BRANCH  19  22
ATOM     22  N   UNL     1       0.899   9.157  19.892  0.00  0.00    +0.000 N 
ATOM     23  O   UNL     1       0.793  10.116  19.117  0.00  0.00    +0.000 OA
ATOM     24  O   UNL     1       0.263   9.027  20.945  0.00  0.00    +0.000 OA
ENDBRANCH  19  22
ENDBRANCH   1  16
BRANCH   1  25
ATOM     25  N   UNL     1       5.154   4.134  19.414  0.00  0.00    +0.000 NA
ATOM     26  H   UNL     1       5.083   4.715  20.247  0.00  0.00    +0.000 HD
BRANCH  25  27
ATOM     27  C   UNL     1       4.702   2.772  19.730  0.00  0.00    +0.000 C 
BRANCH  27  28
ATOM     28  C   UNL     1       3.197   2.632  19.823  0.00  0.00    +0.000 A 
ATOM     29  C   UNL     1       2.553   2.879  21.049  0.00  0.00    +0.000 A 
ATOM     30  C   UNL     1       1.163   2.820  21.155  0.00  0.00    +0.000 A 
ATOM     31  C   UNL     1       0.395   2.518  20.034  0.00  0.00    +0.000 A 
ATOM     32  C   UNL     1       1.017   2.278  18.809  0.00  0.00    +0.000 A 
ATOM     33  C   UNL     1       2.410   2.341  18.703  0.00  0.00    +0.000 A 
ENDBRANCH  27  28
ENDBRANCH  25  27
ENDBRANCH   1  25
TORSDOF 7
ENDMDL
MODEL 9
REMARK VINA RESULT:      -7.6      6.819      9.823
REMARK  Name = 
REMARK  7 active torsions:
REMARK  status: ('A' for Active; 'I' for Inactive)
REMARK    1  A    between atoms: C_3  and  O_4
REMARK    2  A    between atoms: C_5  and  C_6
REMARK    3  A    between atoms: C_6  and  N_7
REMARK    4  A    between atoms: C_6  and  C_15
REMARK    5  A    between atoms: N_7  and  C_8
REMARK    6  A    between atoms: C_8  and  C_9
REMARK    7  A    between atoms: C_18  and  N_19
REMARK                            x       y       z     vdW  Elec       q    Type
REMARK                         _______ _______ _______ _____ _____    ______ ____
ROOT
ATOM      1  C   UNL     1       0.823  10.985  18.615  0.00  0.00    +0.000 C 
ENDROOT
BRANCH   1   5
ATOM      2  O   UNL     1      -2.736  12.643  21.490  0.00  0.00    +0.000 OA
ATOM      3  C   UNL     1      -2.448  12.227  20.374  0.00  0.00    +0.000 C 
ATOM      4  C   UNL     1      -1.021  11.955  20.039  0.00  0.00    +0.000 C 
ATOM      5  C   UNL     1      -0.639  11.314  18.918  0.00  0.00    +0.000 C 
ATOM      6  C   UNL     1      -1.707  10.909  17.959  0.00  0.00    +0.000 C 
ATOM      7  O   UNL     1      -1.524  10.096  17.063  0.00  0.00    +0.000 OA
ATOM      8  C   UNL     1      -3.060  11.481  18.110  0.00  0.00    +0.000 A 
ATOM      9  C   UNL     1      -3.980  11.400  17.056  0.00  0.00    +0.000 A 
ATOM     10  C   UNL     1      -5.285  11.864  17.228  0.00  0.00    +0.000 A 
ATOM     11  C   UNL     1      -5.683  12.386  18.458  0.00  0.00    +0.000 A 
ATOM     12  C   UNL     1      -4.765  12.484  19.506  0.00  0.00    +0.000 A 
ATOM     13  C   UNL     1      -3.446  12.052  19.316  0.00  0.00    +0.000 A 
BRANCH   4  14
ATOM     14  O   UNL     1      -0.104  12.373  20.993  0.00  0.00    +0.000 OA
ATOM     15  H   UNL     1      -0.645  12.710  21.742  0.00  0.00    +0.000 HD
ENDBRANCH   4  14
ENDBRANCH   1   5
BRANCH   1  16
ATOM     16  C   UNL     1       1.258   9.537  18.910  0.00  0.00    +0.000 A 
ATOM     17  C   UNL     1       1.872   8.760  17.914  0.00  0.00    +0.000 A 
ATOM     18  C   UNL     1       2.406   7.499  18.221  0.00  0.00    +0.000 A 
ATOM     19  C   UNL     1       2.325   7.012  19.533  0.00  0.00    +0.000 A 
ATOM     20  C   UNL     1       1.687   7.748  20.529  0.00  0.00    +0.000 A 
ATOM     21  C   UNL     1       1.144   8.993  20.209  0.00  0.00    +0.000 A 
BRANCH  19  22
ATOM     22  N   UNL     1       2.938   5.719  19.879  0.00  0.00    +0.000 N 
ATOM     23  O   UNL     1       2.202   4.847  20.357  0.00  0.00    +0.000 OA
ATOM     24  O   UNL     1       4.149   5.581  19.662  0.00  0.00    +0.000 OA
ENDBRANCH  19  22
ENDBRANCH   1  16
BRANCH   1  25
ATOM     25  N   UNL     1       1.734  11.998  19.213  0.00  0.00    +0.000 NA
ATOM     26  H   UNL     1       2.377  11.530  19.849  0.00  0.00    +0.000 HD
BRANCH  25  27
ATOM     27  C   UNL     1       2.501  12.725  18.192  0.00  0.00    +0.000 C 
BRANCH  27  28
ATOM     28  C   UNL     1       2.345  14.230  18.266  0.00  0.00    +0.000 A 
ATOM     29  C   UNL     1       3.333  15.057  17.700  0.00  0.00    +0.000 A 
ATOM     30  C   UNL     1       3.192  16.445  17.695  0.00  0.00    +0.000 A 
ATOM     31  C   UNL     1       2.056  17.028  18.250  0.00  0.00    +0.000 A 
ATOM     32  C   UNL     1       1.063  16.222  18.808  0.00  0.00    +0.000 A 
ATOM     33  C   UNL     1       1.204  14.831  18.809  0.00  0.00    +0.000 A 
ENDBRANCH  27  28
ENDBRANCH  25  27
ENDBRANCH   1  25
TORSDOF 7
ENDMDL
