MODEL 1
REMARK VINA RESULT:      -8.3      0.000      0.000
REMARK  Name = 
REMARK  4 active torsions:
REMARK  status: ('A' for Active; 'I' for Inactive)
REMARK    1  A    between atoms: C_2  and  C_13
REMARK    2  A    between atoms: N_3  and  C_4
REMARK    3  A    between atoms: N_16  and  S_17
REMARK    4  A    between atoms: S_17  and  C_20
REMARK                            x       y       z     vdW  Elec       q    Type
REMARK                         _______ _______ _______ _____ _____    ______ ____
ROOT
ATOM      1  C   UNL     1       1.143   9.777  18.064  0.00  0.00    +0.000 C 
ATOM      2  C   UNL     1       1.765  11.047  18.663  0.00  0.00    +0.000 C 
ATOM      3  C   UNL     1       1.254  11.340  20.077  0.00  0.00    +0.000 C 
ATOM      4  N   UNL     1      -0.235  11.446  20.079  0.00  0.00    +0.000 NA
ATOM      5  C   UNL     1      -0.878  10.203  19.544  0.00  0.00    +0.000 C 
ATOM      6  C   UNL     1      -0.379   9.884  18.134  0.00  0.00    +0.000 C 
ENDROOT
BRANCH   1   8
ATOM      7  O   UNL     1       1.699   8.429  19.974  0.00  0.00    +0.000 OA
ATOM      8  C   UNL     1       1.690   8.519  18.749  0.00  0.00    +0.000 C 
ATOM      9  N   UNL     1       2.222   7.577  17.883  0.00  0.00    +0.000 N 
ATOM     10  H   UNL     1       2.424   7.875  16.937  0.00  0.00    +0.000 HD
BRANCH   9  11
ATOM     11  C   UNL     1       2.767   6.332  18.283  0.00  0.00    +0.000 A 
ATOM     12  C   UNL     1       4.017   6.225  18.929  0.00  0.00    +0.000 A 
ATOM     13  C   UNL     1       4.578   4.982  19.234  0.00  0.00    +0.000 A 
ATOM     14  C   UNL     1       3.867   3.861  18.882  0.00  0.00    +0.000 A 
ATOM     15  C   UNL     1       2.627   3.950  18.294  0.00  0.00    +0.000 A 
ATOM     16  C   UNL     1       2.038   5.167  18.004  0.00  0.00    +0.000 A 
ATOM     17  O   UNL     1       2.103   2.723  18.020  0.00  0.00    +0.000 OA
ATOM     18  C   UNL     1       3.200   1.867  18.410  0.00  0.00    +0.000 C 
ATOM     19  O   UNL     1       4.278   2.577  19.049  0.00  0.00    +0.000 OA
ENDBRANCH   9  11
ENDBRANCH   1   8
BRANCH   4  20
ATOM     20  S   UNL     1      -0.881  11.849  21.651  0.00  0.00    +0.000 S 
ATOM     21  O   UNL     1      -0.962  10.599  22.382  0.00  0.00    +0.000 OA
ATOM     22  O   UNL     1      -0.089  12.930  22.198  0.00  0.00    +0.000 OA
BRANCH  20  23
ATOM     23  C   UNL     1      -2.557  12.349  21.328  0.00  0.00    +0.000 A 
ATOM     24  C   UNL     1      -2.927  12.493  19.976  0.00  0.00    +0.000 A 
ATOM     25  C   UNL     1      -4.225  12.848  19.635  0.00  0.00    +0.000 A 
ATOM     26  C   UNL     1      -5.159  13.049  20.643  0.00  0.00    +0.000 A 
ATOM     27  C   UNL     1      -4.806  12.865  21.989  0.00  0.00    +0.000 A 
ATOM     28  C   UNL     1      -5.776  13.029  22.989  0.00  0.00    +0.000 A 
ATOM     29  C   UNL     1      -5.449  12.812  24.318  0.00  0.00    +0.000 A 
ATOM     30  C   UNL     1      -4.148  12.463  24.605  0.00  0.00    +0.000 A 
ATOM     31  N   UNL     1      -3.182  12.334  23.669  0.00  0.00    +0.000 NA
ATOM     32  C   UNL     1      -3.486  12.503  22.363  0.00  0.00    +0.000 A 
ENDBRANCH  20  23
ENDBRANCH   4  20
TORSDOF 4
ENDMDL
MODEL 2
REMARK VINA RESULT:      -8.2      2.603      9.795
REMARK  Name = 
REMARK  4 active torsions:
REMARK  status: ('A' for Active; 'I' for Inactive)
REMARK    1  A    between atoms: C_2  and  C_13
REMARK    2  A    between atoms: N_3  and  C_4
REMARK    3  A    between atoms: N_16  and  S_17
REMARK    4  A    between atoms: S_17  and  C_20
REMARK                            x       y       z     vdW  Elec       q    Type
REMARK                         _______ _______ _______ _____ _____    ______ ____
ROOT
ATOM      1  C   UNL     1      -1.048  12.656  19.390  0.00  0.00    +0.000 C 
ATOM      2  C   UNL     1      -0.898  11.460  18.438  0.00  0.00    +0.000 C 
ATOM      3  C   UNL     1      -0.671  10.141  19.183  0.00  0.00    +0.000 C 
ATOM      4  N   UNL     1       0.525  10.246  20.071  0.00  0.00    +0.000 NA
ATOM      5  C   UNL     1       0.392  11.375  21.046  0.00  0.00    +0.000 C 
ATOM      6  C   UNL     1       0.157  12.704  20.327  0.00  0.00    +0.000 C 
ENDROOT
BRANCH   1   8
ATOM      7  O   UNL     1      -3.393  12.167  19.580  0.00  0.00    +0.000 OA
ATOM      8  C   UNL     1      -2.387  12.603  20.135  0.00  0.00    +0.000 C 
ATOM      9  N   UNL     1      -2.360  13.149  21.409  0.00  0.00    +0.000 N 
ATOM     10  H   UNL     1      -1.567  13.731  21.649  0.00  0.00    +0.000 HD
BRANCH   9  11
ATOM     11  C   UNL     1      -3.468  13.195  22.289  0.00  0.00    +0.000 A 
ATOM     12  C   UNL     1      -3.558  12.379  23.438  0.00  0.00    +0.000 A 
ATOM     13  C   UNL     1      -4.700  12.374  24.244  0.00  0.00    +0.000 A 
ATOM     14  C   UNL     1      -5.737  13.196  23.879  0.00  0.00    +0.000 A 
ATOM     15  C   UNL     1      -5.647  14.030  22.790  0.00  0.00    +0.000 A 
ATOM     16  C   UNL     1      -4.519  14.074  21.989  0.00  0.00    +0.000 A 
ATOM     17  O   UNL     1      -6.788  14.750  22.601  0.00  0.00    +0.000 OA
ATOM     18  C   UNL     1      -7.631  14.194  23.634  0.00  0.00    +0.000 C 
ATOM     19  O   UNL     1      -6.939  13.282  24.507  0.00  0.00    +0.000 OA
ENDBRANCH   9  11
ENDBRANCH   1   8
BRANCH   4  20
ATOM     20  S   UNL     1       0.884   8.751  20.899  0.00  0.00    +0.000 S 
ATOM     21  O   UNL     1       1.808   9.096  21.963  0.00  0.00    +0.000 OA
ATOM     22  O   UNL     1      -0.370   8.114  21.241  0.00  0.00    +0.000 OA
BRANCH  20  23
ATOM     23  C   UNL     1       1.813   7.800  19.718  0.00  0.00    +0.000 A 
ATOM     24  C   UNL     1       2.297   8.490  18.589  0.00  0.00    +0.000 A 
ATOM     25  C   UNL     1       3.061   7.830  17.635  0.00  0.00    +0.000 A 
ATOM     26  C   UNL     1       3.351   6.484  17.812  0.00  0.00    +0.000 A 
ATOM     27  C   UNL     1       2.906   5.803  18.957  0.00  0.00    +0.000 A 
ATOM     28  C   UNL     1       3.249   4.456  19.139  0.00  0.00    +0.000 A 
ATOM     29  C   UNL     1       2.850   3.784  20.284  0.00  0.00    +0.000 A 
ATOM     30  C   UNL     1       2.093   4.482  21.199  0.00  0.00    +0.000 A 
ATOM     31  N   UNL     1       1.715   5.769  21.035  0.00  0.00    +0.000 NA
ATOM     32  C   UNL     1       2.125   6.455  19.945  0.00  0.00    +0.000 A 
ENDBRANCH  20  23
ENDBRANCH   4  20
TORSDOF 4
ENDMDL
MODEL 3
REMARK VINA RESULT:      -8.1      2.182      3.806
REMARK  Name = 
REMARK  4 active torsions:
REMARK  status: ('A' for Active; 'I' for Inactive)
REMARK    1  A    between atoms: C_2  and  C_13
REMARK    2  A    between atoms: N_3  and  C_4
REMARK    3  A    between atoms: N_16  and  S_17
REMARK    4  A    between atoms: S_17  and  C_20
REMARK                            x       y       z     vdW  Elec       q    Type
REMARK                         _______ _______ _______ _____ _____    ______ ____
ROOT
ATOM      1  C   UNL     1       0.998   8.328  21.529  0.00  0.00    +0.000 C 
ATOM      2  C   UNL     1      -0.511   8.514  21.309  0.00  0.00    +0.000 C 
ATOM      3  C   UNL     1      -0.830   9.703  20.398  0.00  0.00    +0.000 C 
ATOM      4  N   UNL     1      -0.232  10.955  20.950  0.00  0.00    +0.000 NA
ATOM      5  C   UNL     1       1.248  10.825  21.134  0.00  0.00    +0.000 C 
ATOM      6  C   UNL     1       1.595   9.640  22.036  0.00  0.00    +0.000 C 
ENDROOT
BRANCH   1   8
ATOM      7  O   UNL     1       1.804   8.532  19.275  0.00  0.00    +0.000 OA
ATOM      8  C   UNL     1       1.680   7.807  20.259  0.00  0.00    +0.000 C 
ATOM      9  N   UNL     1       2.049   6.472  20.310  0.00  0.00    +0.000 N 
ATOM     10  H   UNL     1       1.645   5.905  21.044  0.00  0.00    +0.000 HD
BRANCH   9  11
ATOM     11  C   UNL     1       2.709   5.779  19.265  0.00  0.00    +0.000 A 
ATOM     12  C   UNL     1       2.073   4.777  18.501  0.00  0.00    +0.000 A 
ATOM     13  C   UNL     1       2.767   4.042  17.537  0.00  0.00    +0.000 A 
ATOM     14  C   UNL     1       4.097   4.329  17.356  0.00  0.00    +0.000 A 
ATOM     15  C   UNL     1       4.720   5.333  18.060  0.00  0.00    +0.000 A 
ATOM     16  C   UNL     1       4.050   6.093  19.003  0.00  0.00    +0.000 A 
ATOM     17  O   UNL     1       6.038   5.444  17.736  0.00  0.00    +0.000 OA
ATOM     18  C   UNL     1       6.186   4.330  16.827  0.00  0.00    +0.000 C 
ATOM     19  O   UNL     1       4.940   3.684  16.507  0.00  0.00    +0.000 OA
ENDBRANCH   9  11
ENDBRANCH   1   8
BRANCH   4  20
ATOM     20  S   UNL     1      -0.617  12.365  19.995  0.00  0.00    +0.000 S 
ATOM     21  O   UNL     1      -0.454  13.503  20.879  0.00  0.00    +0.000 OA
ATOM     22  O   UNL     1       0.161  12.309  18.776  0.00  0.00    +0.000 OA
BRANCH  20  23
ATOM     23  C   UNL     1      -2.362  12.225  19.678  0.00  0.00    +0.000 A 
ATOM     24  C   UNL     1      -3.229  12.688  20.687  0.00  0.00    +0.000 A 
ATOM     25  C   UNL     1      -4.605  12.647  20.506  0.00  0.00    +0.000 A 
ATOM     26  C   UNL     1      -5.117  12.153  19.314  0.00  0.00    +0.000 A 
ATOM     27  C   UNL     1      -4.256  11.730  18.289  0.00  0.00    +0.000 A 
ATOM     28  C   UNL     1      -4.792  11.278  17.075  0.00  0.00    +0.000 A 
ATOM     29  C   UNL     1      -3.952  10.895  16.041  0.00  0.00    +0.000 A 
ATOM     30  C   UNL     1      -2.595  10.953  16.271  0.00  0.00    +0.000 A 
ATOM     31  N   UNL     1      -2.048  11.348  17.441  0.00  0.00    +0.000 NA
ATOM     32  C   UNL     1      -2.846  11.762  18.450  0.00  0.00    +0.000 A 
ENDBRANCH  20  23
ENDBRANCH   4  20
TORSDOF 4
ENDMDL
MODEL 4
REMARK VINA RESULT:      -8.1      2.423      3.514
REMARK  Name = 
REMARK  4 active torsions:
REMARK  status: ('A' for Active; 'I' for Inactive)
REMARK    1  A    between atoms: C_2  and  C_13
REMARK    2  A    between atoms: N_3  and  C_4
REMARK    3  A    between atoms: N_16  and  S_17
REMARK    4  A    between atoms: S_17  and  C_20
REMARK                            x       y       z     vdW  Elec       q    Type
REMARK                         _______ _______ _______ _____ _____    ______ ____
ROOT
ATOM      1  C   UNL     1       0.705   9.493  22.409  0.00  0.00    +0.000 C 
ATOM      2  C   UNL     1      -0.646  10.167  22.691  0.00  0.00    +0.000 C 
ATOM      3  C   UNL     1      -1.194  10.917  21.473  0.00  0.00    +0.000 C 
ATOM      4  N   UNL     1      -0.203  11.928  20.997  0.00  0.00    +0.000 NA
ATOM      5  C   UNL     1       1.114  11.296  20.667  0.00  0.00    +0.000 C 
ATOM      6  C   UNL     1       1.681  10.535  21.867  0.00  0.00    +0.000 C 
ENDROOT
BRANCH   1   8
ATOM      7  O   UNL     1      -0.586   7.872  21.191  0.00  0.00    +0.000 OA
ATOM      8  C   UNL     1       0.535   8.285  21.479  0.00  0.00    +0.000 C 
ATOM      9  N   UNL     1       1.723   7.690  21.086  0.00  0.00    +0.000 N 
ATOM     10  H   UNL     1       2.558   7.928  21.606  0.00  0.00    +0.000 HD
BRANCH   9  11
ATOM     11  C   UNL     1       1.816   6.576  20.216  0.00  0.00    +0.000 A 
ATOM     12  C   UNL     1       2.309   6.683  18.898  0.00  0.00    +0.000 A 
ATOM     13  C   UNL     1       2.309   5.591  18.026  0.00  0.00    +0.000 A 
ATOM     14  C   UNL     1       1.810   4.402  18.498  0.00  0.00    +0.000 A 
ATOM     15  C   UNL     1       1.369   4.270  19.794  0.00  0.00    +0.000 A 
ATOM     16  C   UNL     1       1.381   5.328  20.685  0.00  0.00    +0.000 A 
ATOM     17  O   UNL     1       0.907   3.015  20.052  0.00  0.00    +0.000 OA
ATOM     18  C   UNL     1       1.017   2.414  18.742  0.00  0.00    +0.000 C 
ATOM     19  O   UNL     1       1.680   3.256  17.781  0.00  0.00    +0.000 OA
ENDBRANCH   9  11
ENDBRANCH   1   8
BRANCH   4  20
ATOM     20  S   UNL     1      -0.793  12.869  19.650  0.00  0.00    +0.000 S 
ATOM     21  O   UNL     1      -1.695  13.854  20.216  0.00  0.00    +0.000 OA
ATOM     22  O   UNL     1       0.348  13.325  18.885  0.00  0.00    +0.000 OA
BRANCH  20  23
ATOM     23  C   UNL     1      -1.805  11.737  18.724  0.00  0.00    +0.000 A 
ATOM     24  C   UNL     1      -1.131  10.790  17.928  0.00  0.00    +0.000 A 
ATOM     25  C   UNL     1      -1.844   9.847  17.199  0.00  0.00    +0.000 A 
ATOM     26  C   UNL     1      -3.230   9.842  17.274  0.00  0.00    +0.000 A 
ATOM     27  C   UNL     1      -3.904  10.756  18.099  0.00  0.00    +0.000 A 
ATOM     28  C   UNL     1      -5.302  10.703  18.196  0.00  0.00    +0.000 A 
ATOM     29  C   UNL     1      -5.976  11.574  19.038  0.00  0.00    +0.000 A 
ATOM     30  C   UNL     1      -5.223  12.491  19.738  0.00  0.00    +0.000 A 
ATOM     31  N   UNL     1      -3.879  12.591  19.638  0.00  0.00    +0.000 NA
ATOM     32  C   UNL     1      -3.198  11.728  18.853  0.00  0.00    +0.000 A 
ENDBRANCH  20  23
ENDBRANCH   4  20
TORSDOF 4
ENDMDL
MODEL 5
REMARK VINA RESULT:      -7.9      2.346      3.120
REMARK  Name = 
REMARK  4 active torsions:
REMARK  status: ('A' for Active; 'I' for Inactive)
REMARK    1  A    between atoms: C_2  and  C_13
REMARK    2  A    between atoms: N_3  and  C_4
REMARK    3  A    between atoms: N_16  and  S_17
REMARK    4  A    between atoms: S_17  and  C_20
REMARK                            x       y       z     vdW  Elec       q    Type
REMARK                         _______ _______ _______ _____ _____    ______ ____
ROOT
ATOM      1  C   UNL     1       1.702   9.771  19.910  0.00  0.00    +0.000 C 
ATOM      2  C   UNL     1       0.692  10.603  20.714  0.00  0.00    +0.000 C 
ATOM      3  C   UNL     1      -0.735  10.483  20.169  0.00  0.00    +0.000 C 
ATOM      4  N   UNL     1      -0.774  10.876  18.729  0.00  0.00    +0.000 NA
ATOM      5  C   UNL     1       0.166  10.051  17.905  0.00  0.00    +0.000 C 
ATOM      6  C   UNL     1       1.598  10.149  18.434  0.00  0.00    +0.000 C 
ENDROOT
BRANCH   1   8
ATOM      7  O   UNL     1       0.798   7.882  21.088  0.00  0.00    +0.000 OA
ATOM      8  C   UNL     1       1.507   8.272  20.163  0.00  0.00    +0.000 C 
ATOM      9  N   UNL     1       2.245   7.447  19.329  0.00  0.00    +0.000 N 
ATOM     10  H   UNL     1       3.002   7.869  18.807  0.00  0.00    +0.000 HD
BRANCH   9  11
ATOM     11  C   UNL     1       2.213   6.031  19.363  0.00  0.00    +0.000 A 
ATOM     12  C   UNL     1       2.238   5.301  20.572  0.00  0.00    +0.000 A 
ATOM     13  C   UNL     1       2.297   3.905  20.582  0.00  0.00    +0.000 A 
ATOM     14  C   UNL     1       2.330   3.263  19.369  0.00  0.00    +0.000 A 
ATOM     15  C   UNL     1       2.260   3.957  18.184  0.00  0.00    +0.000 A 
ATOM     16  C   UNL     1       2.176   5.337  18.145  0.00  0.00    +0.000 A 
ATOM     17  O   UNL     1       2.318   3.130  17.103  0.00  0.00    +0.000 OA
ATOM     18  C   UNL     1       2.534   1.856  17.750  0.00  0.00    +0.000 C 
ATOM     19  O   UNL     1       2.443   1.921  19.185  0.00  0.00    +0.000 OA
ENDBRANCH   9  11
ENDBRANCH   1   8
BRANCH   4  20
ATOM     20  S   UNL     1      -2.387  10.829  18.060  0.00  0.00    +0.000 S 
ATOM     21  O   UNL     1      -2.299  11.467  16.761  0.00  0.00    +0.000 OA
ATOM     22  O   UNL     1      -2.867   9.466  18.139  0.00  0.00    +0.000 OA
BRANCH  20  23
ATOM     23  C   UNL     1      -3.329  11.927  19.094  0.00  0.00    +0.000 A 
ATOM     24  C   UNL     1      -2.598  12.790  19.935  0.00  0.00    +0.000 A 
ATOM     25  C   UNL     1      -3.255  13.703  20.749  0.00  0.00    +0.000 A 
ATOM     26  C   UNL     1      -4.642  13.763  20.718  0.00  0.00    +0.000 A 
ATOM     27  C   UNL     1      -5.372  12.935  19.851  0.00  0.00    +0.000 A 
ATOM     28  C   UNL     1      -6.769  13.044  19.801  0.00  0.00    +0.000 A 
ATOM     29  C   UNL     1      -7.498  12.260  18.920  0.00  0.00    +0.000 A 
ATOM     30  C   UNL     1      -6.801  11.369  18.135  0.00  0.00    +0.000 A 
ATOM     31  N   UNL     1      -5.459  11.214  18.186  0.00  0.00    +0.000 NA
ATOM     32  C   UNL     1      -4.724  11.994  19.009  0.00  0.00    +0.000 A 
ENDBRANCH  20  23
ENDBRANCH   4  20
TORSDOF 4
ENDMDL
MODEL 6
REMARK VINA RESULT:      -7.9      2.579      9.664
REMARK  Name = 
REMARK  4 active torsions:
REMARK  status: ('A' for Active; 'I' for Inactive)
REMARK    1  A    between atoms: C_2  and  C_13
REMARK    2  A    between atoms: N_3  and  C_4
REMARK    3  A    between atoms: N_16  and  S_17
REMARK    4  A    between atoms: S_17  and  C_20
REMARK                            x       y       z     vdW  Elec       q    Type
REMARK                         _______ _______ _______ _____ _____    ______ ____
ROOT
ATOM      1  C   UNL     1      -0.665  12.979  19.372  0.00  0.00    +0.000 C 
ATOM      2  C   UNL     1      -0.860  11.751  18.470  0.00  0.00    +0.000 C 
ATOM      3  C   UNL     1      -0.717  10.432  19.236  0.00  0.00    +0.000 C 
ATOM      4  N   UNL     1       0.612  10.367  19.914  0.00  0.00    +0.000 NA
ATOM      5  C   UNL     1       0.817  11.527  20.839  0.00  0.00    +0.000 C 
ATOM      6  C   UNL     1       0.673  12.858  20.100  0.00  0.00    +0.000 C 
ENDROOT
BRANCH   1   8
ATOM      7  O   UNL     1      -1.674  13.499  21.491  0.00  0.00    +0.000 OA
ATOM      8  C   UNL     1      -1.854  13.159  20.324  0.00  0.00    +0.000 C 
ATOM      9  N   UNL     1      -3.084  12.832  19.776  0.00  0.00    +0.000 N 
ATOM     10  H   UNL     1      -3.084  12.296  18.917  0.00  0.00    +0.000 HD
BRANCH   9  11
ATOM     11  C   UNL     1      -4.322  12.936  20.456  0.00  0.00    +0.000 A 
ATOM     12  C   UNL     1      -5.497  13.398  19.825  0.00  0.00    +0.000 A 
ATOM     13  C   UNL     1      -6.686  13.579  20.537  0.00  0.00    +0.000 A 
ATOM     14  C   UNL     1      -6.673  13.289  21.879  0.00  0.00    +0.000 A 
ATOM     15  C   UNL     1      -5.550  12.794  22.498  0.00  0.00    +0.000 A 
ATOM     16  C   UNL     1      -4.367  12.582  21.813  0.00  0.00    +0.000 A 
ATOM     17  O   UNL     1      -5.749  12.585  23.829  0.00  0.00    +0.000 OA
ATOM     18  C   UNL     1      -7.090  13.101  23.984  0.00  0.00    +0.000 C 
ATOM     19  O   UNL     1      -7.714  13.455  22.736  0.00  0.00    +0.000 OA
ENDBRANCH   9  11
ENDBRANCH   1   8
BRANCH   4  20
ATOM     20  S   UNL     1       0.870   8.856  20.750  0.00  0.00    +0.000 S 
ATOM     21  O   UNL     1       1.747   9.160  21.864  0.00  0.00    +0.000 OA
ATOM     22  O   UNL     1      -0.423   8.264  21.019  0.00  0.00    +0.000 OA
BRANCH  20  23
ATOM     23  C   UNL     1       1.826   7.877  19.613  0.00  0.00    +0.000 A 
ATOM     24  C   UNL     1       2.329   8.538  18.475  0.00  0.00    +0.000 A 
ATOM     25  C   UNL     1       3.113   7.855  17.554  0.00  0.00    +0.000 A 
ATOM     26  C   UNL     1       3.406   6.516  17.774  0.00  0.00    +0.000 A 
ATOM     27  C   UNL     1       2.943   5.865  18.929  0.00  0.00    +0.000 A 
ATOM     28  C   UNL     1       3.288   4.526  19.154  0.00  0.00    +0.000 A 
ATOM     29  C   UNL     1       2.870   3.884  20.310  0.00  0.00    +0.000 A 
ATOM     30  C   UNL     1       2.093   4.603  21.191  0.00  0.00    +0.000 A 
ATOM     31  N   UNL     1       1.712   5.883  20.984  0.00  0.00    +0.000 NA
ATOM     32  C   UNL     1       2.139   6.541  19.884  0.00  0.00    +0.000 A 
ENDBRANCH  20  23
ENDBRANCH   4  20
TORSDOF 4
ENDMDL
MODEL 7
REMARK VINA RESULT:      -7.9      5.072      7.130
REMARK  Name = 
REMARK  4 active torsions:
REMARK  status: ('A' for Active; 'I' for Inactive)
REMARK    1  A    between atoms: C_2  and  C_13
REMARK    2  A    between atoms: N_3  and  C_4
REMARK    3  A    between atoms: N_16  and  S_17
REMARK    4  A    between atoms: S_17  and  C_20
REMARK                            x       y       z     vdW  Elec       q    Type
REMARK                         _______ _______ _______ _____ _____    ______ ____
ROOT
ATOM      1  C   UNL     1      -1.949  13.992  21.890  0.00  0.00    +0.000 C 
ATOM      2  C   UNL     1      -2.745  13.036  22.790  0.00  0.00    +0.000 C 
ATOM      3  C   UNL     1      -4.229  12.975  22.414  0.00  0.00    +0.000 C 
ATOM      4  N   UNL     1      -4.831  14.342  22.455  0.00  0.00    +0.000 NA
ATOM      5  C   UNL     1      -4.106  15.291  21.552  0.00  0.00    +0.000 C 
ATOM      6  C   UNL     1      -2.619  15.365  21.902  0.00  0.00    +0.000 C 
ENDROOT
BRANCH   1   8
ATOM      7  O   UNL     1      -1.185  14.045  19.612  0.00  0.00    +0.000 OA
ATOM      8  C   UNL     1      -1.784  13.414  20.480  0.00  0.00    +0.000 C 
ATOM      9  N   UNL     1      -2.425  12.202  20.276  0.00  0.00    +0.000 N 
ATOM     10  H   UNL     1      -3.119  11.921  20.958  0.00  0.00    +0.000 HD
BRANCH   9  11
ATOM     11  C   UNL     1      -2.399  11.471  19.063  0.00  0.00    +0.000 A 
ATOM     12  C   UNL     1      -1.318  10.636  18.705  0.00  0.00    +0.000 A 
ATOM     13  C   UNL     1      -1.269   9.995  17.465  0.00  0.00    +0.000 A 
ATOM     14  C   UNL     1      -2.315  10.204  16.601  0.00  0.00    +0.000 A 
ATOM     15  C   UNL     1      -3.397  10.977  16.953  0.00  0.00    +0.000 A 
ATOM     16  C   UNL     1      -3.482  11.603  18.183  0.00  0.00    +0.000 A 
ATOM     17  O   UNL     1      -4.314  11.061  15.949  0.00  0.00    +0.000 OA
ATOM     18  C   UNL     1      -3.632  10.338  14.900  0.00  0.00    +0.000 C 
ATOM     19  O   UNL     1      -2.412   9.710  15.339  0.00  0.00    +0.000 OA
ENDBRANCH   9  11
ENDBRANCH   1   8
BRANCH   4  20
ATOM     20  S   UNL     1      -6.541  14.337  22.105  0.00  0.00    +0.000 S 
ATOM     21  O   UNL     1      -7.175  13.660  23.220  0.00  0.00    +0.000 OA
ATOM     22  O   UNL     1      -6.940  15.693  21.791  0.00  0.00    +0.000 OA
BRANCH  20  23
ATOM     23  C   UNL     1      -6.706  13.254  20.703  0.00  0.00    +0.000 A 
ATOM     24  C   UNL     1      -6.875  11.883  20.979  0.00  0.00    +0.000 A 
ATOM     25  C   UNL     1      -7.045  10.973  19.944  0.00  0.00    +0.000 A 
ATOM     26  C   UNL     1      -7.056  11.432  18.634  0.00  0.00    +0.000 A 
ATOM     27  C   UNL     1      -6.931  12.802  18.357  0.00  0.00    +0.000 A 
ATOM     28  C   UNL     1      -6.991  13.250  17.030  0.00  0.00    +0.000 A 
ATOM     29  C   UNL     1      -6.908  14.605  16.747  0.00  0.00    +0.000 A 
ATOM     30  C   UNL     1      -6.739  15.466  17.808  0.00  0.00    +0.000 A 
ATOM     31  N   UNL     1      -6.639  15.063  19.094  0.00  0.00    +0.000 NA
ATOM     32  C   UNL     1      -6.756  13.751  19.397  0.00  0.00    +0.000 A 
ENDBRANCH  20  23
ENDBRANCH   4  20
TORSDOF 4
ENDMDL
MODEL 8
REMARK VINA RESULT:      -7.8      2.176      3.688
REMARK  Name = 
REMARK  4 active torsions:
REMARK  status: ('A' for Active; 'I' for Inactive)
REMARK    1  A    between atoms: C_2  and  C_13
REMARK    2  A    between atoms: N_3  and  C_4
REMARK    3  A    between atoms: N_16  and  S_17
REMARK    4  A    between atoms: S_17  and  C_20
REMARK                            x       y       z     vdW  Elec       q    Type
REMARK                         _______ _______ _______ _____ _____    ______ ____
ROOT
ATOM      1  C   UNL     1       0.899   8.592  21.855  0.00  0.00    +0.000 C 
ATOM      2  C   UNL     1      -0.607   8.796  21.628  0.00  0.00    +0.000 C 
ATOM      3  C   UNL     1      -0.901   9.850  20.556  0.00  0.00    +0.000 C 
ATOM      4  N   UNL     1      -0.254  11.148  20.913  0.00  0.00    +0.000 NA
ATOM      5  C   UNL     1       1.225  10.995  21.096  0.00  0.00    +0.000 C 
ATOM      6  C   UNL     1       1.546   9.942  22.158  0.00  0.00    +0.000 C 
ENDROOT
BRANCH   1   8
ATOM      7  O   UNL     1       1.725   8.455  19.603  0.00  0.00    +0.000 OA
ATOM      8  C   UNL     1       1.543   7.868  20.667  0.00  0.00    +0.000 C 
ATOM      9  N   UNL     1       1.806   6.525  20.885  0.00  0.00    +0.000 N 
ATOM     10  H   UNL     1       1.357   6.085  21.678  0.00  0.00    +0.000 HD
BRANCH   9  11
ATOM     11  C   UNL     1       2.414   5.660  19.942  0.00  0.00    +0.000 A 
ATOM     12  C   UNL     1       2.891   6.115  18.694  0.00  0.00    +0.000 A 
ATOM     13  C   UNL     1       3.405   5.231  17.742  0.00  0.00    +0.000 A 
ATOM     14  C   UNL     1       3.430   3.897  18.062  0.00  0.00    +0.000 A 
ATOM     15  C   UNL     1       3.011   3.443  19.291  0.00  0.00    +0.000 A 
ATOM     16  C   UNL     1       2.522   4.299  20.262  0.00  0.00    +0.000 A 
ATOM     17  O   UNL     1       3.111   2.089  19.398  0.00  0.00    +0.000 OA
ATOM     18  C   UNL     1       3.542   1.745  18.062  0.00  0.00    +0.000 C 
ATOM     19  O   UNL     1       3.841   2.892  17.245  0.00  0.00    +0.000 OA
ENDBRANCH   9  11
ENDBRANCH   1   8
BRANCH   4  20
ATOM     20  S   UNL     1      -0.608  12.416  19.766  0.00  0.00    +0.000 S 
ATOM     21  O   UNL     1      -0.428  13.664  20.483  0.00  0.00    +0.000 OA
ATOM     22  O   UNL     1       0.175  12.176  18.573  0.00  0.00    +0.000 OA
BRANCH  20  23
ATOM     23  C   UNL     1      -2.353  12.264  19.459  0.00  0.00    +0.000 A 
ATOM     24  C   UNL     1      -3.218  12.771  20.449  0.00  0.00    +0.000 A 
ATOM     25  C   UNL     1      -4.595  12.722  20.272  0.00  0.00    +0.000 A 
ATOM     26  C   UNL     1      -5.109  12.178  19.104  0.00  0.00    +0.000 A 
ATOM     27  C   UNL     1      -4.250  11.710  18.096  0.00  0.00    +0.000 A 
ATOM     28  C   UNL     1      -4.789  11.206  16.904  0.00  0.00    +0.000 A 
ATOM     29  C   UNL     1      -3.951  10.779  15.886  0.00  0.00    +0.000 A 
ATOM     30  C   UNL     1      -2.594  10.846  16.110  0.00  0.00    +0.000 A 
ATOM     31  N   UNL     1      -2.044  11.291  17.262  0.00  0.00    +0.000 NA
ATOM     32  C   UNL     1      -2.840  11.749  18.253  0.00  0.00    +0.000 A 
ENDBRANCH  20  23
ENDBRANCH   4  20
TORSDOF 4
ENDMDL
MODEL 9
REMARK VINA RESULT:      -7.7      1.934      2.336
REMARK  Name = 
REMARK  4 active torsions:
REMARK  status: ('A' for Active; 'I' for Inactive)
REMARK    1  A    between atoms: C_2  and  C_13
REMARK    2  A    between atoms: N_3  and  C_4
REMARK    3  A    between atoms: N_16  and  S_17
REMARK    4  A    between atoms: S_17  and  C_20
REMARK                            x       y       z     vdW  Elec       q    Type
REMARK                         _______ _______ _______ _____ _____    ______ ____
ROOT
ATOM      1  C   UNL     1       0.514  10.027  18.250  0.00  0.00    +0.000 C 
ATOM      2  C   UNL     1       1.150  11.423  18.338  0.00  0.00    +0.000 C 
ATOM      3  C   UNL     1       1.203  11.955  19.774  0.00  0.00    +0.000 C 
ATOM      4  N   UNL     1      -0.166  11.974  20.371  0.00  0.00    +0.000 NA
ATOM      5  C   UNL     1      -0.798  10.617  20.344  0.00  0.00    +0.000 C 
ATOM      6  C   UNL     1      -0.858  10.059  18.921  0.00  0.00    +0.000 C 
ENDROOT
BRANCH   1   8
ATOM      7  O   UNL     1       1.634   8.892  20.047  0.00  0.00    +0.000 OA
ATOM      8  C   UNL     1       1.446   8.959  18.835  0.00  0.00    +0.000 C 
ATOM      9  N   UNL     1       2.084   8.172  17.890  0.00  0.00    +0.000 N 
ATOM     10  H   UNL     1       2.080   8.499  16.932  0.00  0.00    +0.000 HD
BRANCH   9  11
ATOM     11  C   UNL     1       2.974   7.112  18.193  0.00  0.00    +0.000 A 
ATOM     12  C   UNL     1       2.736   6.200  19.244  0.00  0.00    +0.000 A 
ATOM     13  C   UNL     1       3.670   5.218  19.584  0.00  0.00    +0.000 A 
ATOM     14  C   UNL     1       4.832   5.168  18.857  0.00  0.00    +0.000 A 
ATOM     15  C   UNL     1       5.058   6.019  17.800  0.00  0.00    +0.000 A 
ATOM     16  C   UNL     1       4.141   6.984  17.426  0.00  0.00    +0.000 A 
ATOM     17  O   UNL     1       6.274   5.807  17.223  0.00  0.00    +0.000 OA
ATOM     18  C   UNL     1       6.818   4.799  18.104  0.00  0.00    +0.000 C 
ATOM     19  O   UNL     1       5.871   4.321  19.079  0.00  0.00    +0.000 OA
ENDBRANCH   9  11
ENDBRANCH   1   8
BRANCH   4  20
ATOM     20  S   UNL     1      -0.189  12.636  21.986  0.00  0.00    +0.000 S 
ATOM     21  O   UNL     1      -0.253  11.499  22.884  0.00  0.00    +0.000 OA
ATOM     22  O   UNL     1       0.917  13.562  22.108  0.00  0.00    +0.000 OA
BRANCH  20  23
ATOM     23  C   UNL     1      -1.761  13.459  22.108  0.00  0.00    +0.000 A 
ATOM     24  C   UNL     1      -2.709  13.165  21.107  0.00  0.00    +0.000 A 
ATOM     25  C   UNL     1      -3.973  13.738  21.146  0.00  0.00    +0.000 A 
ATOM     26  C   UNL     1      -4.296  14.596  22.189  0.00  0.00    +0.000 A 
ATOM     27  C   UNL     1      -3.369  14.858  23.210  0.00  0.00    +0.000 A 
ATOM     28  C   UNL     1      -3.731  15.691  24.278  0.00  0.00    +0.000 A 
ATOM     29  C   UNL     1      -2.839  15.926  25.313  0.00  0.00    +0.000 A 
ATOM     30  C   UNL     1      -1.598  15.336  25.227  0.00  0.00    +0.000 A 
ATOM     31  N   UNL     1      -1.205  14.559  24.194  0.00  0.00    +0.000 NA
ATOM     32  C   UNL     1      -2.072  14.285  23.193  0.00  0.00    +0.000 A 
ENDBRANCH  20  23
ENDBRANCH   4  20
TORSDOF 4
ENDMDL
