MODEL 1
REMARK VINA RESULT:      -8.4      0.000      0.000
REMARK  Name = 
REMARK  12 active torsions:
REMARK  status: ('A' for Active; 'I' for Inactive)
REMARK    1  A    between atoms: C_1  and  C_2
REMARK    2  A    between atoms: C_2  and  C_3
REMARK    3  A    between atoms: N_10  and  O_11
REMARK    4  A    between atoms: O_11  and  C_12
REMARK    5  A    between atoms: C_12  and  C_13
REMARK    6  A    between atoms: C_13  and  C_14
REMARK    7  A    between atoms: C_14  and  C_15
REMARK    8  A    between atoms: C_15  and  O_16
REMARK    9  A    between atoms: O_16  and  C_17
REMARK   10  A    between atoms: C_21  and  C_22
REMARK   11  A    between atoms: C_22  and  C_24
REMARK   12  A    between atoms: C_25  and  C_26
REMARK                            x       y       z     vdW  Elec       q    Type
REMARK                         _______ _______ _______ _____ _____    ______ ____
ROOT
ATOM      1  C   UNL     1       8.203   9.258  17.652  0.00  0.00    +0.000 C 
ENDROOT
BRANCH   1   2
ATOM      2  C   UNL     1       9.275   9.719  18.651  0.00  0.00    +0.000 C 
BRANCH   2   3
ATOM      3  C   UNL     1       8.894  11.116  19.143  0.00  0.00    +0.000 C 
BRANCH   3   4
ATOM      4  O   UNL     1      10.029  11.936  19.432  0.00  0.00    +0.000 OA
BRANCH   4  14
ATOM      5  C   UNL     1      10.473  14.626  20.264  0.00  0.00    +0.000 C 
ATOM      6  C   UNL     1       9.697  14.311  18.973  0.00  0.00    +0.000 C 
ATOM      7  C   UNL     1       8.191  14.369  19.258  0.00  0.00    +0.000 C 
ATOM      8  N   UNL     1       9.962  15.411  18.038  0.00  0.00    +0.000 NA
ATOM      9  C   UNL     1      10.840  15.195  17.124  0.00  0.00    +0.000 C 
ATOM     10  N   UNL     1      11.142  16.181  16.245  0.00  0.00    +0.000 N 
ATOM     11  N   UNL     1      11.540  14.046  16.972  0.00  0.00    +0.000 NA
ATOM     12  C   UNL     1      11.130  12.996  17.611  0.00  0.00    +0.000 C 
ATOM     13  N   UNL     1      11.818  11.851  17.371  0.00  0.00    +0.000 N 
ATOM     14  N   UNL     1      10.051  12.976  18.460  0.00  0.00    +0.000 N 
ATOM     15  H   UNL     1      10.960  17.100  16.620  0.00  0.00    +0.000 HD
ATOM     16  H   UNL     1      12.067  16.065  15.852  0.00  0.00    +0.000 HD
ATOM     17  H   UNL     1      12.481  12.027  16.624  0.00  0.00    +0.000 HD
ATOM     18  H   UNL     1      11.221  11.079  17.115  0.00  0.00    +0.000 HD
ENDBRANCH   4  14
ENDBRANCH   3   4
ENDBRANCH   2   3
ENDBRANCH   1   2
BRANCH   1  19
ATOM     19  C   UNL     1       7.572   7.925  18.010  0.00  0.00    +0.000 C 
BRANCH  19  20
ATOM     20  O   UNL     1       7.783   7.003  16.942  0.00  0.00    +0.000 OA
BRANCH  20  21
ATOM     21  C   UNL     1       6.773   6.097  16.757  0.00  0.00    +0.000 A 
ATOM     22  C   UNL     1       7.012   5.096  15.815  0.00  0.00    +0.000 A 
ATOM     23  C   UNL     1       6.043   4.123  15.568  0.00  0.00    +0.000 A 
ATOM     24  C   UNL     1       4.823   4.164  16.253  0.00  0.00    +0.000 A 
ATOM     25  C   UNL     1       4.562   5.189  17.166  0.00  0.00    +0.000 A 
ATOM     26  C   UNL     1       5.545   6.150  17.418  0.00  0.00    +0.000 A 
BRANCH  25  27
ATOM     27  C   UNL     1       3.254   5.215  17.878  0.00  0.00    +0.000 C 
ATOM     28  O   UNL     1       2.622   4.173  18.039  0.00  0.00    +0.000 OA
BRANCH  27  29
ATOM     29  C   UNL     1       2.728   6.532  18.339  0.00  0.00    +0.000 C 
ATOM     30  C   UNL     1       2.261   6.690  19.586  0.00  0.00    +0.000 C 
BRANCH  30  31
ATOM     31  C   UNL     1       1.636   7.952  19.987  0.00  0.00    +0.000 A 
ATOM     32  C   UNL     1       1.265   8.141  21.324  0.00  0.00    +0.000 A 
ATOM     33  C   UNL     1       0.609   9.309  21.718  0.00  0.00    +0.000 A 
ATOM     34  C   UNL     1       0.323  10.299  20.778  0.00  0.00    +0.000 A 
ATOM     35  C   UNL     1       0.702  10.121  19.447  0.00  0.00    +0.000 A 
ATOM     36  C   UNL     1       1.354   8.952  19.051  0.00  0.00    +0.000 A 
ENDBRANCH  30  31
ENDBRANCH  27  29
ENDBRANCH  25  27
ENDBRANCH  20  21
ENDBRANCH  19  20
ENDBRANCH   1  19
TORSDOF 10
ENDMDL
MODEL 2
REMARK VINA RESULT:      -8.2      6.544     10.698
REMARK  Name = 
REMARK  12 active torsions:
REMARK  status: ('A' for Active; 'I' for Inactive)
REMARK    1  A    between atoms: C_1  and  C_2
REMARK    2  A    between atoms: C_2  and  C_3
REMARK    3  A    between atoms: N_10  and  O_11
REMARK    4  A    between atoms: O_11  and  C_12
REMARK    5  A    between atoms: C_12  and  C_13
REMARK    6  A    between atoms: C_13  and  C_14
REMARK    7  A    between atoms: C_14  and  C_15
REMARK    8  A    between atoms: C_15  and  O_16
REMARK    9  A    between atoms: O_16  and  C_17
REMARK   10  A    between atoms: C_21  and  C_22
REMARK   11  A    between atoms: C_22  and  C_24
REMARK   12  A    between atoms: C_25  and  C_26
REMARK                            x       y       z     vdW  Elec       q    Type
REMARK                         _______ _______ _______ _____ _____    ______ ____
ROOT
ATOM      1  C   UNL     1       2.172   9.441  18.102  0.00  0.00    +0.000 C 
ENDROOT
BRANCH   1   2
ATOM      2  C   UNL     1       2.825   8.121  17.664  0.00  0.00    +0.000 C 
BRANCH   2   3
ATOM      3  C   UNL     1       2.493   7.058  18.712  0.00  0.00    +0.000 C 
BRANCH   3   4
ATOM      4  O   UNL     1       2.384   5.744  18.161  0.00  0.00    +0.000 OA
BRANCH   4  14
ATOM      5  C   UNL     1       1.559   3.026  18.404  0.00  0.00    +0.000 C 
ATOM      6  C   UNL     1       2.319   3.731  19.542  0.00  0.00    +0.000 C 
ATOM      7  C   UNL     1       1.316   4.231  20.590  0.00  0.00    +0.000 C 
ATOM      8  N   UNL     1       3.117   2.703  20.221  0.00  0.00    +0.000 NA
ATOM      9  C   UNL     1       4.366   2.646  19.920  0.00  0.00    +0.000 C 
ATOM     10  N   UNL     1       5.149   1.704  20.498  0.00  0.00    +0.000 N 
ATOM     11  N   UNL     1       4.987   3.446  19.021  0.00  0.00    +0.000 NA
ATOM     12  C   UNL     1       4.364   4.512  18.623  0.00  0.00    +0.000 C 
ATOM     13  N   UNL     1       5.055   5.321  17.781  0.00  0.00    +0.000 N 
ATOM     14  N   UNL     1       3.101   4.868  19.025  0.00  0.00    +0.000 N 
ATOM     15  H   UNL     1       4.621   0.895  20.795  0.00  0.00    +0.000 HD
ATOM     16  H   UNL     1       5.960   1.491  19.935  0.00  0.00    +0.000 HD
ATOM     17  H   UNL     1       6.005   4.972  17.709  0.00  0.00    +0.000 HD
ATOM     18  H   UNL     1       5.073   6.282  18.084  0.00  0.00    +0.000 HD
ENDBRANCH   4  14
ENDBRANCH   3   4
ENDBRANCH   2   3
ENDBRANCH   1   2
BRANCH   1  19
ATOM     19  C   UNL     1       0.838   9.255  18.802  0.00  0.00    +0.000 C 
BRANCH  19  20
ATOM     20  O   UNL     1       0.321  10.530  19.177  0.00  0.00    +0.000 OA
BRANCH  20  21
ATOM     21  C   UNL     1      -0.111  10.617  20.474  0.00  0.00    +0.000 A 
ATOM     22  C   UNL     1      -0.124   9.424  21.196  0.00  0.00    +0.000 A 
ATOM     23  C   UNL     1      -0.539   9.419  22.528  0.00  0.00    +0.000 A 
ATOM     24  C   UNL     1      -0.960  10.609  23.133  0.00  0.00    +0.000 A 
ATOM     25  C   UNL     1      -0.988  11.799  22.401  0.00  0.00    +0.000 A 
ATOM     26  C   UNL     1      -0.557  11.797  21.071  0.00  0.00    +0.000 A 
BRANCH  25  27
ATOM     27  C   UNL     1      -1.446  13.052  23.063  0.00  0.00    +0.000 C 
ATOM     28  O   UNL     1      -0.640  13.751  23.676  0.00  0.00    +0.000 OA
BRANCH  27  29
ATOM     29  C   UNL     1      -2.894  13.397  22.996  0.00  0.00    +0.000 C 
ATOM     30  C   UNL     1      -3.647  13.431  24.107  0.00  0.00    +0.000 C 
BRANCH  30  31
ATOM     31  C   UNL     1      -5.091  13.651  24.013  0.00  0.00    +0.000 A 
ATOM     32  C   UNL     1      -5.963  12.567  24.169  0.00  0.00    +0.000 A 
ATOM     33  C   UNL     1      -7.341  12.740  24.020  0.00  0.00    +0.000 A 
ATOM     34  C   UNL     1      -7.857  14.000  23.719  0.00  0.00    +0.000 A 
ATOM     35  C   UNL     1      -6.994  15.087  23.574  0.00  0.00    +0.000 A 
ATOM     36  C   UNL     1      -5.616  14.914  23.718  0.00  0.00    +0.000 A 
ENDBRANCH  30  31
ENDBRANCH  27  29
ENDBRANCH  25  27
ENDBRANCH  20  21
ENDBRANCH  19  20
ENDBRANCH   1  19
TORSDOF 10
ENDMDL
MODEL 3
REMARK VINA RESULT:      -8.0      6.314     10.428
REMARK  Name = 
REMARK  12 active torsions:
REMARK  status: ('A' for Active; 'I' for Inactive)
REMARK    1  A    between atoms: C_1  and  C_2
REMARK    2  A    between atoms: C_2  and  C_3
REMARK    3  A    between atoms: N_10  and  O_11
REMARK    4  A    between atoms: O_11  and  C_12
REMARK    5  A    between atoms: C_12  and  C_13
REMARK    6  A    between atoms: C_13  and  C_14
REMARK    7  A    between atoms: C_14  and  C_15
REMARK    8  A    between atoms: C_15  and  O_16
REMARK    9  A    between atoms: O_16  and  C_17
REMARK   10  A    between atoms: C_21  and  C_22
REMARK   11  A    between atoms: C_22  and  C_24
REMARK   12  A    between atoms: C_25  and  C_26
REMARK                            x       y       z     vdW  Elec       q    Type
REMARK                         _______ _______ _______ _____ _____    ______ ____
ROOT
ATOM      1  C   UNL     1       1.645   9.250  17.732  0.00  0.00    +0.000 C 
ENDROOT
BRANCH   1   2
ATOM      2  C   UNL     1       2.877   8.340  17.868  0.00  0.00    +0.000 C 
BRANCH   2   3
ATOM      3  C   UNL     1       2.407   6.987  18.405  0.00  0.00    +0.000 C 
BRANCH   3   4
ATOM      4  O   UNL     1       2.969   5.879  17.697  0.00  0.00    +0.000 OA
BRANCH   4  14
ATOM      5  C   UNL     1       2.493   3.099  17.290  0.00  0.00    +0.000 C 
ATOM      6  C   UNL     1       2.656   3.679  18.706  0.00  0.00    +0.000 C 
ATOM      7  C   UNL     1       1.270   3.925  19.317  0.00  0.00    +0.000 C 
ATOM      8  N   UNL     1       3.265   2.627  19.529  0.00  0.00    +0.000 NA
ATOM      9  C   UNL     1       4.529   2.720  19.746  0.00  0.00    +0.000 C 
ATOM     10  N   UNL     1       5.151   1.767  20.481  0.00  0.00    +0.000 N 
ATOM     11  N   UNL     1       5.332   3.698  19.264  0.00  0.00    +0.000 NA
ATOM     12  C   UNL     1       4.769   4.758  18.770  0.00  0.00    +0.000 C 
ATOM     13  N   UNL     1       5.613   5.741  18.368  0.00  0.00    +0.000 N 
ATOM     14  N   UNL     1       3.413   4.942  18.673  0.00  0.00    +0.000 N 
ATOM     15  H   UNL     1       4.666   0.882  20.452  0.00  0.00    +0.000 HD
ATOM     16  H   UNL     1       6.138   1.712  20.267  0.00  0.00    +0.000 HD
ATOM     17  H   UNL     1       6.555   5.487  18.641  0.00  0.00    +0.000 HD
ATOM     18  H   UNL     1       5.382   6.642  18.757  0.00  0.00    +0.000 HD
ENDBRANCH   4  14
ENDBRANCH   3   4
ENDBRANCH   2   3
ENDBRANCH   1   2
BRANCH   1  19
ATOM     19  C   UNL     1       0.777   9.286  18.977  0.00  0.00    +0.000 C 
BRANCH  19  20
ATOM     20  O   UNL     1       1.076  10.464  19.725  0.00  0.00    +0.000 OA
BRANCH  20  21
ATOM     21  C   UNL     1       0.362  10.603  20.886  0.00  0.00    +0.000 A 
ATOM     22  C   UNL     1       0.132   9.432  21.607  0.00  0.00    +0.000 A 
ATOM     23  C   UNL     1      -0.576   9.479  22.808  0.00  0.00    +0.000 A 
ATOM     24  C   UNL     1      -1.072  10.701  23.278  0.00  0.00    +0.000 A 
ATOM     25  C   UNL     1      -0.881  11.870  22.538  0.00  0.00    +0.000 A 
ATOM     26  C   UNL     1      -0.157  11.815  21.343  0.00  0.00    +0.000 A 
BRANCH  25  27
ATOM     27  C   UNL     1      -1.423  13.157  23.054  0.00  0.00    +0.000 C 
ATOM     28  O   UNL     1      -0.726  13.872  23.772  0.00  0.00    +0.000 OA
BRANCH  27  29
ATOM     29  C   UNL     1      -2.828  13.518  22.713  0.00  0.00    +0.000 C 
ATOM     30  C   UNL     1      -3.659  12.617  22.168  0.00  0.00    +0.000 C 
BRANCH  30  31
ATOM     31  C   UNL     1      -4.997  13.018  21.727  0.00  0.00    +0.000 A 
ATOM     32  C   UNL     1      -5.576  14.177  22.255  0.00  0.00    +0.000 A 
ATOM     33  C   UNL     1      -6.876  14.545  21.899  0.00  0.00    +0.000 A 
ATOM     34  C   UNL     1      -7.604  13.757  21.009  0.00  0.00    +0.000 A 
ATOM     35  C   UNL     1      -7.027  12.607  20.469  0.00  0.00    +0.000 A 
ATOM     36  C   UNL     1      -5.730  12.236  20.828  0.00  0.00    +0.000 A 
ENDBRANCH  30  31
ENDBRANCH  27  29
ENDBRANCH  25  27
ENDBRANCH  20  21
ENDBRANCH  19  20
ENDBRANCH   1  19
TORSDOF 10
ENDMDL
MODEL 4
REMARK VINA RESULT:      -7.8      1.460      1.829
REMARK  Name = 
REMARK  12 active torsions:
REMARK  status: ('A' for Active; 'I' for Inactive)
REMARK    1  A    between atoms: C_1  and  C_2
REMARK    2  A    between atoms: C_2  and  C_3
REMARK    3  A    between atoms: N_10  and  O_11
REMARK    4  A    between atoms: O_11  and  C_12
REMARK    5  A    between atoms: C_12  and  C_13
REMARK    6  A    between atoms: C_13  and  C_14
REMARK    7  A    between atoms: C_14  and  C_15
REMARK    8  A    between atoms: C_15  and  O_16
REMARK    9  A    between atoms: O_16  and  C_17
REMARK   10  A    between atoms: C_21  and  C_22
REMARK   11  A    between atoms: C_22  and  C_24
REMARK   12  A    between atoms: C_25  and  C_26
REMARK                            x       y       z     vdW  Elec       q    Type
REMARK                         _______ _______ _______ _____ _____    ______ ____
ROOT
ATOM      1  C   UNL     1       8.653   9.119  18.444  0.00  0.00    +0.000 C 
ENDROOT
BRANCH   1   2
ATOM      2  C   UNL     1       9.503  10.353  18.101  0.00  0.00    +0.000 C 
BRANCH   2   3
ATOM      3  C   UNL     1       9.326  11.376  19.224  0.00  0.00    +0.000 C 
BRANCH   3   4
ATOM      4  O   UNL     1      10.468  12.217  19.399  0.00  0.00    +0.000 OA
BRANCH   4  14
ATOM      5  C   UNL     1      10.675  14.841  20.493  0.00  0.00    +0.000 C 
ATOM      6  C   UNL     1       9.832  14.569  19.235  0.00  0.00    +0.000 C 
ATOM      7  C   UNL     1       8.359  14.414  19.635  0.00  0.00    +0.000 C 
ATOM      8  N   UNL     1       9.889  15.783  18.413  0.00  0.00    +0.000 NA
ATOM      9  C   UNL     1      10.704  15.772  17.418  0.00  0.00    +0.000 C 
ATOM     10  N   UNL     1      10.817  16.872  16.636  0.00  0.00    +0.000 N 
ATOM     11  N   UNL     1      11.515  14.738  17.087  0.00  0.00    +0.000 NA
ATOM     12  C   UNL     1      11.282  13.585  17.633  0.00  0.00    +0.000 C 
ATOM     13  N   UNL     1      12.072  12.563  17.216  0.00  0.00    +0.000 N 
ATOM     14  N   UNL     1      10.290  13.347  18.550  0.00  0.00    +0.000 N 
ATOM     15  H   UNL     1      10.564  17.719  17.125  0.00  0.00    +0.000 HD
ATOM     16  H   UNL     1      11.711  16.910  16.166  0.00  0.00    +0.000 HD
ATOM     17  H   UNL     1      12.644  12.895  16.447  0.00  0.00    +0.000 HD
ATOM     18  H   UNL     1      11.547  11.755  16.919  0.00  0.00    +0.000 HD
ENDBRANCH   4  14
ENDBRANCH   3   4
ENDBRANCH   2   3
ENDBRANCH   1   2
BRANCH   1  19
ATOM     19  C   UNL     1       7.532   8.859  17.455  0.00  0.00    +0.000 C 
BRANCH  19  20
ATOM     20  O   UNL     1       7.570   7.492  17.050  0.00  0.00    +0.000 OA
BRANCH  20  21
ATOM     21  C   UNL     1       6.648   6.686  17.663  0.00  0.00    +0.000 A 
ATOM     22  C   UNL     1       7.160   5.594  18.364  0.00  0.00    +0.000 A 
ATOM     23  C   UNL     1       6.296   4.724  19.030  0.00  0.00    +0.000 A 
ATOM     24  C   UNL     1       4.914   4.937  18.977  0.00  0.00    +0.000 A 
ATOM     25  C   UNL     1       4.393   6.005  18.242  0.00  0.00    +0.000 A 
ATOM     26  C   UNL     1       5.268   6.880  17.591  0.00  0.00    +0.000 A 
BRANCH  25  27
ATOM     27  C   UNL     1       2.920   6.209  18.195  0.00  0.00    +0.000 C 
ATOM     28  O   UNL     1       2.188   5.308  17.786  0.00  0.00    +0.000 OA
BRANCH  27  29
ATOM     29  C   UNL     1       2.377   7.534  18.609  0.00  0.00    +0.000 C 
ATOM     30  C   UNL     1       1.889   8.394  17.702  0.00  0.00    +0.000 C 
BRANCH  30  31
ATOM     31  C   UNL     1       1.472   9.738  18.108  0.00  0.00    +0.000 A 
ATOM     32  C   UNL     1       2.380  10.798  18.008  0.00  0.00    +0.000 A 
ATOM     33  C   UNL     1       2.028  12.076  18.450  0.00  0.00    +0.000 A 
ATOM     34  C   UNL     1       0.762  12.303  18.989  0.00  0.00    +0.000 A 
ATOM     35  C   UNL     1      -0.152  11.252  19.080  0.00  0.00    +0.000 A 
ATOM     36  C   UNL     1       0.201   9.973  18.644  0.00  0.00    +0.000 A 
ENDBRANCH  30  31
ENDBRANCH  27  29
ENDBRANCH  25  27
ENDBRANCH  20  21
ENDBRANCH  19  20
ENDBRANCH   1  19
TORSDOF 10
ENDMDL
MODEL 5
REMARK VINA RESULT:      -7.8      4.844      9.574
REMARK  Name = 
REMARK  12 active torsions:
REMARK  status: ('A' for Active; 'I' for Inactive)
REMARK    1  A    between atoms: C_1  and  C_2
REMARK    2  A    between atoms: C_2  and  C_3
REMARK    3  A    between atoms: N_10  and  O_11
REMARK    4  A    between atoms: O_11  and  C_12
REMARK    5  A    between atoms: C_12  and  C_13
REMARK    6  A    between atoms: C_13  and  C_14
REMARK    7  A    between atoms: C_14  and  C_15
REMARK    8  A    between atoms: C_15  and  O_16
REMARK    9  A    between atoms: O_16  and  C_17
REMARK   10  A    between atoms: C_21  and  C_22
REMARK   11  A    between atoms: C_22  and  C_24
REMARK   12  A    between atoms: C_25  and  C_26
REMARK                            x       y       z     vdW  Elec       q    Type
REMARK                         _______ _______ _______ _____ _____    ______ ____
ROOT
ATOM      1  C   UNL     1       8.541  10.201  18.262  0.00  0.00    +0.000 C 
ENDROOT
BRANCH   1   2
ATOM      2  C   UNL     1       8.587   8.678  18.463  0.00  0.00    +0.000 C 
BRANCH   2   3
ATOM      3  C   UNL     1       7.635   8.039  17.450  0.00  0.00    +0.000 C 
BRANCH   3   4
ATOM      4  O   UNL     1       7.838   6.631  17.304  0.00  0.00    +0.000 OA
BRANCH   4  14
ATOM      5  C   UNL     1       6.724   4.425  15.884  0.00  0.00    +0.000 C 
ATOM      6  C   UNL     1       5.852   5.306  16.796  0.00  0.00    +0.000 C 
ATOM      7  C   UNL     1       5.118   6.349  15.943  0.00  0.00    +0.000 C 
ATOM      8  N   UNL     1       4.802   4.440  17.346  0.00  0.00    +0.000 NA
ATOM      9  C   UNL     1       4.973   4.011  18.546  0.00  0.00    +0.000 C 
ATOM     10  N   UNL     1       4.048   3.191  19.100  0.00  0.00    +0.000 N 
ATOM     11  N   UNL     1       6.047   4.286  19.324  0.00  0.00    +0.000 NA
ATOM     12  C   UNL     1       6.835   5.248  18.956  0.00  0.00    +0.000 C 
ATOM     13  N   UNL     1       7.854   5.535  19.805  0.00  0.00    +0.000 N 
ATOM     14  N   UNL     1       6.674   5.987  17.811  0.00  0.00    +0.000 N 
ATOM     15  H   UNL     1       3.527   2.675  18.405  0.00  0.00    +0.000 HD
ATOM     16  H   UNL     1       4.443   2.622  19.836  0.00  0.00    +0.000 HD
ATOM     17  H   UNL     1       7.732   4.987  20.649  0.00  0.00    +0.000 HD
ATOM     18  H   UNL     1       7.904   6.513  20.044  0.00  0.00    +0.000 HD
ENDBRANCH   4  14
ENDBRANCH   3   4
ENDBRANCH   2   3
ENDBRANCH   1   2
BRANCH   1  19
ATOM     19  C   UNL     1       9.736  10.928  18.850  0.00  0.00    +0.000 C 
BRANCH  19  20
ATOM     20  O   UNL     1      10.508  11.497  17.793  0.00  0.00    +0.000 OA
BRANCH  20  21
ATOM     21  C   UNL     1      10.581  12.864  17.807  0.00  0.00    +0.000 A 
ATOM     22  C   UNL     1      11.479  13.439  16.909  0.00  0.00    +0.000 A 
ATOM     23  C   UNL     1      11.613  14.826  16.846  0.00  0.00    +0.000 A 
ATOM     24  C   UNL     1      10.859  15.640  17.699  0.00  0.00    +0.000 A 
ATOM     25  C   UNL     1       9.988  15.067  18.630  0.00  0.00    +0.000 A 
ATOM     26  C   UNL     1       9.850  13.677  18.675  0.00  0.00    +0.000 A 
BRANCH  25  27
ATOM     27  C   UNL     1       9.200  15.952  19.532  0.00  0.00    +0.000 C 
ATOM     28  O   UNL     1       9.777  16.779  20.237  0.00  0.00    +0.000 OA
BRANCH  27  29
ATOM     29  C   UNL     1       7.722  15.771  19.583  0.00  0.00    +0.000 C 
ATOM     30  C   UNL     1       6.955  16.053  18.518  0.00  0.00    +0.000 C 
BRANCH  30  31
ATOM     31  C   UNL     1       5.496  15.987  18.621  0.00  0.00    +0.000 A 
ATOM     32  C   UNL     1       4.795  15.049  17.854  0.00  0.00    +0.000 A 
ATOM     33  C   UNL     1       3.399  15.011  17.885  0.00  0.00    +0.000 A 
ATOM     34  C   UNL     1       2.695  15.908  18.687  0.00  0.00    +0.000 A 
ATOM     35  C   UNL     1       3.389  16.837  19.463  0.00  0.00    +0.000 A 
ATOM     36  C   UNL     1       4.784  16.880  19.429  0.00  0.00    +0.000 A 
ENDBRANCH  30  31
ENDBRANCH  27  29
ENDBRANCH  25  27
ENDBRANCH  20  21
ENDBRANCH  19  20
ENDBRANCH   1  19
TORSDOF 10
ENDMDL
MODEL 6
REMARK VINA RESULT:      -7.8      6.001      8.127
REMARK  Name = 
REMARK  12 active torsions:
REMARK  status: ('A' for Active; 'I' for Inactive)
REMARK    1  A    between atoms: C_1  and  C_2
REMARK    2  A    between atoms: C_2  and  C_3
REMARK    3  A    between atoms: N_10  and  O_11
REMARK    4  A    between atoms: O_11  and  C_12
REMARK    5  A    between atoms: C_12  and  C_13
REMARK    6  A    between atoms: C_13  and  C_14
REMARK    7  A    between atoms: C_14  and  C_15
REMARK    8  A    between atoms: C_15  and  O_16
REMARK    9  A    between atoms: O_16  and  C_17
REMARK   10  A    between atoms: C_21  and  C_22
REMARK   11  A    between atoms: C_22  and  C_24
REMARK   12  A    between atoms: C_25  and  C_26
REMARK                            x       y       z     vdW  Elec       q    Type
REMARK                         _______ _______ _______ _____ _____    ______ ____
ROOT
ATOM      1  C   UNL     1       2.484   3.281  20.124  0.00  0.00    +0.000 C 
ENDROOT
BRANCH   1   2
ATOM      2  C   UNL     1       3.490   2.781  19.076  0.00  0.00    +0.000 C 
BRANCH   2   3
ATOM      3  C   UNL     1       4.877   3.294  19.469  0.00  0.00    +0.000 C 
BRANCH   3   4
ATOM      4  O   UNL     1       5.148   4.607  18.976  0.00  0.00    +0.000 OA
BRANCH   4  14
ATOM      5  C   UNL     1       4.491   6.424  16.880  0.00  0.00    +0.000 C 
ATOM      6  C   UNL     1       4.984   4.999  16.572  0.00  0.00    +0.000 C 
ATOM      7  C   UNL     1       3.777   4.092  16.296  0.00  0.00    +0.000 C 
ATOM      8  N   UNL     1       5.720   5.068  15.304  0.00  0.00    +0.000 NA
ATOM      9  C   UNL     1       7.003   5.097  15.380  0.00  0.00    +0.000 C 
ATOM     10  N   UNL     1       7.737   5.183  14.244  0.00  0.00    +0.000 N 
ATOM     11  N   UNL     1       7.716   5.084  16.532  0.00  0.00    +0.000 NA
ATOM     12  C   UNL     1       7.098   4.758  17.624  0.00  0.00    +0.000 C 
ATOM     13  N   UNL     1       7.868   4.687  18.739  0.00  0.00    +0.000 N 
ATOM     14  N   UNL     1       5.761   4.456  17.700  0.00  0.00    +0.000 N 
ATOM     15  H   UNL     1       7.225   5.613  13.487  0.00  0.00    +0.000 HD
ATOM     16  H   UNL     1       8.649   5.584  14.414  0.00  0.00    +0.000 HD
ATOM     17  H   UNL     1       8.837   4.804  18.467  0.00  0.00    +0.000 HD
ATOM     18  H   UNL     1       7.762   3.816  19.236  0.00  0.00    +0.000 HD
ENDBRANCH   4  14
ENDBRANCH   3   4
ENDBRANCH   2   3
ENDBRANCH   1   2
BRANCH   1  19
ATOM     19  C   UNL     1       1.638   4.447  19.646  0.00  0.00    +0.000 C 
BRANCH  19  20
ATOM     20  O   UNL     1       2.487   5.553  19.345  0.00  0.00    +0.000 OA
BRANCH  20  21
ATOM     21  C   UNL     1       1.998   6.774  19.728  0.00  0.00    +0.000 A 
ATOM     22  C   UNL     1       1.561   6.872  21.048  0.00  0.00    +0.000 A 
ATOM     23  C   UNL     1       1.057   8.081  21.530  0.00  0.00    +0.000 A 
ATOM     24  C   UNL     1       0.973   9.190  20.679  0.00  0.00    +0.000 A 
ATOM     25  C   UNL     1       1.370   9.085  19.344  0.00  0.00    +0.000 A 
ATOM     26  C   UNL     1       1.888   7.873  18.875  0.00  0.00    +0.000 A 
BRANCH  25  27
ATOM     27  C   UNL     1       1.265  10.275  18.456  0.00  0.00    +0.000 C 
ATOM     28  O   UNL     1       2.281  10.767  17.967  0.00  0.00    +0.000 OA
BRANCH  27  29
ATOM     29  C   UNL     1      -0.084  10.865  18.222  0.00  0.00    +0.000 C 
ATOM     30  C   UNL     1      -1.126  10.091  17.884  0.00  0.00    +0.000 C 
BRANCH  30  31
ATOM     31  C   UNL     1      -2.414  10.696  17.539  0.00  0.00    +0.000 A 
ATOM     32  C   UNL     1      -3.177  11.306  18.542  0.00  0.00    +0.000 A 
ATOM     33  C   UNL     1      -4.438  11.832  18.251  0.00  0.00    +0.000 A 
ATOM     34  C   UNL     1      -4.942  11.757  16.954  0.00  0.00    +0.000 A 
ATOM     35  C   UNL     1      -4.181  11.161  15.947  0.00  0.00    +0.000 A 
ATOM     36  C   UNL     1      -2.922  10.630  16.238  0.00  0.00    +0.000 A 
ENDBRANCH  30  31
ENDBRANCH  27  29
ENDBRANCH  25  27
ENDBRANCH  20  21
ENDBRANCH  19  20
ENDBRANCH   1  19
TORSDOF 10
ENDMDL
MODEL 7
REMARK VINA RESULT:      -7.7      6.310     10.227
REMARK  Name = 
REMARK  12 active torsions:
REMARK  status: ('A' for Active; 'I' for Inactive)
REMARK    1  A    between atoms: C_1  and  C_2
REMARK    2  A    between atoms: C_2  and  C_3
REMARK    3  A    between atoms: N_10  and  O_11
REMARK    4  A    between atoms: O_11  and  C_12
REMARK    5  A    between atoms: C_12  and  C_13
REMARK    6  A    between atoms: C_13  and  C_14
REMARK    7  A    between atoms: C_14  and  C_15
REMARK    8  A    between atoms: C_15  and  O_16
REMARK    9  A    between atoms: O_16  and  C_17
REMARK   10  A    between atoms: C_21  and  C_22
REMARK   11  A    between atoms: C_22  and  C_24
REMARK   12  A    between atoms: C_25  and  C_26
REMARK                            x       y       z     vdW  Elec       q    Type
REMARK                         _______ _______ _______ _____ _____    ______ ____
ROOT
ATOM      1  C   UNL     1       1.713   9.064  17.724  0.00  0.00    +0.000 C 
ENDROOT
BRANCH   1   2
ATOM      2  C   UNL     1       1.866   7.627  18.244  0.00  0.00    +0.000 C 
BRANCH   2   3
ATOM      3  C   UNL     1       3.324   7.208  18.053  0.00  0.00    +0.000 C 
BRANCH   3   4
ATOM      4  O   UNL     1       3.462   5.924  17.438  0.00  0.00    +0.000 OA
BRANCH   4  14
ATOM      5  C   UNL     1       2.746   3.183  17.123  0.00  0.00    +0.000 C 
ATOM      6  C   UNL     1       2.895   3.811  18.521  0.00  0.00    +0.000 C 
ATOM      7  C   UNL     1       1.511   4.211  19.048  0.00  0.00    +0.000 C 
ATOM      8  N   UNL     1       3.363   2.747  19.417  0.00  0.00    +0.000 NA
ATOM      9  C   UNL     1       4.618   2.733  19.695  0.00  0.00    +0.000 C 
ATOM     10  N   UNL     1       5.113   1.762  20.499  0.00  0.00    +0.000 N 
ATOM     11  N   UNL     1       5.532   3.610  19.214  0.00  0.00    +0.000 NA
ATOM     12  C   UNL     1       5.095   4.693  18.649  0.00  0.00    +0.000 C 
ATOM     13  N   UNL     1       6.046   5.575  18.250  0.00  0.00    +0.000 N 
ATOM     14  N   UNL     1       3.769   4.996  18.474  0.00  0.00    +0.000 N 
ATOM     15  H   UNL     1       4.549   0.924  20.483  0.00  0.00    +0.000 HD
ATOM     16  H   UNL     1       6.099   1.606  20.339  0.00  0.00    +0.000 HD
ATOM     17  H   UNL     1       6.946   5.248  18.582  0.00  0.00    +0.000 HD
ATOM     18  H   UNL     1       5.882   6.511  18.589  0.00  0.00    +0.000 HD
ENDBRANCH   4  14
ENDBRANCH   3   4
ENDBRANCH   2   3
ENDBRANCH   1   2
BRANCH   1  19
ATOM     19  C   UNL     1       1.394  10.073  18.812  0.00  0.00    +0.000 C 
BRANCH  19  20
ATOM     20  O   UNL     1       1.143   9.383  20.035  0.00  0.00    +0.000 OA
BRANCH  20  21
ATOM     21  C   UNL     1       0.344  10.055  20.922  0.00  0.00    +0.000 A 
ATOM     22  C   UNL     1       0.127   9.428  22.148  0.00  0.00    +0.000 A 
ATOM     23  C   UNL     1      -0.666  10.044  23.117  0.00  0.00    +0.000 A 
ATOM     24  C   UNL     1      -1.258  11.284  22.849  0.00  0.00    +0.000 A 
ATOM     25  C   UNL     1      -1.078  11.896  21.606  0.00  0.00    +0.000 A 
ATOM     26  C   UNL     1      -0.270  11.278  20.647  0.00  0.00    +0.000 A 
BRANCH  25  27
ATOM     27  C   UNL     1      -1.723  13.211  21.341  0.00  0.00    +0.000 C 
ATOM     28  O   UNL     1      -1.092  14.252  21.521  0.00  0.00    +0.000 OA
BRANCH  27  29
ATOM     29  C   UNL     1      -3.148  13.223  20.902  0.00  0.00    +0.000 C 
ATOM     30  C   UNL     1      -3.580  12.395  19.939  0.00  0.00    +0.000 C 
BRANCH  30  31
ATOM     31  C   UNL     1      -4.950  12.501  19.434  0.00  0.00    +0.000 A 
ATOM     32  C   UNL     1      -5.976  12.887  20.304  0.00  0.00    +0.000 A 
ATOM     33  C   UNL     1      -7.300  12.933  19.862  0.00  0.00    +0.000 A 
ATOM     34  C   UNL     1      -7.607  12.597  18.545  0.00  0.00    +0.000 A 
ATOM     35  C   UNL     1      -6.587  12.222  17.669  0.00  0.00    +0.000 A 
ATOM     36  C   UNL     1      -5.263  12.172  18.111  0.00  0.00    +0.000 A 
ENDBRANCH  30  31
ENDBRANCH  27  29
ENDBRANCH  25  27
ENDBRANCH  20  21
ENDBRANCH  19  20
ENDBRANCH   1  19
TORSDOF 10
ENDMDL
MODEL 8
REMARK VINA RESULT:      -7.7      6.553      9.719
REMARK  Name = 
REMARK  12 active torsions:
REMARK  status: ('A' for Active; 'I' for Inactive)
REMARK    1  A    between atoms: C_1  and  C_2
REMARK    2  A    between atoms: C_2  and  C_3
REMARK    3  A    between atoms: N_10  and  O_11
REMARK    4  A    between atoms: O_11  and  C_12
REMARK    5  A    between atoms: C_12  and  C_13
REMARK    6  A    between atoms: C_13  and  C_14
REMARK    7  A    between atoms: C_14  and  C_15
REMARK    8  A    between atoms: C_15  and  O_16
REMARK    9  A    between atoms: O_16  and  C_17
REMARK   10  A    between atoms: C_21  and  C_22
REMARK   11  A    between atoms: C_22  and  C_24
REMARK   12  A    between atoms: C_25  and  C_26
REMARK                            x       y       z     vdW  Elec       q    Type
REMARK                         _______ _______ _______ _____ _____    ______ ____
ROOT
ATOM      1  C   UNL     1       4.505   7.201  17.844  0.00  0.00    +0.000 C 
ENDROOT
BRANCH   1   2
ATOM      2  C   UNL     1       5.117   6.125  16.934  0.00  0.00    +0.000 C 
BRANCH   2   3
ATOM      3  C   UNL     1       4.022   5.111  16.598  0.00  0.00    +0.000 C 
BRANCH   3   4
ATOM      4  O   UNL     1       4.263   3.820  17.163  0.00  0.00    +0.000 OA
BRANCH   4  14
ATOM      5  C   UNL     1       2.299   1.836  17.736  0.00  0.00    +0.000 C 
ATOM      6  C   UNL     1       2.299   3.190  18.468  0.00  0.00    +0.000 C 
ATOM      7  C   UNL     1       1.292   4.132  17.796  0.00  0.00    +0.000 C 
ATOM      8  N   UNL     1       1.769   2.946  19.815  0.00  0.00    +0.000 NA
ATOM      9  C   UNL     1       2.627   2.849  20.767  0.00  0.00    +0.000 C 
ATOM     10  N   UNL     1       2.199   2.602  22.029  0.00  0.00    +0.000 N 
ATOM     11  N   UNL     1       3.970   2.941  20.617  0.00  0.00    +0.000 NA
ATOM     12  C   UNL     1       4.425   3.415  19.500  0.00  0.00    +0.000 C 
ATOM     13  N   UNL     1       5.773   3.557  19.424  0.00  0.00    +0.000 N 
ATOM     14  N   UNL     1       3.640   3.801  18.443  0.00  0.00    +0.000 N 
ATOM     15  H   UNL     1       1.309   2.125  22.046  0.00  0.00    +0.000 HD
ATOM     16  H   UNL     1       2.917   2.169  22.592  0.00  0.00    +0.000 HD
ATOM     17  H   UNL     1       6.168   3.355  20.335  0.00  0.00    +0.000 HD
ATOM     18  H   UNL     1       6.056   4.480  19.132  0.00  0.00    +0.000 HD
ENDBRANCH   4  14
ENDBRANCH   3   4
ENDBRANCH   2   3
ENDBRANCH   1   2
BRANCH   1  19
ATOM     19  C   UNL     1       2.987   7.194  17.857  0.00  0.00    +0.000 C 
BRANCH  19  20
ATOM     20  O   UNL     1       2.528   7.209  19.208  0.00  0.00    +0.000 OA
BRANCH  20  21
ATOM     21  C   UNL     1       1.800   8.316  19.554  0.00  0.00    +0.000 A 
ATOM     22  C   UNL     1       1.552   9.231  18.532  0.00  0.00    +0.000 A 
ATOM     23  C   UNL     1       0.810  10.384  18.790  0.00  0.00    +0.000 A 
ATOM     24  C   UNL     1       0.331  10.630  20.082  0.00  0.00    +0.000 A 
ATOM     25  C   UNL     1       0.613   9.737  21.120  0.00  0.00    +0.000 A 
ATOM     26  C   UNL     1       1.344   8.578  20.847  0.00  0.00    +0.000 A 
BRANCH  25  27
ATOM     27  C   UNL     1       0.099  10.023  22.487  0.00  0.00    +0.000 C 
ATOM     28  O   UNL     1       0.713   9.614  23.472  0.00  0.00    +0.000 OA
BRANCH  27  29
ATOM     29  C   UNL     1      -1.186  10.768  22.617  0.00  0.00    +0.000 C 
ATOM     30  C   UNL     1      -1.197  12.078  22.908  0.00  0.00    +0.000 C 
BRANCH  30  31
ATOM     31  C   UNL     1      -2.464  12.769  23.152  0.00  0.00    +0.000 A 
ATOM     32  C   UNL     1      -3.422  12.175  23.983  0.00  0.00    +0.000 A 
ATOM     33  C   UNL     1      -4.664  12.784  24.179  0.00  0.00    +0.000 A 
ATOM     34  C   UNL     1      -4.955  13.994  23.551  0.00  0.00    +0.000 A 
ATOM     35  C   UNL     1      -3.999  14.597  22.732  0.00  0.00    +0.000 A 
ATOM     36  C   UNL     1      -2.759  13.987  22.530  0.00  0.00    +0.000 A 
ENDBRANCH  30  31
ENDBRANCH  27  29
ENDBRANCH  25  27
ENDBRANCH  20  21
ENDBRANCH  19  20
ENDBRANCH   1  19
TORSDOF 10
ENDMDL
MODEL 9
REMARK VINA RESULT:      -7.7      5.404      8.725
REMARK  Name = 
REMARK  12 active torsions:
REMARK  status: ('A' for Active; 'I' for Inactive)
REMARK    1  A    between atoms: C_1  and  C_2
REMARK    2  A    between atoms: C_2  and  C_3
REMARK    3  A    between atoms: N_10  and  O_11
REMARK    4  A    between atoms: O_11  and  C_12
REMARK    5  A    between atoms: C_12  and  C_13
REMARK    6  A    between atoms: C_13  and  C_14
REMARK    7  A    between atoms: C_14  and  C_15
REMARK    8  A    between atoms: C_15  and  O_16
REMARK    9  A    between atoms: O_16  and  C_17
REMARK   10  A    between atoms: C_21  and  C_22
REMARK   11  A    between atoms: C_22  and  C_24
REMARK   12  A    between atoms: C_25  and  C_26
REMARK                            x       y       z     vdW  Elec       q    Type
REMARK                         _______ _______ _______ _____ _____    ______ ____
ROOT
ATOM      1  C   UNL     1       2.863   7.688  17.563  0.00  0.00    +0.000 C 
ENDROOT
BRANCH   1   2
ATOM      2  C   UNL     1       2.950   6.471  18.498  0.00  0.00    +0.000 C 
BRANCH   2   3
ATOM      3  C   UNL     1       4.395   6.355  18.988  0.00  0.00    +0.000 C 
BRANCH   3   4
ATOM      4  O   UNL     1       5.027   5.138  18.585  0.00  0.00    +0.000 OA
BRANCH   4  14
ATOM      5  C   UNL     1       7.746   4.652  17.884  0.00  0.00    +0.000 C 
ATOM      6  C   UNL     1       6.875   5.620  17.065  0.00  0.00    +0.000 C 
ATOM      7  C   UNL     1       7.149   7.059  17.521  0.00  0.00    +0.000 C 
ATOM      8  N   UNL     1       7.351   5.551  15.678  0.00  0.00    +0.000 NA
ATOM      9  C   UNL     1       6.664   4.830  14.865  0.00  0.00    +0.000 C 
ATOM     10  N   UNL     1       7.066   4.710  13.577  0.00  0.00    +0.000 N 
ATOM     11  N   UNL     1       5.554   4.126  15.195  0.00  0.00    +0.000 NA
ATOM     12  C   UNL     1       4.983   4.390  16.329  0.00  0.00    +0.000 C 
ATOM     13  N   UNL     1       3.834   3.714  16.583  0.00  0.00    +0.000 N 
ATOM     14  N   UNL     1       5.445   5.312  17.235  0.00  0.00    +0.000 N 
ATOM     15  H   UNL     1       8.059   4.858  13.469  0.00  0.00    +0.000 HD
ATOM     16  H   UNL     1       6.720   3.860  13.153  0.00  0.00    +0.000 HD
ATOM     17  H   UNL     1       3.580   3.190  15.753  0.00  0.00    +0.000 HD
ATOM     18  H   UNL     1       3.071   4.318  16.845  0.00  0.00    +0.000 HD
ENDBRANCH   4  14
ENDBRANCH   3   4
ENDBRANCH   2   3
ENDBRANCH   1   2
BRANCH   1  19
ATOM     19  C   UNL     1       1.719   8.628  17.896  0.00  0.00    +0.000 C 
BRANCH  19  20
ATOM     20  O   UNL     1       2.108   9.967  17.597  0.00  0.00    +0.000 OA
BRANCH  20  21
ATOM     21  C   UNL     1       1.766  10.892  18.548  0.00  0.00    +0.000 A 
ATOM     22  C   UNL     1       2.235  12.188  18.340  0.00  0.00    +0.000 A 
ATOM     23  C   UNL     1       1.926  13.198  19.251  0.00  0.00    +0.000 A 
ATOM     24  C   UNL     1       1.160  12.904  20.386  0.00  0.00    +0.000 A 
ATOM     25  C   UNL     1       0.723  11.598  20.621  0.00  0.00    +0.000 A 
ATOM     26  C   UNL     1       1.025  10.596  19.694  0.00  0.00    +0.000 A 
BRANCH  25  27
ATOM     27  C   UNL     1      -0.084  11.307  21.837  0.00  0.00    +0.000 C 
ATOM     28  O   UNL     1       0.367  10.566  22.710  0.00  0.00    +0.000 OA
BRANCH  27  29
ATOM     29  C   UNL     1      -1.449  11.896  21.936  0.00  0.00    +0.000 C 
ATOM     30  C   UNL     1      -2.122  11.888  23.097  0.00  0.00    +0.000 C 
BRANCH  30  31
ATOM     31  C   UNL     1      -3.507  12.359  23.151  0.00  0.00    +0.000 A 
ATOM     32  C   UNL     1      -4.171  12.400  24.383  0.00  0.00    +0.000 A 
ATOM     33  C   UNL     1      -5.513  12.784  24.452  0.00  0.00    +0.000 A 
ATOM     34  C   UNL     1      -6.198  13.134  23.289  0.00  0.00    +0.000 A 
ATOM     35  C   UNL     1      -5.537  13.108  22.060  0.00  0.00    +0.000 A 
ATOM     36  C   UNL     1      -4.198  12.720  21.990  0.00  0.00    +0.000 A 
ENDBRANCH  30  31
ENDBRANCH  27  29
ENDBRANCH  25  27
ENDBRANCH  20  21
ENDBRANCH  19  20
ENDBRANCH   1  19
TORSDOF 10
ENDMDL
