MODEL 1
REMARK VINA RESULT:      -8.1      0.000      0.000
REMARK  Name = 
REMARK  5 active torsions:
REMARK  status: ('A' for Active; 'I' for Inactive)
REMARK    1  A    between atoms: C_1  and  N_2
REMARK    2  A    between atoms: C_6  and  C_7
REMARK    3  A    between atoms: N_9  and  C_10
REMARK    4  A    between atoms: C_10  and  C_11
REMARK    5  A    between atoms: C_11  and  N_12
REMARK                            x       y       z     vdW  Elec       q    Type
REMARK                         _______ _______ _______ _____ _____    ______ ____
ROOT
ATOM      1  C   UNL     1       0.324   8.640  21.230  0.00  0.00    +0.000 C 
ENDROOT
BRANCH   1   2
ATOM      2  N   UNL     1       0.218  10.105  21.218  0.00  0.00    +0.000 N 
ATOM      3  C   UNL     1       0.379  10.821  19.961  0.00  0.00    +0.000 C 
ATOM      4  C   UNL     1      -0.915  11.016  19.236  0.00  0.00    +0.000 A 
ATOM      5  C   UNL     1      -1.169  10.398  18.008  0.00  0.00    +0.000 A 
ATOM      6  C   UNL     1      -2.393  10.590  17.368  0.00  0.00    +0.000 A 
ATOM      7 CL   UNL     1      -2.694   9.817  15.860  0.00  0.00    +0.000 Cl
ATOM      8  C   UNL     1      -3.368  11.411  17.937  0.00  0.00    +0.000 A 
ATOM      9  C   UNL     1      -3.110  12.050  19.152  0.00  0.00    +0.000 A 
ATOM     10  C   UNL     1      -1.895  11.841  19.801  0.00  0.00    +0.000 A 
ATOM     11  O   UNL     1      -1.630  12.530  20.952  0.00  0.00    +0.000 OA
ATOM     12  C   UNL     1      -1.551  11.664  22.072  0.00  0.00    +0.000 C 
ATOM     13  C   UNL     1      -0.366  10.707  22.324  0.00  0.00    +0.000 C 
ATOM     14  O   UNL     1      -0.098  10.339  23.471  0.00  0.00    +0.000 OA
ENDBRANCH   1   2
BRANCH   1  15
ATOM     15  C   UNL     1       1.535   8.157  20.414  0.00  0.00    +0.000 C 
BRANCH  15  18
ATOM     16  C   UNL     1       2.564   6.011  19.830  0.00  0.00    +0.000 C 
ATOM     17  O   UNL     1       2.643   6.328  18.647  0.00  0.00    +0.000 OA
ATOM     18  N   UNL     1       2.071   6.867  20.794  0.00  0.00    +0.000 N 
ATOM     19  H   UNL     1       2.105   6.564  21.766  0.00  0.00    +0.000 HD
BRANCH  16  25
ATOM     20  C   UNL     1       2.639   2.247  17.427  0.00  0.00    +0.000 C 
ATOM     21  N   UNL     1       2.234   3.154  18.505  0.00  0.00    +0.000 NA
ATOM     22  C   UNL     1       1.363   2.449  19.460  0.00  0.00    +0.000 C 
ATOM     23  C   UNL     1       0.927   3.361  20.609  0.00  0.00    +0.000 C 
ATOM     24  C   UNL     1       2.122   3.996  21.309  0.00  0.00    +0.000 C 
ATOM     25  C   UNL     1       3.080   4.655  20.316  0.00  0.00    +0.000 C 
ATOM     26  C   UNL     1       3.436   3.693  19.177  0.00  0.00    +0.000 C 
ENDBRANCH  16  25
ENDBRANCH  15  18
ENDBRANCH   1  15
TORSDOF 4
ENDMDL
MODEL 2
REMARK VINA RESULT:      -8.0      1.003      1.630
REMARK  Name = 
REMARK  5 active torsions:
REMARK  status: ('A' for Active; 'I' for Inactive)
REMARK    1  A    between atoms: C_1  and  N_2
REMARK    2  A    between atoms: C_6  and  C_7
REMARK    3  A    between atoms: N_9  and  C_10
REMARK    4  A    between atoms: C_10  and  C_11
REMARK    5  A    between atoms: C_11  and  N_12
REMARK                            x       y       z     vdW  Elec       q    Type
REMARK                         _______ _______ _______ _____ _____    ______ ____
ROOT
ATOM      1  C   UNL     1       0.383   8.382  21.290  0.00  0.00    +0.000 C 
ENDROOT
BRANCH   1   2
ATOM      2  N   UNL     1       0.372   9.851  21.296  0.00  0.00    +0.000 N 
ATOM      3  C   UNL     1       0.573  10.570  20.047  0.00  0.00    +0.000 C 
ATOM      4  C   UNL     1      -0.709  10.857  19.331  0.00  0.00    +0.000 A 
ATOM      5  C   UNL     1      -1.008  10.271  18.097  0.00  0.00    +0.000 A 
ATOM      6  C   UNL     1      -2.220  10.550  17.466  0.00  0.00    +0.000 A 
ATOM      7 CL   UNL     1      -2.577   9.817  15.951  0.00  0.00    +0.000 Cl
ATOM      8  C   UNL     1      -3.138  11.425  18.051  0.00  0.00    +0.000 A 
ATOM      9  C   UNL     1      -2.833  12.031  19.272  0.00  0.00    +0.000 A 
ATOM     10  C   UNL     1      -1.631  11.736  19.912  0.00  0.00    +0.000 A 
ATOM     11  O   UNL     1      -1.318  12.392  21.069  0.00  0.00    +0.000 OA
ATOM     12  C   UNL     1      -1.289  11.510  22.179  0.00  0.00    +0.000 C 
ATOM     13  C   UNL     1      -0.167  10.475  22.413  0.00  0.00    +0.000 C 
ATOM     14  O   UNL     1       0.082  10.077  23.554  0.00  0.00    +0.000 OA
ENDBRANCH   1   2
BRANCH   1  15
ATOM     15  C   UNL     1       1.801   7.831  21.059  0.00  0.00    +0.000 C 
BRANCH  15  18
ATOM     16  C   UNL     1       2.359   6.552  19.046  0.00  0.00    +0.000 C 
ATOM     17  O   UNL     1       2.811   7.549  18.492  0.00  0.00    +0.000 OA
ATOM     18  N   UNL     1       1.875   6.579  20.338  0.00  0.00    +0.000 N 
ATOM     19  H   UNL     1       1.585   5.697  20.759  0.00  0.00    +0.000 HD
BRANCH  16  25
ATOM     20  C   UNL     1       1.599   2.614  21.011  0.00  0.00    +0.000 C 
ATOM     21  N   UNL     1       2.366   3.651  20.315  0.00  0.00    +0.000 NA
ATOM     22  C   UNL     1       3.697   3.137  19.949  0.00  0.00    +0.000 C 
ATOM     23  C   UNL     1       4.527   4.188  19.209  0.00  0.00    +0.000 C 
ATOM     24  C   UNL     1       3.788   4.736  17.994  0.00  0.00    +0.000 C 
ATOM     25  C   UNL     1       2.371   5.191  18.346  0.00  0.00    +0.000 C 
ATOM     26  C   UNL     1       1.622   4.100  19.119  0.00  0.00    +0.000 C 
ENDBRANCH  16  25
ENDBRANCH  15  18
ENDBRANCH   1  15
TORSDOF 4
ENDMDL
MODEL 3
REMARK VINA RESULT:      -7.9      0.996      1.157
REMARK  Name = 
REMARK  5 active torsions:
REMARK  status: ('A' for Active; 'I' for Inactive)
REMARK    1  A    between atoms: C_1  and  N_2
REMARK    2  A    between atoms: C_6  and  C_7
REMARK    3  A    between atoms: N_9  and  C_10
REMARK    4  A    between atoms: C_10  and  C_11
REMARK    5  A    between atoms: C_11  and  N_12
REMARK                            x       y       z     vdW  Elec       q    Type
REMARK                         _______ _______ _______ _____ _____    ______ ____
ROOT
ATOM      1  C   UNL     1       0.268   8.987  21.316  0.00  0.00    +0.000 C 
ENDROOT
BRANCH   1   2
ATOM      2  N   UNL     1       0.059  10.439  21.237  0.00  0.00    +0.000 N 
ATOM      3  C   UNL     1       0.202  11.110  19.954  0.00  0.00    +0.000 C 
ATOM      4  C   UNL     1      -1.083  11.181  19.191  0.00  0.00    +0.000 A 
ATOM      5  C   UNL     1      -1.260  10.495  17.986  0.00  0.00    +0.000 A 
ATOM      6  C   UNL     1      -2.477  10.571  17.310  0.00  0.00    +0.000 A 
ATOM      7 CL   UNL     1      -2.683   9.716  15.831  0.00  0.00    +0.000 Cl
ATOM      8  C   UNL     1      -3.524  11.343  17.820  0.00  0.00    +0.000 A 
ATOM      9  C   UNL     1      -3.343  12.050  19.012  0.00  0.00    +0.000 A 
ATOM     10  C   UNL     1      -2.134  11.956  19.697  0.00  0.00    +0.000 A 
ATOM     11  O   UNL     1      -1.949  12.710  20.822  0.00  0.00    +0.000 OA
ATOM     12  C   UNL     1      -1.838  11.901  21.981  0.00  0.00    +0.000 C 
ATOM     13  C   UNL     1      -0.595  11.043  22.302  0.00  0.00    +0.000 C 
ATOM     14  O   UNL     1      -0.332  10.744  23.470  0.00  0.00    +0.000 OA
ENDBRANCH   1   2
BRANCH   1  15
ATOM     15  C   UNL     1       1.370   8.523  20.347  0.00  0.00    +0.000 C 
BRANCH  15  18
ATOM     16  C   UNL     1       2.575   6.550  19.538  0.00  0.00    +0.000 C 
ATOM     17  O   UNL     1       2.951   7.145  18.534  0.00  0.00    +0.000 OA
ATOM     18  N   UNL     1       1.823   7.160  20.521  0.00  0.00    +0.000 N 
ATOM     19  H   UNL     1       1.610   6.625  21.362  0.00  0.00    +0.000 HD
BRANCH  16  25
ATOM     20  C   UNL     1       4.860   3.965  16.702  0.00  0.00    +0.000 C 
ATOM     21  N   UNL     1       3.714   4.411  17.500  0.00  0.00    +0.000 NA
ATOM     22  C   UNL     1       2.625   3.423  17.421  0.00  0.00    +0.000 C 
ATOM     23  C   UNL     1       1.412   3.846  18.252  0.00  0.00    +0.000 C 
ATOM     24  C   UNL     1       1.795   4.139  19.698  0.00  0.00    +0.000 C 
ATOM     25  C   UNL     1       2.983   5.097  19.790  0.00  0.00    +0.000 C 
ATOM     26  C   UNL     1       4.138   4.624  18.900  0.00  0.00    +0.000 C 
ENDBRANCH  16  25
ENDBRANCH  15  18
ENDBRANCH   1  15
TORSDOF 4
ENDMDL
MODEL 4
REMARK VINA RESULT:      -7.8      7.925      9.119
REMARK  Name = 
REMARK  5 active torsions:
REMARK  status: ('A' for Active; 'I' for Inactive)
REMARK    1  A    between atoms: C_1  and  N_2
REMARK    2  A    between atoms: C_6  and  C_7
REMARK    3  A    between atoms: N_9  and  C_10
REMARK    4  A    between atoms: C_10  and  C_11
REMARK    5  A    between atoms: C_11  and  N_12
REMARK                            x       y       z     vdW  Elec       q    Type
REMARK                         _______ _______ _______ _____ _____    ______ ____
ROOT
ATOM      1  C   UNL     1       9.442  10.406  19.418  0.00  0.00    +0.000 C 
ENDROOT
BRANCH   1   2
ATOM      2  N   UNL     1      10.225  11.422  18.701  0.00  0.00    +0.000 N 
ATOM      3  C   UNL     1       9.660  12.053  17.519  0.00  0.00    +0.000 C 
ATOM      4  C   UNL     1       8.890  13.297  17.838  0.00  0.00    +0.000 A 
ATOM      5  C   UNL     1       7.508  13.374  17.643  0.00  0.00    +0.000 A 
ATOM      6  C   UNL     1       6.821  14.543  17.966  0.00  0.00    +0.000 A 
ATOM      7 CL   UNL     1       5.118  14.623  17.728  0.00  0.00    +0.000 Cl
ATOM      8  C   UNL     1       7.506  15.651  18.472  0.00  0.00    +0.000 A 
ATOM      9  C   UNL     1       8.891  15.586  18.645  0.00  0.00    +0.000 A 
ATOM     10  C   UNL     1       9.573  14.410  18.341  0.00  0.00    +0.000 A 
ATOM     11  O   UNL     1      10.936  14.387  18.448  0.00  0.00    +0.000 OA
ATOM     12  C   UNL     1      11.364  13.515  19.481  0.00  0.00    +0.000 C 
ATOM     13  C   UNL     1      11.306  11.976  19.373  0.00  0.00    +0.000 C 
ATOM     14  O   UNL     1      12.077  11.277  20.036  0.00  0.00    +0.000 OA
ENDBRANCH   1   2
BRANCH   1  15
ATOM     15  C   UNL     1       8.615   9.545  18.447  0.00  0.00    +0.000 C 
BRANCH  15  18
ATOM     16  C   UNL     1       7.801   7.283  17.976  0.00  0.00    +0.000 C 
ATOM     17  O   UNL     1       7.231   7.660  16.957  0.00  0.00    +0.000 OA
ATOM     18  N   UNL     1       8.552   8.134  18.760  0.00  0.00    +0.000 N 
ATOM     19  H   UNL     1       9.058   7.735  19.550  0.00  0.00    +0.000 HD
BRANCH  16  25
ATOM     20  C   UNL     1       6.033   3.940  15.599  0.00  0.00    +0.000 C 
ATOM     21  N   UNL     1       6.168   4.880  16.716  0.00  0.00    +0.000 NA
ATOM     22  C   UNL     1       5.203   4.549  17.777  0.00  0.00    +0.000 C 
ATOM     23  C   UNL     1       5.319   5.502  18.968  0.00  0.00    +0.000 C 
ATOM     24  C   UNL     1       6.744   5.557  19.508  0.00  0.00    +0.000 C 
ATOM     25  C   UNL     1       7.764   5.813  18.398  0.00  0.00    +0.000 C 
ATOM     26  C   UNL     1       7.555   4.846  17.228  0.00  0.00    +0.000 C 
ENDBRANCH  16  25
ENDBRANCH  15  18
ENDBRANCH   1  15
TORSDOF 4
ENDMDL
MODEL 5
REMARK VINA RESULT:      -7.8      6.847     10.165
REMARK  Name = 
REMARK  5 active torsions:
REMARK  status: ('A' for Active; 'I' for Inactive)
REMARK    1  A    between atoms: C_1  and  N_2
REMARK    2  A    between atoms: C_6  and  C_7
REMARK    3  A    between atoms: N_9  and  C_10
REMARK    4  A    between atoms: C_10  and  C_11
REMARK    5  A    between atoms: C_11  and  N_12
REMARK                            x       y       z     vdW  Elec       q    Type
REMARK                         _______ _______ _______ _____ _____    ______ ____
ROOT
ATOM      1  C   UNL     1       6.751   7.545  17.243  0.00  0.00    +0.000 C 
ENDROOT
BRANCH   1   2
ATOM      2  N   UNL     1       6.777   6.077  17.287  0.00  0.00    +0.000 N 
ATOM      3  C   UNL     1       6.371   5.393  18.505  0.00  0.00    +0.000 C 
ATOM      4  C   UNL     1       4.909   5.074  18.531  0.00  0.00    +0.000 A 
ATOM      5  C   UNL     1       4.043   5.674  19.450  0.00  0.00    +0.000 A 
ATOM      6  C   UNL     1       2.684   5.365  19.434  0.00  0.00    +0.000 A 
ATOM      7 CL   UNL     1       1.628   6.117  20.566  0.00  0.00    +0.000 Cl
ATOM      8  C   UNL     1       2.177   4.444  18.514  0.00  0.00    +0.000 A 
ATOM      9  C   UNL     1       3.044   3.824  17.610  0.00  0.00    +0.000 A 
ATOM     10  C   UNL     1       4.398   4.149  17.613  0.00  0.00    +0.000 A 
ATOM     11  O   UNL     1       5.242   3.480  16.771  0.00  0.00    +0.000 OA
ATOM     12  C   UNL     1       5.779   4.339  15.779  0.00  0.00    +0.000 C 
ATOM     13  C   UNL     1       6.853   5.409  16.072  0.00  0.00    +0.000 C 
ATOM     14  O   UNL     1       7.609   5.792  15.175  0.00  0.00    +0.000 OA
ENDBRANCH   1   2
BRANCH   1  15
ATOM     15  C   UNL     1       8.036   8.148  17.840  0.00  0.00    +0.000 C 
BRANCH  15  18
ATOM     16  C   UNL     1       8.885  10.236  18.799  0.00  0.00    +0.000 C 
ATOM     17  O   UNL     1       9.621   9.627  19.569  0.00  0.00    +0.000 OA
ATOM     18  N   UNL     1       8.093   9.593  17.870  0.00  0.00    +0.000 N 
ATOM     19  H   UNL     1       7.564  10.166  17.213  0.00  0.00    +0.000 HD
BRANCH  16  25
ATOM     20  C   UNL     1      11.997  12.865  16.968  0.00  0.00    +0.000 C 
ATOM     21  N   UNL     1      11.193  12.266  18.037  0.00  0.00    +0.000 NA
ATOM     22  C   UNL     1      11.490  12.920  19.323  0.00  0.00    +0.000 C 
ATOM     23  C   UNL     1      10.661  12.329  20.465  0.00  0.00    +0.000 C 
ATOM     24  C   UNL     1       9.169  12.363  20.154  0.00  0.00    +0.000 C 
ATOM     25  C   UNL     1       8.860  11.766  18.781  0.00  0.00    +0.000 C 
ATOM     26  C   UNL     1       9.758  12.379  17.701  0.00  0.00    +0.000 C 
ENDBRANCH  16  25
ENDBRANCH  15  18
ENDBRANCH   1  15
TORSDOF 4
ENDMDL
MODEL 6
REMARK VINA RESULT:      -7.7      1.196      1.684
REMARK  Name = 
REMARK  5 active torsions:
REMARK  status: ('A' for Active; 'I' for Inactive)
REMARK    1  A    between atoms: C_1  and  N_2
REMARK    2  A    between atoms: C_6  and  C_7
REMARK    3  A    between atoms: N_9  and  C_10
REMARK    4  A    between atoms: C_10  and  C_11
REMARK    5  A    between atoms: C_11  and  N_12
REMARK                            x       y       z     vdW  Elec       q    Type
REMARK                         _______ _______ _______ _____ _____    ______ ____
ROOT
ATOM      1  C   UNL     1       0.110   8.659  21.337  0.00  0.00    +0.000 C 
ENDROOT
BRANCH   1   2
ATOM      2  N   UNL     1       0.063  10.125  21.255  0.00  0.00    +0.000 N 
ATOM      3  C   UNL     1       0.273  10.774  19.971  0.00  0.00    +0.000 C 
ATOM      4  C   UNL     1      -0.999  10.985  19.212  0.00  0.00    +0.000 A 
ATOM      5  C   UNL     1      -1.256  10.320  18.009  0.00  0.00    +0.000 A 
ATOM      6  C   UNL     1      -2.460  10.529  17.338  0.00  0.00    +0.000 A 
ATOM      7 CL   UNL     1      -2.765   9.698  15.862  0.00  0.00    +0.000 Cl
ATOM      8  C   UNL     1      -3.412  11.412  17.850  0.00  0.00    +0.000 A 
ATOM      9  C   UNL     1      -3.150  12.097  19.039  0.00  0.00    +0.000 A 
ATOM     10  C   UNL     1      -1.956  11.872  19.720  0.00  0.00    +0.000 A 
ATOM     11  O   UNL     1      -1.684  12.603  20.843  0.00  0.00    +0.000 OA
ATOM     12  C   UNL     1      -1.658  11.788  22.003  0.00  0.00    +0.000 C 
ATOM     13  C   UNL     1      -0.517  10.799  22.322  0.00  0.00    +0.000 C 
ATOM     14  O   UNL     1      -0.283  10.475  23.489  0.00  0.00    +0.000 OA
ENDBRANCH   1   2
BRANCH   1  15
ATOM     15  C   UNL     1       1.560   8.142  21.335  0.00  0.00    +0.000 C 
BRANCH  15  18
ATOM     16  C   UNL     1       2.171   6.230  19.930  0.00  0.00    +0.000 C 
ATOM     17  O   UNL     1       1.843   5.435  20.805  0.00  0.00    +0.000 OA
ATOM     18  N   UNL     1       2.026   7.594  20.079  0.00  0.00    +0.000 N 
ATOM     19  H   UNL     1       2.250   8.189  19.282  0.00  0.00    +0.000 HD
BRANCH  16  25
ATOM     20  C   UNL     1       2.967   1.971  18.845  0.00  0.00    +0.000 C 
ATOM     21  N   UNL     1       3.282   3.373  19.137  0.00  0.00    +0.000 NA
ATOM     22  C   UNL     1       4.708   3.636  18.882  0.00  0.00    +0.000 C 
ATOM     23  C   UNL     1       5.076   5.094  19.165  0.00  0.00    +0.000 C 
ATOM     24  C   UNL     1       4.184   6.060  18.393  0.00  0.00    +0.000 C 
ATOM     25  C   UNL     1       2.701   5.740  18.581  0.00  0.00    +0.000 C 
ATOM     26  C   UNL     1       2.423   4.256  18.319  0.00  0.00    +0.000 C 
ENDBRANCH  16  25
ENDBRANCH  15  18
ENDBRANCH   1  15
TORSDOF 4
ENDMDL
MODEL 7
REMARK VINA RESULT:      -7.6      1.322      1.926
REMARK  Name = 
REMARK  5 active torsions:
REMARK  status: ('A' for Active; 'I' for Inactive)
REMARK    1  A    between atoms: C_1  and  N_2
REMARK    2  A    between atoms: C_6  and  C_7
REMARK    3  A    between atoms: N_9  and  C_10
REMARK    4  A    between atoms: C_10  and  C_11
REMARK    5  A    between atoms: C_11  and  N_12
REMARK                            x       y       z     vdW  Elec       q    Type
REMARK                         _______ _______ _______ _____ _____    ______ ____
ROOT
ATOM      1  C   UNL     1       1.338   8.270  20.130  0.00  0.00    +0.000 C 
ENDROOT
BRANCH   1   2
ATOM      2  N   UNL     1       1.157   9.719  20.284  0.00  0.00    +0.000 N 
ATOM      3  C   UNL     1       0.991  10.547  19.100  0.00  0.00    +0.000 C 
ATOM      4  C   UNL     1      -0.443  10.708  18.701  0.00  0.00    +0.000 A 
ATOM      5  C   UNL     1      -0.936  10.178  17.505  0.00  0.00    +0.000 A 
ATOM      6  C   UNL     1      -2.281  10.334  17.174  0.00  0.00    +0.000 A 
ATOM      7 CL   UNL     1      -2.877   9.671  15.702  0.00  0.00    +0.000 Cl
ATOM      8  C   UNL     1      -3.144  11.032  18.023  0.00  0.00    +0.000 A 
ATOM      9  C   UNL     1      -2.649  11.584  19.207  0.00  0.00    +0.000 A 
ATOM     10  C   UNL     1      -1.310  11.409  19.548  0.00  0.00    +0.000 A 
ATOM     11  O   UNL     1      -0.827  12.017  20.673  0.00  0.00    +0.000 OA
ATOM     12  C   UNL     1      -0.451  11.069  21.658  0.00  0.00    +0.000 C 
ATOM     13  C   UNL     1       0.808  10.182  21.547  0.00  0.00    +0.000 C 
ATOM     14  O   UNL     1       1.348   9.739  22.564  0.00  0.00    +0.000 OA
ENDBRANCH   1   2
BRANCH   1  15
ATOM     15  C   UNL     1       2.270   7.942  18.950  0.00  0.00    +0.000 C 
BRANCH  15  18
ATOM     16  C   UNL     1       3.404   6.054  17.877  0.00  0.00    +0.000 C 
ATOM     17  O   UNL     1       4.407   6.728  17.666  0.00  0.00    +0.000 OA
ATOM     18  N   UNL     1       2.307   6.552  18.549  0.00  0.00    +0.000 N 
ATOM     19  H   UNL     1       1.540   5.913  18.754  0.00  0.00    +0.000 HD
BRANCH  16  25
ATOM     20  C   UNL     1       0.970   2.887  19.875  0.00  0.00    +0.000 C 
ATOM     21  N   UNL     1       2.183   3.583  19.436  0.00  0.00    +0.000 NA
ATOM     22  C   UNL     1       3.375   2.783  19.764  0.00  0.00    +0.000 C 
ATOM     23  C   UNL     1       4.664   3.471  19.311  0.00  0.00    +0.000 C 
ATOM     24  C   UNL     1       4.622   3.827  17.830  0.00  0.00    +0.000 C 
ATOM     25  C   UNL     1       3.345   4.583  17.462  0.00  0.00    +0.000 C 
ATOM     26  C   UNL     1       2.104   3.850  17.984  0.00  0.00    +0.000 C 
ENDBRANCH  16  25
ENDBRANCH  15  18
ENDBRANCH   1  15
TORSDOF 4
ENDMDL
MODEL 8
REMARK VINA RESULT:      -7.5      1.613      2.165
REMARK  Name = 
REMARK  5 active torsions:
REMARK  status: ('A' for Active; 'I' for Inactive)
REMARK    1  A    between atoms: C_1  and  N_2
REMARK    2  A    between atoms: C_6  and  C_7
REMARK    3  A    between atoms: N_9  and  C_10
REMARK    4  A    between atoms: C_10  and  C_11
REMARK    5  A    between atoms: C_11  and  N_12
REMARK                            x       y       z     vdW  Elec       q    Type
REMARK                         _______ _______ _______ _____ _____    ______ ____
ROOT
ATOM      1  C   UNL     1       0.757   8.333  21.306  0.00  0.00    +0.000 C 
ENDROOT
BRANCH   1   2
ATOM      2  N   UNL     1       0.672   9.784  21.513  0.00  0.00    +0.000 N 
ATOM      3  C   UNL     1       0.830  10.677  20.375  0.00  0.00    +0.000 C 
ATOM      4  C   UNL     1      -0.469  10.994  19.702  0.00  0.00    +0.000 A 
ATOM      5  C   UNL     1      -0.744  10.569  18.399  0.00  0.00    +0.000 A 
ATOM      6  C   UNL     1      -1.971  10.869  17.810  0.00  0.00    +0.000 A 
ATOM      7 CL   UNL     1      -2.299  10.333  16.208  0.00  0.00    +0.000 Cl
ATOM      8  C   UNL     1      -2.929  11.608  18.507  0.00  0.00    +0.000 A 
ATOM      9  C   UNL     1      -2.649  12.056  19.801  0.00  0.00    +0.000 A 
ATOM     10  C   UNL     1      -1.431  11.737  20.396  0.00  0.00    +0.000 A 
ATOM     11  O   UNL     1      -1.145  12.244  21.633  0.00  0.00    +0.000 OA
ATOM     12  C   UNL     1      -1.066  11.220  22.611  0.00  0.00    +0.000 C 
ATOM     13  C   UNL     1       0.107  10.221  22.704  0.00  0.00    +0.000 C 
ATOM     14  O   UNL     1       0.382   9.684  23.779  0.00  0.00    +0.000 OA
ENDBRANCH   1   2
BRANCH   1  15
ATOM     15  C   UNL     1       1.635   7.988  20.089  0.00  0.00    +0.000 C 
BRANCH  15  18
ATOM     16  C   UNL     1       2.942   6.142  19.150  0.00  0.00    +0.000 C 
ATOM     17  O   UNL     1       2.672   6.485  18.003  0.00  0.00    +0.000 OA
ATOM     18  N   UNL     1       2.512   6.850  20.254  0.00  0.00    +0.000 N 
ATOM     19  H   UNL     1       2.837   6.548  21.172  0.00  0.00    +0.000 HD
BRANCH  16  25
ATOM     20  C   UNL     1       7.083   5.582  17.574  0.00  0.00    +0.000 C 
ATOM     21  N   UNL     1       5.652   5.312  17.738  0.00  0.00    +0.000 NA
ATOM     22  C   UNL     1       5.284   4.078  17.024  0.00  0.00    +0.000 C 
ATOM     23  C   UNL     1       3.796   3.754  17.180  0.00  0.00    +0.000 C 
ATOM     24  C   UNL     1       3.384   3.693  18.646  0.00  0.00    +0.000 C 
ATOM     25  C   UNL     1       3.840   4.932  19.417  0.00  0.00    +0.000 C 
ATOM     26  C   UNL     1       5.327   5.211  19.177  0.00  0.00    +0.000 C 
ENDBRANCH  16  25
ENDBRANCH  15  18
ENDBRANCH   1  15
TORSDOF 4
ENDMDL
MODEL 9
REMARK VINA RESULT:      -7.5      1.254      1.735
REMARK  Name = 
REMARK  5 active torsions:
REMARK  status: ('A' for Active; 'I' for Inactive)
REMARK    1  A    between atoms: C_1  and  N_2
REMARK    2  A    between atoms: C_6  and  C_7
REMARK    3  A    between atoms: N_9  and  C_10
REMARK    4  A    between atoms: C_10  and  C_11
REMARK    5  A    between atoms: C_11  and  N_12
REMARK                            x       y       z     vdW  Elec       q    Type
REMARK                         _______ _______ _______ _____ _____    ______ ____
ROOT
ATOM      1  C   UNL     1       0.295   8.255  21.402  0.00  0.00    +0.000 C 
ENDROOT
BRANCH   1   2
ATOM      2  N   UNL     1       0.382   9.721  21.420  0.00  0.00    +0.000 N 
ATOM      3  C   UNL     1       0.627  10.436  20.177  0.00  0.00    +0.000 C 
ATOM      4  C   UNL     1      -0.635  10.815  19.467  0.00  0.00    +0.000 A 
ATOM      5  C   UNL     1      -0.974  10.261  18.229  0.00  0.00    +0.000 A 
ATOM      6  C   UNL     1      -2.166  10.625  17.604  0.00  0.00    +0.000 A 
ATOM      7 CL   UNL     1      -2.575   9.931  16.083  0.00  0.00    +0.000 Cl
ATOM      8  C   UNL     1      -3.023  11.554  18.198  0.00  0.00    +0.000 A 
ATOM      9  C   UNL     1      -2.676  12.128  19.424  0.00  0.00    +0.000 A 
ATOM     10  C   UNL     1      -1.495  11.748  20.058  0.00  0.00    +0.000 A 
ATOM     11  O   UNL     1      -1.135  12.371  21.220  0.00  0.00    +0.000 OA
ATOM     12  C   UNL     1      -1.163  11.479  22.322  0.00  0.00    +0.000 C 
ATOM     13  C   UNL     1      -0.112  10.370  22.544  0.00  0.00    +0.000 C 
ATOM     14  O   UNL     1       0.112   9.946  23.680  0.00  0.00    +0.000 OA
ENDBRANCH   1   2
BRANCH   1  15
ATOM     15  C   UNL     1       1.610   7.620  20.918  0.00  0.00    +0.000 C 
BRANCH  15  18
ATOM     16  C   UNL     1       1.829   5.254  20.319  0.00  0.00    +0.000 C 
ATOM     17  O   UNL     1       2.199   4.963  21.451  0.00  0.00    +0.000 OA
ATOM     18  N   UNL     1       1.470   6.539  19.966  0.00  0.00    +0.000 N 
ATOM     19  H   UNL     1       1.101   6.692  19.028  0.00  0.00    +0.000 HD
BRANCH  16  25
ATOM     20  C   UNL     1       4.554   1.764  19.733  0.00  0.00    +0.000 C 
ATOM     21  N   UNL     1       3.893   3.032  19.409  0.00  0.00    +0.000 NA
ATOM     22  C   UNL     1       4.244   3.452  18.042  0.00  0.00    +0.000 C 
ATOM     23  C   UNL     1       3.564   4.768  17.660  0.00  0.00    +0.000 C 
ATOM     24  C   UNL     1       2.054   4.699  17.852  0.00  0.00    +0.000 C 
ATOM     25  C   UNL     1       1.679   4.179  19.240  0.00  0.00    +0.000 C 
ATOM     26  C   UNL     1       2.430   2.883  19.562  0.00  0.00    +0.000 C 
ENDBRANCH  16  25
ENDBRANCH  15  18
ENDBRANCH   1  15
TORSDOF 4
ENDMDL
