MODEL 1
REMARK VINA RESULT:      -8.1      0.000      0.000
REMARK  Name = 
REMARK  6 active torsions:
REMARK  status: ('A' for Active; 'I' for Inactive)
REMARK    1  A    between atoms: C_1  and  C_2
REMARK    2  A    between atoms: C_2  and  O_3
REMARK    3  A    between atoms: C_9  and  C_10
REMARK    4  A    between atoms: C_11  and  C_12
REMARK    5  A    between atoms: C_12  and  O_13
REMARK    6  A    between atoms: C_22  and  C_23
REMARK                            x       y       z     vdW  Elec       q    Type
REMARK                         _______ _______ _______ _____ _____    ______ ____
ROOT
ATOM      1  C   UNL     1       2.526   2.115  17.883  0.00  0.00    +0.000 C 
ATOM      2  C   UNL     1       2.405   3.553  18.414  0.00  0.00    +0.000 C 
ATOM      3  C   UNL     1       2.590   3.527  19.945  0.00  0.00    +0.000 C 
ATOM      4  O   UNL     1       2.348   4.704  20.718  0.00  0.00    +0.000 OA
ATOM      5  C   UNL     1       2.171   5.956  20.221  0.00  0.00    +0.000 A 
ATOM      6  C   UNL     1       1.294   6.700  21.032  0.00  0.00    +0.000 A 
ATOM      7  C   UNL     1       0.943   8.009  20.715  0.00  0.00    +0.000 A 
ATOM      8  C   UNL     1       1.494   8.616  19.593  0.00  0.00    +0.000 A 
ATOM      9  C   UNL     1       2.401   7.897  18.796  0.00  0.00    +0.000 A 
ATOM     10  C   UNL     1       2.745   6.554  19.085  0.00  0.00    +0.000 A 
ATOM     11  C   UNL     1       3.615   5.836  18.150  0.00  0.00    +0.000 A 
ATOM     12  N   UNL     1       4.671   6.454  17.468  0.00  0.00    +0.000 NA
ATOM     13  C   UNL     1       5.255   5.571  16.671  0.00  0.00    +0.000 A 
ATOM     14  S   UNL     1       4.558   4.016  16.655  0.00  0.00    +0.000 S 
ATOM     15  C   UNL     1       3.408   4.505  17.828  0.00  0.00    +0.000 A 
ENDROOT
BRANCH  13  16
ATOM     16  C   UNL     1       6.426   5.813  15.831  0.00  0.00    +0.000 C 
ATOM     17  N   UNL     1       7.467   6.471  16.431  0.00  0.00    +0.000 N 
ATOM     18  O   UNL     1       6.552   5.471  14.655  0.00  0.00    +0.000 OA
ATOM     19  H   UNL     1       7.415   6.750  17.400  0.00  0.00    +0.000 HD
ATOM     20  H   UNL     1       8.296   6.637  15.880  0.00  0.00    +0.000 HD
ENDBRANCH  13  16
BRANCH   2  21
ATOM     21  O   UNL     1       1.099   3.986  18.026  0.00  0.00    +0.000 OA
ATOM     22  H   UNL     1       0.951   3.747  17.096  0.00  0.00    +0.000 HD
ENDBRANCH   2  21
BRANCH   8  23
ATOM     23  C   UNL     1       1.112   9.965  19.277  0.00  0.00    +0.000 C 
ATOM     24  C   UNL     1       0.728  11.180  18.994  0.00  0.00    +0.000 C 
BRANCH  24  25
ATOM     25  C   UNL     1       0.281  12.594  18.664  0.00  0.00    +0.000 C 
ATOM     26  C   UNL     1      -0.424  13.261  19.842  0.00  0.00    +0.000 C 
ATOM     27  C   UNL     1      -0.325  14.743  19.507  0.00  0.00    +0.000 C 
ATOM     28  C   UNL     1       1.056  14.902  18.880  0.00  0.00    +0.000 C 
ATOM     29  C   UNL     1       1.457  13.520  18.351  0.00  0.00    +0.000 C 
BRANCH  25  30
ATOM     30  O   UNL     1      -0.594  12.553  17.542  0.00  0.00    +0.000 OA
ATOM     31  H   UNL     1      -0.045  12.368  16.762  0.00  0.00    +0.000 HD
ENDBRANCH  25  30
ENDBRANCH  24  25
ENDBRANCH   8  23
TORSDOF 5
ENDMDL
MODEL 2
REMARK VINA RESULT:      -8.0      7.761     11.040
REMARK  Name = 
REMARK  6 active torsions:
REMARK  status: ('A' for Active; 'I' for Inactive)
REMARK    1  A    between atoms: C_1  and  C_2
REMARK    2  A    between atoms: C_2  and  O_3
REMARK    3  A    between atoms: C_9  and  C_10
REMARK    4  A    between atoms: C_11  and  C_12
REMARK    5  A    between atoms: C_12  and  O_13
REMARK    6  A    between atoms: C_22  and  C_23
REMARK                            x       y       z     vdW  Elec       q    Type
REMARK                         _______ _______ _______ _____ _____    ______ ____
ROOT
ATOM      1  C   UNL     1       9.263  16.530  21.458  0.00  0.00    +0.000 C 
ATOM      2  C   UNL     1       9.443  15.112  20.893  0.00  0.00    +0.000 C 
ATOM      3  C   UNL     1      10.922  14.924  20.500  0.00  0.00    +0.000 C 
ATOM      4  O   UNL     1      11.333  13.759  19.782  0.00  0.00    +0.000 OA
ATOM      5  C   UNL     1      10.580  12.646  19.580  0.00  0.00    +0.000 A 
ATOM      6  C   UNL     1      10.892  12.044  18.347  0.00  0.00    +0.000 A 
ATOM      7  C   UNL     1      10.236  10.897  17.909  0.00  0.00    +0.000 A 
ATOM      8  C   UNL     1       9.273  10.306  18.718  0.00  0.00    +0.000 A 
ATOM      9  C   UNL     1       8.979  10.875  19.968  0.00  0.00    +0.000 A 
ATOM     10  C   UNL     1       9.613  12.059  20.416  0.00  0.00    +0.000 A 
ATOM     11  C   UNL     1       9.179  12.651  21.684  0.00  0.00    +0.000 A 
ATOM     12  N   UNL     1       8.790  11.882  22.788  0.00  0.00    +0.000 NA
ATOM     13  C   UNL     1       8.417  12.685  23.773  0.00  0.00    +0.000 A 
ATOM     14  S   UNL     1       8.459  14.352  23.423  0.00  0.00    +0.000 S 
ATOM     15  C   UNL     1       9.061  14.021  21.853  0.00  0.00    +0.000 A 
ENDROOT
BRANCH  13  16
ATOM     16  C   UNL     1       7.991  12.270  25.108  0.00  0.00    +0.000 C 
ATOM     17  N   UNL     1       8.723  12.771  26.152  0.00  0.00    +0.000 N 
ATOM     18  O   UNL     1       7.043  11.528  25.363  0.00  0.00    +0.000 OA
ATOM     19  H   UNL     1       9.496  13.401  25.989  0.00  0.00    +0.000 HD
ATOM     20  H   UNL     1       8.442  12.515  27.086  0.00  0.00    +0.000 HD
ENDBRANCH  13  16
BRANCH   2  21
ATOM     21  O   UNL     1       8.563  15.043  19.768  0.00  0.00    +0.000 OA
ATOM     22  H   UNL     1       7.656  15.224  20.066  0.00  0.00    +0.000 HD
ENDBRANCH   2  21
BRANCH   8  23
ATOM     23  C   UNL     1       8.599   9.128  18.243  0.00  0.00    +0.000 C 
ATOM     24  C   UNL     1       7.974   8.053  17.848  0.00  0.00    +0.000 C 
BRANCH  24  25
ATOM     25  C   UNL     1       7.246   6.801  17.388  0.00  0.00    +0.000 C 
ATOM     26  C   UNL     1       7.446   5.635  18.352  0.00  0.00    +0.000 C 
ATOM     27  C   UNL     1       6.290   4.706  18.012  0.00  0.00    +0.000 C 
ATOM     28  C   UNL     1       5.121   5.640  17.721  0.00  0.00    +0.000 C 
ATOM     29  C   UNL     1       5.730   6.994  17.334  0.00  0.00    +0.000 C 
BRANCH  25  30
ATOM     30  O   UNL     1       7.718   6.440  16.094  0.00  0.00    +0.000 OA
ATOM     31  H   UNL     1       7.068   6.773  15.453  0.00  0.00    +0.000 HD
ENDBRANCH  25  30
ENDBRANCH  24  25
ENDBRANCH   8  23
TORSDOF 5
ENDMDL
MODEL 3
REMARK VINA RESULT:      -7.9      7.579     11.332
REMARK  Name = 
REMARK  6 active torsions:
REMARK  status: ('A' for Active; 'I' for Inactive)
REMARK    1  A    between atoms: C_1  and  C_2
REMARK    2  A    between atoms: C_2  and  O_3
REMARK    3  A    between atoms: C_9  and  C_10
REMARK    4  A    between atoms: C_11  and  C_12
REMARK    5  A    between atoms: C_12  and  O_13
REMARK    6  A    between atoms: C_22  and  C_23
REMARK                            x       y       z     vdW  Elec       q    Type
REMARK                         _______ _______ _______ _____ _____    ______ ____
ROOT
ATOM      1  C   UNL     1      10.930  17.308  17.214  0.00  0.00    +0.000 C 
ATOM      2  C   UNL     1      10.645  15.862  17.654  0.00  0.00    +0.000 C 
ATOM      3  C   UNL     1      11.624  15.492  18.787  0.00  0.00    +0.000 C 
ATOM      4  O   UNL     1      11.700  14.147  19.260  0.00  0.00    +0.000 OA
ATOM      5  C   UNL     1      10.823  13.152  18.965  0.00  0.00    +0.000 A 
ATOM      6  C   UNL     1      11.471  11.903  18.933  0.00  0.00    +0.000 A 
ATOM      7  C   UNL     1      10.780  10.732  18.632  0.00  0.00    +0.000 A 
ATOM      8  C   UNL     1       9.413  10.783  18.391  0.00  0.00    +0.000 A 
ATOM      9  C   UNL     1       8.747  12.019  18.457  0.00  0.00    +0.000 A 
ATOM     10  C   UNL     1       9.439  13.224  18.730  0.00  0.00    +0.000 A 
ATOM     11  C   UNL     1       8.695  14.486  18.679  0.00  0.00    +0.000 A 
ATOM     12  N   UNL     1       7.365  14.602  19.103  0.00  0.00    +0.000 NA
ATOM     13  C   UNL     1       6.949  15.844  18.907  0.00  0.00    +0.000 A 
ATOM     14  S   UNL     1       8.075  16.894  18.176  0.00  0.00    +0.000 S 
ATOM     15  C   UNL     1       9.243  15.640  18.143  0.00  0.00    +0.000 A 
ENDROOT
BRANCH  13  16
ATOM     16  C   UNL     1       5.637  16.379  19.266  0.00  0.00    +0.000 C 
ATOM     17  N   UNL     1       4.915  15.639  20.165  0.00  0.00    +0.000 N 
ATOM     18  O   UNL     1       5.143  17.423  18.840  0.00  0.00    +0.000 OA
ATOM     19  H   UNL     1       5.291  14.787  20.557  0.00  0.00    +0.000 HD
ATOM     20  H   UNL     1       4.012  15.992  20.445  0.00  0.00    +0.000 HD
ENDBRANCH  13  16
BRANCH   2  21
ATOM     21  O   UNL     1      10.839  15.069  16.480  0.00  0.00    +0.000 OA
ATOM     22  H   UNL     1      10.025  15.088  15.950  0.00  0.00    +0.000 HD
ENDBRANCH   2  21
BRANCH   8  23
ATOM     23  C   UNL     1       8.720   9.565  18.071  0.00  0.00    +0.000 C 
ATOM     24  C   UNL     1       8.071   8.463  17.813  0.00  0.00    +0.000 C 
BRANCH  24  25
ATOM     25  C   UNL     1       7.316   7.179  17.513  0.00  0.00    +0.000 C 
ATOM     26  C   UNL     1       7.501   6.136  18.611  0.00  0.00    +0.000 C 
ATOM     27  C   UNL     1       6.324   5.195  18.393  0.00  0.00    +0.000 C 
ATOM     28  C   UNL     1       5.171   6.111  17.996  0.00  0.00    +0.000 C 
ATOM     29  C   UNL     1       5.803   7.394  17.444  0.00  0.00    +0.000 C 
BRANCH  25  30
ATOM     30  O   UNL     1       7.771   6.654  16.271  0.00  0.00    +0.000 OA
ATOM     31  H   UNL     1       7.981   7.414  15.703  0.00  0.00    +0.000 HD
ENDBRANCH  25  30
ENDBRANCH  24  25
ENDBRANCH   8  23
TORSDOF 5
ENDMDL
MODEL 4
REMARK VINA RESULT:      -7.7      1.118      1.132
REMARK  Name = 
REMARK  6 active torsions:
REMARK  status: ('A' for Active; 'I' for Inactive)
REMARK    1  A    between atoms: C_1  and  C_2
REMARK    2  A    between atoms: C_2  and  O_3
REMARK    3  A    between atoms: C_9  and  C_10
REMARK    4  A    between atoms: C_11  and  C_12
REMARK    5  A    between atoms: C_12  and  O_13
REMARK    6  A    between atoms: C_22  and  C_23
REMARK                            x       y       z     vdW  Elec       q    Type
REMARK                         _______ _______ _______ _____ _____    ______ ____
ROOT
ATOM      1  C   UNL     1       3.165   1.840  17.526  0.00  0.00    +0.000 C 
ATOM      2  C   UNL     1       2.922   3.196  18.209  0.00  0.00    +0.000 C 
ATOM      3  C   UNL     1       2.987   2.995  19.736  0.00  0.00    +0.000 C 
ATOM      4  O   UNL     1       2.619   4.057  20.618  0.00  0.00    +0.000 OA
ATOM      5  C   UNL     1       2.411   5.350  20.257  0.00  0.00    +0.000 A 
ATOM      6  C   UNL     1       1.433   5.949  21.071  0.00  0.00    +0.000 A 
ATOM      7  C   UNL     1       1.034   7.269  20.880  0.00  0.00    +0.000 A 
ATOM      8  C   UNL     1       1.636   8.032  19.887  0.00  0.00    +0.000 A 
ATOM      9  C   UNL     1       2.642   7.457  19.091  0.00  0.00    +0.000 A 
ATOM     10  C   UNL     1       3.038   6.107  19.251  0.00  0.00    +0.000 A 
ATOM     11  C   UNL     1       4.018   5.549  18.315  0.00  0.00    +0.000 A 
ATOM     12  N   UNL     1       5.087   6.293  17.801  0.00  0.00    +0.000 NA
ATOM     13  C   UNL     1       5.780   5.541  16.959  0.00  0.00    +0.000 A 
ATOM     14  S   UNL     1       5.176   3.968  16.704  0.00  0.00    +0.000 S 
ATOM     15  C   UNL     1       3.912   4.258  17.824  0.00  0.00    +0.000 A 
ENDROOT
BRANCH  13  16
ATOM     16  C   UNL     1       6.998   5.937  16.254  0.00  0.00    +0.000 C 
ATOM     17  N   UNL     1       7.344   5.164  15.177  0.00  0.00    +0.000 N 
ATOM     18  O   UNL     1       7.717   6.894  16.540  0.00  0.00    +0.000 OA
ATOM     19  H   UNL     1       6.771   4.382  14.894  0.00  0.00    +0.000 HD
ATOM     20  H   UNL     1       8.171   5.423  14.661  0.00  0.00    +0.000 HD
ENDBRANCH  13  16
BRANCH   2  21
ATOM     21  O   UNL     1       1.628   3.611  17.765  0.00  0.00    +0.000 OA
ATOM     22  H   UNL     1       1.481   3.277  16.865  0.00  0.00    +0.000 HD
ENDBRANCH   2  21
BRANCH   8  23
ATOM     23  C   UNL     1       1.204   9.390  19.698  0.00  0.00    +0.000 C 
ATOM     24  C   UNL     1       0.810  10.627  19.564  0.00  0.00    +0.000 C 
BRANCH  24  25
ATOM     25  C   UNL     1       0.352  12.067  19.408  0.00  0.00    +0.000 C 
ATOM     26  C   UNL     1      -1.126  12.237  19.747  0.00  0.00    +0.000 C 
ATOM     27  C   UNL     1      -1.246  13.729  20.021  0.00  0.00    +0.000 C 
ATOM     28  C   UNL     1       0.047  14.090  20.744  0.00  0.00    +0.000 C 
ATOM     29  C   UNL     1       1.073  13.016  20.366  0.00  0.00    +0.000 C 
BRANCH  25  30
ATOM     30  O   UNL     1       0.588  12.485  18.068  0.00  0.00    +0.000 OA
ATOM     31  H   UNL     1       1.498  12.826  18.035  0.00  0.00    +0.000 HD
ENDBRANCH  25  30
ENDBRANCH  24  25
ENDBRANCH   8  23
TORSDOF 5
ENDMDL
MODEL 5
REMARK VINA RESULT:      -7.6      1.258      1.451
REMARK  Name = 
REMARK  6 active torsions:
REMARK  status: ('A' for Active; 'I' for Inactive)
REMARK    1  A    between atoms: C_1  and  C_2
REMARK    2  A    between atoms: C_2  and  O_3
REMARK    3  A    between atoms: C_9  and  C_10
REMARK    4  A    between atoms: C_11  and  C_12
REMARK    5  A    between atoms: C_12  and  O_13
REMARK    6  A    between atoms: C_22  and  C_23
REMARK                            x       y       z     vdW  Elec       q    Type
REMARK                         _______ _______ _______ _____ _____    ______ ____
ROOT
ATOM      1  C   UNL     1       3.282   1.762  17.409  0.00  0.00    +0.000 C 
ATOM      2  C   UNL     1       3.028   3.085  18.149  0.00  0.00    +0.000 C 
ATOM      3  C   UNL     1       3.118   2.823  19.667  0.00  0.00    +0.000 C 
ATOM      4  O   UNL     1       2.746   3.843  20.595  0.00  0.00    +0.000 OA
ATOM      5  C   UNL     1       2.514   5.146  20.290  0.00  0.00    +0.000 A 
ATOM      6  C   UNL     1       1.538   5.696  21.141  0.00  0.00    +0.000 A 
ATOM      7  C   UNL     1       1.117   7.017  21.009  0.00  0.00    +0.000 A 
ATOM      8  C   UNL     1       1.693   7.828  20.040  0.00  0.00    +0.000 A 
ATOM      9  C   UNL     1       2.697   7.302  19.208  0.00  0.00    +0.000 A 
ATOM     10  C   UNL     1       3.115   5.953  19.307  0.00  0.00    +0.000 A 
ATOM     11  C   UNL     1       4.090   5.449  18.337  0.00  0.00    +0.000 A 
ATOM     12  N   UNL     1       5.141   6.230  17.839  0.00  0.00    +0.000 NA
ATOM     13  C   UNL     1       5.833   5.523  16.958  0.00  0.00    +0.000 A 
ATOM     14  S   UNL     1       5.250   3.953  16.647  0.00  0.00    +0.000 S 
ATOM     15  C   UNL     1       3.997   4.177  17.795  0.00  0.00    +0.000 A 
ENDROOT
BRANCH  13  16
ATOM     16  C   UNL     1       7.035   5.966  16.254  0.00  0.00    +0.000 C 
ATOM     17  N   UNL     1       7.395   5.225  15.159  0.00  0.00    +0.000 N 
ATOM     18  O   UNL     1       7.729   6.937  16.555  0.00  0.00    +0.000 OA
ATOM     19  H   UNL     1       6.841   4.433  14.864  0.00  0.00    +0.000 HD
ATOM     20  H   UNL     1       8.211   5.517  14.643  0.00  0.00    +0.000 HD
ENDBRANCH  13  16
BRANCH   2  21
ATOM     21  O   UNL     1       1.722   3.497  17.740  0.00  0.00    +0.000 OA
ATOM     22  H   UNL     1       1.260   2.738  17.348  0.00  0.00    +0.000 HD
ENDBRANCH   2  21
BRANCH   8  23
ATOM     23  C   UNL     1       1.238   9.186  19.913  0.00  0.00    +0.000 C 
ATOM     24  C   UNL     1       0.828  10.422  19.834  0.00  0.00    +0.000 C 
BRANCH  24  25
ATOM     25  C   UNL     1       0.350  11.862  19.743  0.00  0.00    +0.000 C 
ATOM     26  C   UNL     1       1.467  12.810  19.316  0.00  0.00    +0.000 C 
ATOM     27  C   UNL     1       0.708  14.027  18.808  0.00  0.00    +0.000 C 
ATOM     28  C   UNL     1      -0.509  13.449  18.095  0.00  0.00    +0.000 C 
ATOM     29  C   UNL     1      -0.735  12.050  18.682  0.00  0.00    +0.000 C 
BRANCH  25  30
ATOM     30  O   UNL     1      -0.160  12.261  21.010  0.00  0.00    +0.000 OA
ATOM     31  H   UNL     1      -0.775  11.566  21.299  0.00  0.00    +0.000 HD
ENDBRANCH  25  30
ENDBRANCH  24  25
ENDBRANCH   8  23
TORSDOF 5
ENDMDL
MODEL 6
REMARK VINA RESULT:      -7.5      4.020      8.389
REMARK  Name = 
REMARK  6 active torsions:
REMARK  status: ('A' for Active; 'I' for Inactive)
REMARK    1  A    between atoms: C_1  and  C_2
REMARK    2  A    between atoms: C_2  and  O_3
REMARK    3  A    between atoms: C_9  and  C_10
REMARK    4  A    between atoms: C_11  and  C_12
REMARK    5  A    between atoms: C_12  and  O_13
REMARK    6  A    between atoms: C_22  and  C_23
REMARK                            x       y       z     vdW  Elec       q    Type
REMARK                         _______ _______ _______ _____ _____    ______ ____
ROOT
ATOM      1  C   UNL     1      -1.174  13.145  21.344  0.00  0.00    +0.000 C 
ATOM      2  C   UNL     1      -0.527  11.824  20.898  0.00  0.00    +0.000 C 
ATOM      3  C   UNL     1      -0.889  10.730  21.924  0.00  0.00    +0.000 C 
ATOM      4  O   UNL     1      -0.271   9.444  21.851  0.00  0.00    +0.000 OA
ATOM      5  C   UNL     1       0.472   8.979  20.813  0.00  0.00    +0.000 A 
ATOM      6  C   UNL     1       1.475   8.103  21.265  0.00  0.00    +0.000 A 
ATOM      7  C   UNL     1       2.378   7.512  20.385  0.00  0.00    +0.000 A 
ATOM      8  C   UNL     1       2.271   7.760  19.022  0.00  0.00    +0.000 A 
ATOM      9  C   UNL     1       1.250   8.605  18.554  0.00  0.00    +0.000 A 
ATOM     10  C   UNL     1       0.343   9.239  19.437  0.00  0.00    +0.000 A 
ATOM     11  C   UNL     1      -0.628  10.186  18.883  0.00  0.00    +0.000 A 
ATOM     12  N   UNL     1      -1.238  10.008  17.635  0.00  0.00    +0.000 NA
ATOM     13  C   UNL     1      -2.036  11.035  17.386  0.00  0.00    +0.000 A 
ATOM     14  S   UNL     1      -2.058  12.259  18.572  0.00  0.00    +0.000 S 
ATOM     15  C   UNL     1      -0.960  11.363  19.536  0.00  0.00    +0.000 A 
ENDROOT
BRANCH  13  16
ATOM     16  C   UNL     1      -2.888  11.197  16.209  0.00  0.00    +0.000 C 
ATOM     17  N   UNL     1      -4.067  11.865  16.412  0.00  0.00    +0.000 N 
ATOM     18  O   UNL     1      -2.631  10.798  15.074  0.00  0.00    +0.000 OA
ATOM     19  H   UNL     1      -4.307  12.229  17.323  0.00  0.00    +0.000 HD
ATOM     20  H   UNL     1      -4.667  12.007  15.614  0.00  0.00    +0.000 HD
ENDBRANCH  13  16
BRANCH   2  21
ATOM     21  O   UNL     1       0.877  12.091  20.853  0.00  0.00    +0.000 OA
ATOM     22  H   UNL     1       1.027  13.024  21.075  0.00  0.00    +0.000 HD
ENDBRANCH   2  21
BRANCH   8  23
ATOM     23  C   UNL     1       3.219   7.150  18.130  0.00  0.00    +0.000 C 
ATOM     24  C   UNL     1       4.085   6.629  17.305  0.00  0.00    +0.000 C 
BRANCH  24  25
ATOM     25  C   UNL     1       5.093   6.023  16.343  0.00  0.00    +0.000 C 
ATOM     26  C   UNL     1       6.484   5.919  16.962  0.00  0.00    +0.000 C 
ATOM     27  C   UNL     1       7.171   4.877  16.091  0.00  0.00    +0.000 C 
ATOM     28  C   UNL     1       6.079   3.859  15.781  0.00  0.00    +0.000 C 
ATOM     29  C   UNL     1       4.741   4.586  15.957  0.00  0.00    +0.000 C 
BRANCH  25  30
ATOM     30  O   UNL     1       5.150   6.824  15.167  0.00  0.00    +0.000 OA
ATOM     31  H   UNL     1       4.253   6.842  14.794  0.00  0.00    +0.000 HD
ENDBRANCH  25  30
ENDBRANCH  24  25
ENDBRANCH   8  23
TORSDOF 5
ENDMDL
MODEL 7
REMARK VINA RESULT:      -7.2      4.340      6.869
REMARK  Name = 
REMARK  6 active torsions:
REMARK  status: ('A' for Active; 'I' for Inactive)
REMARK    1  A    between atoms: C_1  and  C_2
REMARK    2  A    between atoms: C_2  and  O_3
REMARK    3  A    between atoms: C_9  and  C_10
REMARK    4  A    between atoms: C_11  and  C_12
REMARK    5  A    between atoms: C_12  and  O_13
REMARK    6  A    between atoms: C_22  and  C_23
REMARK                            x       y       z     vdW  Elec       q    Type
REMARK                         _______ _______ _______ _____ _____    ______ ____
ROOT
ATOM      1  C   UNL     1       3.564   2.022  19.014  0.00  0.00    +0.000 C 
ATOM      2  C   UNL     1       4.258   3.296  18.506  0.00  0.00    +0.000 C 
ATOM      3  C   UNL     1       4.202   3.305  16.965  0.00  0.00    +0.000 C 
ATOM      4  O   UNL     1       4.930   4.286  16.224  0.00  0.00    +0.000 OA
ATOM      5  C   UNL     1       5.523   5.392  16.745  0.00  0.00    +0.000 A 
ATOM      6  C   UNL     1       6.678   5.733  16.017  0.00  0.00    +0.000 A 
ATOM      7  C   UNL     1       7.468   6.823  16.372  0.00  0.00    +0.000 A 
ATOM      8  C   UNL     1       7.096   7.619  17.449  0.00  0.00    +0.000 A 
ATOM      9  C   UNL     1       5.924   7.311  18.161  0.00  0.00    +0.000 A 
ATOM     10  C   UNL     1       5.126   6.189  17.833  0.00  0.00    +0.000 A 
ATOM     11  C   UNL     1       3.977   5.873  18.686  0.00  0.00    +0.000 A 
ATOM     12  N   UNL     1       3.179   6.858  19.283  0.00  0.00    +0.000 NA
ATOM     13  C   UNL     1       2.245   6.278  20.021  0.00  0.00    +0.000 A 
ATOM     14  S   UNL     1       2.302   4.576  20.082  0.00  0.00    +0.000 S 
ATOM     15  C   UNL     1       3.643   4.569  19.014  0.00  0.00    +0.000 A 
ENDROOT
BRANCH  13  16
ATOM     16  C   UNL     1       1.186   6.961  20.762  0.00  0.00    +0.000 C 
ATOM     17  N   UNL     1       1.528   8.164  21.321  0.00  0.00    +0.000 N 
ATOM     18  O   UNL     1       0.034   6.554  20.912  0.00  0.00    +0.000 OA
ATOM     19  H   UNL     1       2.456   8.545  21.204  0.00  0.00    +0.000 HD
ATOM     20  H   UNL     1       0.813   8.667  21.824  0.00  0.00    +0.000 HD
ENDBRANCH  13  16
BRANCH   2  21
ATOM     21  O   UNL     1       5.595   3.218  19.006  0.00  0.00    +0.000 OA
ATOM     22  H   UNL     1       6.208   3.147  18.256  0.00  0.00    +0.000 HD
ENDBRANCH   2  21
BRANCH   8  23
ATOM     23  C   UNL     1       7.931   8.733  17.807  0.00  0.00    +0.000 C 
ATOM     24  C   UNL     1       8.658   9.762  18.146  0.00  0.00    +0.000 C 
BRANCH  24  25
ATOM     25  C   UNL     1       9.505  10.961  18.540  0.00  0.00    +0.000 C 
ATOM     26  C   UNL     1       9.907  10.919  20.011  0.00  0.00    +0.000 C 
ATOM     27  C   UNL     1      11.102  11.860  20.067  0.00  0.00    +0.000 C 
ATOM     28  C   UNL     1      11.852  11.605  18.764  0.00  0.00    +0.000 C 
ATOM     29  C   UNL     1      10.832  11.012  17.783  0.00  0.00    +0.000 C 
BRANCH  25  30
ATOM     30  O   UNL     1       8.770  12.152  18.278  0.00  0.00    +0.000 OA
ATOM     31  H   UNL     1       8.169  11.957  17.540  0.00  0.00    +0.000 HD
ENDBRANCH  25  30
ENDBRANCH  24  25
ENDBRANCH   8  23
TORSDOF 5
ENDMDL
MODEL 8
REMARK VINA RESULT:      -7.1      4.255      6.669
REMARK  Name = 
REMARK  6 active torsions:
REMARK  status: ('A' for Active; 'I' for Inactive)
REMARK    1  A    between atoms: C_1  and  C_2
REMARK    2  A    between atoms: C_2  and  O_3
REMARK    3  A    between atoms: C_9  and  C_10
REMARK    4  A    between atoms: C_11  and  C_12
REMARK    5  A    between atoms: C_12  and  O_13
REMARK    6  A    between atoms: C_22  and  C_23
REMARK                            x       y       z     vdW  Elec       q    Type
REMARK                         _______ _______ _______ _____ _____    ______ ____
ROOT
ATOM      1  C   UNL     1       3.308   2.129  19.502  0.00  0.00    +0.000 C 
ATOM      2  C   UNL     1       4.023   3.339  18.880  0.00  0.00    +0.000 C 
ATOM      3  C   UNL     1       3.923   3.233  17.345  0.00  0.00    +0.000 C 
ATOM      4  O   UNL     1       4.656   4.133  16.512  0.00  0.00    +0.000 OA
ATOM      5  C   UNL     1       5.296   5.257  16.931  0.00  0.00    +0.000 A 
ATOM      6  C   UNL     1       6.438   5.507  16.148  0.00  0.00    +0.000 A 
ATOM      7  C   UNL     1       7.268   6.596  16.398  0.00  0.00    +0.000 A 
ATOM      8  C   UNL     1       6.951   7.482  17.420  0.00  0.00    +0.000 A 
ATOM      9  C   UNL     1       5.792   7.264  18.185  0.00  0.00    +0.000 A 
ATOM     10  C   UNL     1       4.953   6.145  17.965  0.00  0.00    +0.000 A 
ATOM     11  C   UNL     1       3.821   5.929  18.871  0.00  0.00    +0.000 A 
ATOM     12  N   UNL     1       3.068   6.980  19.411  0.00  0.00    +0.000 NA
ATOM     13  C   UNL     1       2.140   6.486  20.216  0.00  0.00    +0.000 A 
ATOM     14  S   UNL     1       2.151   4.793  20.406  0.00  0.00    +0.000 S 
ATOM     15  C   UNL     1       3.459   4.664  19.306  0.00  0.00    +0.000 A 
ENDROOT
BRANCH  13  16
ATOM     16  C   UNL     1       1.123   7.255  20.931  0.00  0.00    +0.000 C 
ATOM     17  N   UNL     1       1.581   8.326  21.652  0.00  0.00    +0.000 N 
ATOM     18  O   UNL     1      -0.087   7.027  20.928  0.00  0.00    +0.000 OA
ATOM     19  H   UNL     1       2.563   8.562  21.664  0.00  0.00    +0.000 HD
ATOM     20  H   UNL     1       0.899   8.886  22.142  0.00  0.00    +0.000 HD
ENDBRANCH  13  16
BRANCH   2  21
ATOM     21  O   UNL     1       5.372   3.258  19.348  0.00  0.00    +0.000 OA
ATOM     22  H   UNL     1       5.951   3.028  18.603  0.00  0.00    +0.000 HD
ENDBRANCH   2  21
BRANCH   8  23
ATOM     23  C   UNL     1       7.827   8.594  17.671  0.00  0.00    +0.000 C 
ATOM     24  C   UNL     1       8.598   9.615  17.925  0.00  0.00    +0.000 C 
BRANCH  24  25
ATOM     25  C   UNL     1       9.497  10.804  18.221  0.00  0.00    +0.000 C 
ATOM     26  C   UNL     1       8.776  12.133  18.010  0.00  0.00    +0.000 C 
ATOM     27  C   UNL     1       9.621  13.112  18.812  0.00  0.00    +0.000 C 
ATOM     28  C   UNL     1      10.041  12.330  20.051  0.00  0.00    +0.000 C 
ATOM     29  C   UNL     1       9.948  10.844  19.682  0.00  0.00    +0.000 C 
BRANCH  25  30
ATOM     30  O   UNL     1      10.642  10.740  17.378  0.00  0.00    +0.000 OA
ATOM     31  H   UNL     1      10.520   9.973  16.794  0.00  0.00    +0.000 HD
ENDBRANCH  25  30
ENDBRANCH  24  25
ENDBRANCH   8  23
TORSDOF 5
ENDMDL
MODEL 9
REMARK VINA RESULT:      -7.1      7.678     11.220
REMARK  Name = 
REMARK  6 active torsions:
REMARK  status: ('A' for Active; 'I' for Inactive)
REMARK    1  A    between atoms: C_1  and  C_2
REMARK    2  A    between atoms: C_2  and  O_3
REMARK    3  A    between atoms: C_9  and  C_10
REMARK    4  A    between atoms: C_11  and  C_12
REMARK    5  A    between atoms: C_12  and  O_13
REMARK    6  A    between atoms: C_22  and  C_23
REMARK                            x       y       z     vdW  Elec       q    Type
REMARK                         _______ _______ _______ _____ _____    ______ ____
ROOT
ATOM      1  C   UNL     1       9.039  17.372  19.860  0.00  0.00    +0.000 C 
ATOM      2  C   UNL     1       9.253  15.866  19.639  0.00  0.00    +0.000 C 
ATOM      3  C   UNL     1      10.767  15.597  19.530  0.00  0.00    +0.000 C 
ATOM      4  O   UNL     1      11.242  14.306  19.144  0.00  0.00    +0.000 OA
ATOM      5  C   UNL     1      10.490  13.176  19.063  0.00  0.00    +0.000 A 
ATOM      6  C   UNL     1      10.966  12.327  18.048  0.00  0.00    +0.000 A 
ATOM      7  C   UNL     1      10.344  11.115  17.762  0.00  0.00    +0.000 A 
ATOM      8  C   UNL     1       9.249  10.709  18.515  0.00  0.00    +0.000 A 
ATOM      9  C   UNL     1       8.788  11.531  19.557  0.00  0.00    +0.000 A 
ATOM     10  C   UNL     1       9.388  12.781  19.842  0.00  0.00    +0.000 A 
ATOM     11  C   UNL     1       8.786  13.629  20.875  0.00  0.00    +0.000 A 
ATOM     12  N   UNL     1       8.206  13.111  22.040  0.00  0.00    +0.000 NA
ATOM     13  C   UNL     1       7.716  14.105  22.765  0.00  0.00    +0.000 A 
ATOM     14  S   UNL     1       7.869  15.661  22.086  0.00  0.00    +0.000 S 
ATOM     15  C   UNL     1       8.692  15.004  20.734  0.00  0.00    +0.000 A 
ENDROOT
BRANCH  13  16
ATOM     16  C   UNL     1       7.077  13.982  24.074  0.00  0.00    +0.000 C 
ATOM     17  N   UNL     1       7.307  15.010  24.950  0.00  0.00    +0.000 N 
ATOM     18  O   UNL     1       6.359  13.053  24.440  0.00  0.00    +0.000 OA
ATOM     19  H   UNL     1       7.872  15.804  24.683  0.00  0.00    +0.000 HD
ATOM     20  H   UNL     1       6.865  14.961  25.856  0.00  0.00    +0.000 HD
ENDBRANCH  13  16
BRANCH   2  21
ATOM     21  O   UNL     1       8.553  15.563  18.430  0.00  0.00    +0.000 OA
ATOM     22  H   UNL     1       9.021  14.850  17.965  0.00  0.00    +0.000 HD
ENDBRANCH   2  21
BRANCH   8  23
ATOM     23  C   UNL     1       8.615   9.459  18.197  0.00  0.00    +0.000 C 
ATOM     24  C   UNL     1       8.018   8.342  17.883  0.00  0.00    +0.000 C 
BRANCH  24  25
ATOM     25  C   UNL     1       7.322   7.041  17.517  0.00  0.00    +0.000 C 
ATOM     26  C   UNL     1       7.562   5.951  18.558  0.00  0.00    +0.000 C 
ATOM     27  C   UNL     1       6.430   4.969  18.294  0.00  0.00    +0.000 C 
ATOM     28  C   UNL     1       5.233   5.849  17.949  0.00  0.00    +0.000 C 
ATOM     29  C   UNL     1       5.801   7.188  17.464  0.00  0.00    +0.000 C 
BRANCH  25  30
ATOM     30  O   UNL     1       7.796   6.605  16.248  0.00  0.00    +0.000 OA
ATOM     31  H   UNL     1       8.461   7.251  15.957  0.00  0.00    +0.000 HD
ENDBRANCH  25  30
ENDBRANCH  24  25
ENDBRANCH   8  23
TORSDOF 5
ENDMDL
