MODEL 1
REMARK VINA RESULT:      -6.8      0.000      0.000
REMARK  Name = 
REMARK  7 active torsions:
REMARK  status: ('A' for Active; 'I' for Inactive)
REMARK    1  A    between atoms: C_1  and  C_2
REMARK    2  A    between atoms: C_2  and  O_3
REMARK    3  A    between atoms: O_3  and  C_4
REMARK    4  A    between atoms: C_4  and  C_6
REMARK    5  A    between atoms: N_9  and  N_10
REMARK    6  A    between atoms: C_11  and  C_12
REMARK    7  A    between atoms: C_20  and  C_21
REMARK                            x       y       z     vdW  Elec       q    Type
REMARK                         _______ _______ _______ _____ _____    ______ ____
ROOT
ATOM      1  C   UNL     1       5.490   5.197  17.282  0.00  0.00    +0.000 A 
ATOM      2  S   UNL     1       4.948   6.694  16.631  0.00  0.00    +0.000 S 
ATOM      3  C   UNL     1       3.719   6.784  17.829  0.00  0.00    +0.000 A 
ATOM      4  N   UNL     1       2.888   7.859  17.875  0.00  0.00    +0.000 N 
ATOM      5  N   UNL     1       3.694   5.763  18.657  0.00  0.00    +0.000 NA
ATOM      6  C   UNL     1       4.679   4.842  18.349  0.00  0.00    +0.000 A 
ATOM      7  C   UNL     1       4.728   3.604  19.175  0.00  0.00    +0.000 C 
ATOM      8  H   UNL     1       3.042   8.573  17.168  0.00  0.00    +0.000 HD
ENDROOT
BRANCH   1   9
ATOM      9  C   UNL     1       6.595   4.515  16.652  0.00  0.00    +0.000 C 
ATOM     10  O   UNL     1       7.778   4.609  16.959  0.00  0.00    +0.000 OA
BRANCH   9  11
ATOM     11  O   UNL     1       6.142   3.794  15.585  0.00  0.00    +0.000 OA
BRANCH  11  13
ATOM     12  C   UNL     1       5.769   3.540  13.240  0.00  0.00    +0.000 C 
ATOM     13  C   UNL     1       6.625   4.207  14.300  0.00  0.00    +0.000 C 
ENDBRANCH  11  13
ENDBRANCH   9  11
ENDBRANCH   1   9
BRANCH   4  14
ATOM     14  N   UNL     1       2.267   8.206  19.034  0.00  0.00    +0.000 NA
ATOM     15  C   UNL     1       1.380   9.146  18.965  0.00  0.00    +0.000 C 
BRANCH  15  16
ATOM     16  C   UNL     1       0.723   9.647  20.193  0.00  0.00    +0.000 A 
ATOM     17  C   UNL     1       0.288   8.700  21.139  0.00  0.00    +0.000 A 
ATOM     18  C   UNL     1      -0.289   9.107  22.342  0.00  0.00    +0.000 A 
ATOM     19  C   UNL     1      -0.448  10.463  22.606  0.00  0.00    +0.000 A 
ATOM     20  C   UNL     1      -0.028  11.412  21.672  0.00  0.00    +0.000 A 
ATOM     21  C   UNL     1       0.557  11.009  20.462  0.00  0.00    +0.000 A 
ATOM     22 BR   UNL     1       1.089  12.384  19.267  0.00  0.00    +0.000 Br
ENDBRANCH  15  16
ENDBRANCH   4  14
TORSDOF 5
ENDMDL
MODEL 2
REMARK VINA RESULT:      -6.7      5.875      7.166
REMARK  Name = 
REMARK  7 active torsions:
REMARK  status: ('A' for Active; 'I' for Inactive)
REMARK    1  A    between atoms: C_1  and  C_2
REMARK    2  A    between atoms: C_2  and  O_3
REMARK    3  A    between atoms: O_3  and  C_4
REMARK    4  A    between atoms: C_4  and  C_6
REMARK    5  A    between atoms: N_9  and  N_10
REMARK    6  A    between atoms: C_11  and  C_12
REMARK    7  A    between atoms: C_20  and  C_21
REMARK                            x       y       z     vdW  Elec       q    Type
REMARK                         _______ _______ _______ _____ _____    ______ ____
ROOT
ATOM      1  C   UNL     1       6.046   5.418  17.740  0.00  0.00    +0.000 A 
ATOM      2  S   UNL     1       7.260   5.810  18.893  0.00  0.00    +0.000 S 
ATOM      3  C   UNL     1       7.592   7.278  18.064  0.00  0.00    +0.000 A 
ATOM      4  N   UNL     1       8.530   8.137  18.545  0.00  0.00    +0.000 N 
ATOM      5  N   UNL     1       6.862   7.468  16.987  0.00  0.00    +0.000 NA
ATOM      6  C   UNL     1       5.993   6.413  16.776  0.00  0.00    +0.000 A 
ATOM      7  C   UNL     1       5.143   6.471  15.555  0.00  0.00    +0.000 C 
ATOM      8  H   UNL     1       9.003   7.850  19.397  0.00  0.00    +0.000 HD
ENDROOT
BRANCH   1   9
ATOM      9  C   UNL     1       5.328   4.172  17.870  0.00  0.00    +0.000 C 
ATOM     10  O   UNL     1       4.739   3.576  16.976  0.00  0.00    +0.000 OA
BRANCH   9  11
ATOM     11  O   UNL     1       5.323   3.779  19.177  0.00  0.00    +0.000 OA
BRANCH  11  13
ATOM     12  C   UNL     1       3.317   4.901  19.826  0.00  0.00    +0.000 C 
ATOM     13  C   UNL     1       4.032   3.564  19.761  0.00  0.00    +0.000 C 
ENDBRANCH  11  13
ENDBRANCH   9  11
ENDBRANCH   1   9
BRANCH   4  14
ATOM     14  N   UNL     1       8.479   9.461  18.236  0.00  0.00    +0.000 NA
ATOM     15  C   UNL     1       9.424  10.208  18.708  0.00  0.00    +0.000 C 
BRANCH  15  16
ATOM     16  C   UNL     1       9.396  11.673  18.495  0.00  0.00    +0.000 A 
ATOM     17  C   UNL     1       8.280  12.221  17.835  0.00  0.00    +0.000 A 
ATOM     18  C   UNL     1       8.166  13.599  17.651  0.00  0.00    +0.000 A 
ATOM     19  C   UNL     1       9.171  14.441  18.113  0.00  0.00    +0.000 A 
ATOM     20  C   UNL     1      10.287  13.910  18.762  0.00  0.00    +0.000 A 
ATOM     21  C   UNL     1      10.406  12.525  18.954  0.00  0.00    +0.000 A 
ATOM     22 BR   UNL     1      11.965  11.913  19.847  0.00  0.00    +0.000 Br
ENDBRANCH  15  16
ENDBRANCH   4  14
TORSDOF 5
ENDMDL
MODEL 3
REMARK VINA RESULT:      -6.7      2.759      3.177
REMARK  Name = 
REMARK  7 active torsions:
REMARK  status: ('A' for Active; 'I' for Inactive)
REMARK    1  A    between atoms: C_1  and  C_2
REMARK    2  A    between atoms: C_2  and  O_3
REMARK    3  A    between atoms: O_3  and  C_4
REMARK    4  A    between atoms: C_4  and  C_6
REMARK    5  A    between atoms: N_9  and  N_10
REMARK    6  A    between atoms: C_11  and  C_12
REMARK    7  A    between atoms: C_20  and  C_21
REMARK                            x       y       z     vdW  Elec       q    Type
REMARK                         _______ _______ _______ _____ _____    ______ ____
ROOT
ATOM      1  C   UNL     1       3.941   5.320  18.773  0.00  0.00    +0.000 A 
ATOM      2  S   UNL     1       4.132   6.539  17.576  0.00  0.00    +0.000 S 
ATOM      3  C   UNL     1       2.794   7.402  18.222  0.00  0.00    +0.000 A 
ATOM      4  N   UNL     1       2.421   8.591  17.677  0.00  0.00    +0.000 N 
ATOM      5  N   UNL     1       2.223   6.821  19.254  0.00  0.00    +0.000 NA
ATOM      6  C   UNL     1       2.847   5.628  19.569  0.00  0.00    +0.000 A 
ATOM      7  C   UNL     1       2.266   4.835  20.686  0.00  0.00    +0.000 C 
ATOM      8  H   UNL     1       2.972   8.911  16.886  0.00  0.00    +0.000 HD
ENDROOT
BRANCH   1   9
ATOM      9  C   UNL     1       4.831   4.183  18.769  0.00  0.00    +0.000 C 
ATOM     10  O   UNL     1       5.889   4.086  19.377  0.00  0.00    +0.000 OA
BRANCH   9  11
ATOM     11  O   UNL     1       4.362   3.236  17.905  0.00  0.00    +0.000 OA
BRANCH  11  13
ATOM     12  C   UNL     1       2.258   2.108  17.981  0.00  0.00    +0.000 C 
ATOM     13  C   UNL     1       3.683   2.124  18.502  0.00  0.00    +0.000 C 
ENDBRANCH  11  13
ENDBRANCH   9  11
ENDBRANCH   1   9
BRANCH   4  14
ATOM     14  N   UNL     1       1.735   9.505  18.415  0.00  0.00    +0.000 NA
ATOM     15  C   UNL     1       0.488   9.682  18.116  0.00  0.00    +0.000 C 
BRANCH  15  16
ATOM     16  C   UNL     1      -0.307  10.721  18.808  0.00  0.00    +0.000 A 
ATOM     17  C   UNL     1       0.339  11.502  19.785  0.00  0.00    +0.000 A 
ATOM     18  C   UNL     1      -0.338  12.534  20.435  0.00  0.00    +0.000 A 
ATOM     19  C   UNL     1      -1.669  12.788  20.124  0.00  0.00    +0.000 A 
ATOM     20  C   UNL     1      -2.323  12.015  19.162  0.00  0.00    +0.000 A 
ATOM     21  C   UNL     1      -1.647  10.978  18.502  0.00  0.00    +0.000 A 
ATOM     22 BR   UNL     1      -2.635   9.993  17.215  0.00  0.00    +0.000 Br
ENDBRANCH  15  16
ENDBRANCH   4  14
TORSDOF 5
ENDMDL
MODEL 4
REMARK VINA RESULT:      -6.6      2.425      3.046
REMARK  Name = 
REMARK  7 active torsions:
REMARK  status: ('A' for Active; 'I' for Inactive)
REMARK    1  A    between atoms: C_1  and  C_2
REMARK    2  A    between atoms: C_2  and  O_3
REMARK    3  A    between atoms: O_3  and  C_4
REMARK    4  A    between atoms: C_4  and  C_6
REMARK    5  A    between atoms: N_9  and  N_10
REMARK    6  A    between atoms: C_11  and  C_12
REMARK    7  A    between atoms: C_20  and  C_21
REMARK                            x       y       z     vdW  Elec       q    Type
REMARK                         _______ _______ _______ _____ _____    ______ ____
ROOT
ATOM      1  C   UNL     1       4.245   5.543  18.641  0.00  0.00    +0.000 A 
ATOM      2  S   UNL     1       4.295   6.808  17.477  0.00  0.00    +0.000 S 
ATOM      3  C   UNL     1       2.851   7.477  18.124  0.00  0.00    +0.000 A 
ATOM      4  N   UNL     1       2.336   8.623  17.603  0.00  0.00    +0.000 N 
ATOM      5  N   UNL     1       2.346   6.801  19.132  0.00  0.00    +0.000 NA
ATOM      6  C   UNL     1       3.112   5.689  19.427  0.00  0.00    +0.000 A 
ATOM      7  C   UNL     1       2.622   4.799  20.515  0.00  0.00    +0.000 C 
ATOM      8  H   UNL     1       2.852   9.032  16.829  0.00  0.00    +0.000 HD
ENDROOT
BRANCH   1   9
ATOM      9  C   UNL     1       5.272   4.528  18.622  0.00  0.00    +0.000 C 
ATOM     10  O   UNL     1       5.377   3.585  19.397  0.00  0.00    +0.000 OA
BRANCH   9  11
ATOM     11  O   UNL     1       6.183   4.815  17.647  0.00  0.00    +0.000 OA
BRANCH  11  13
ATOM     12  C   UNL     1       7.850   6.091  18.787  0.00  0.00    +0.000 C 
ATOM     13  C   UNL     1       7.558   4.796  18.051  0.00  0.00    +0.000 C 
ENDBRANCH  11  13
ENDBRANCH   9  11
ENDBRANCH   1   9
BRANCH   4  14
ATOM     14  N   UNL     1       1.531   9.424  18.353  0.00  0.00    +0.000 NA
ATOM     15  C   UNL     1       0.300   9.537  17.970  0.00  0.00    +0.000 C 
BRANCH  15  16
ATOM     16  C   UNL     1      -0.620  10.458  18.675  0.00  0.00    +0.000 A 
ATOM     17  C   UNL     1      -0.210  10.972  19.920  0.00  0.00    +0.000 A 
ATOM     18  C   UNL     1      -1.006  11.887  20.610  0.00  0.00    +0.000 A 
ATOM     19  C   UNL     1      -2.223  12.287  20.070  0.00  0.00    +0.000 A 
ATOM     20  C   UNL     1      -2.644  11.779  18.840  0.00  0.00    +0.000 A 
ATOM     21  C   UNL     1      -1.847  10.861  18.138  0.00  0.00    +0.000 A 
ATOM     22 BR   UNL     1      -2.519  10.235  16.478  0.00  0.00    +0.000 Br
ENDBRANCH  15  16
ENDBRANCH   4  14
TORSDOF 5
ENDMDL
MODEL 5
REMARK VINA RESULT:      -6.6      5.688      6.972
REMARK  Name = 
REMARK  7 active torsions:
REMARK  status: ('A' for Active; 'I' for Inactive)
REMARK    1  A    between atoms: C_1  and  C_2
REMARK    2  A    between atoms: C_2  and  O_3
REMARK    3  A    between atoms: O_3  and  C_4
REMARK    4  A    between atoms: C_4  and  C_6
REMARK    5  A    between atoms: N_9  and  N_10
REMARK    6  A    between atoms: C_11  and  C_12
REMARK    7  A    between atoms: C_20  and  C_21
REMARK                            x       y       z     vdW  Elec       q    Type
REMARK                         _______ _______ _______ _____ _____    ______ ____
ROOT
ATOM      1  C   UNL     1       5.924   5.395  17.665  0.00  0.00    +0.000 A 
ATOM      2  S   UNL     1       7.088   5.650  18.904  0.00  0.00    +0.000 S 
ATOM      3  C   UNL     1       7.570   7.125  18.166  0.00  0.00    +0.000 A 
ATOM      4  N   UNL     1       8.532   7.894  18.742  0.00  0.00    +0.000 N 
ATOM      5  N   UNL     1       6.924   7.412  17.059  0.00  0.00    +0.000 NA
ATOM      6  C   UNL     1       6.000   6.432  16.747  0.00  0.00    +0.000 A 
ATOM      7  C   UNL     1       5.233   6.602  15.482  0.00  0.00    +0.000 C 
ATOM      8  H   UNL     1       8.931   7.538  19.607  0.00  0.00    +0.000 HD
ENDROOT
BRANCH   1   9
ATOM      9  C   UNL     1       5.116   4.198  17.693  0.00  0.00    +0.000 C 
ATOM     10  O   UNL     1       5.079   3.327  16.833  0.00  0.00    +0.000 OA
BRANCH   9  11
ATOM     11  O   UNL     1       4.315   4.211  18.798  0.00  0.00    +0.000 OA
BRANCH  11  13
ATOM     12  C   UNL     1       2.234   5.061  17.993  0.00  0.00    +0.000 C 
ATOM     13  C   UNL     1       2.944   3.856  18.581  0.00  0.00    +0.000 C 
ENDBRANCH  11  13
ENDBRANCH   9  11
ENDBRANCH   1   9
BRANCH   4  14
ATOM     14  N   UNL     1       8.592   9.230  18.493  0.00  0.00    +0.000 NA
ATOM     15  C   UNL     1       9.490   9.906  19.134  0.00  0.00    +0.000 C 
BRANCH  15  16
ATOM     16  C   UNL     1       9.564  11.377  18.990  0.00  0.00    +0.000 A 
ATOM     17  C   UNL     1       9.925  11.898  17.734  0.00  0.00    +0.000 A 
ATOM     18  C   UNL     1       9.961  13.276  17.517  0.00  0.00    +0.000 A 
ATOM     19  C   UNL     1       9.647  14.145  18.555  0.00  0.00    +0.000 A 
ATOM     20  C   UNL     1       9.294  13.641  19.808  0.00  0.00    +0.000 A 
ATOM     21  C   UNL     1       9.253  12.257  20.033  0.00  0.00    +0.000 A 
ATOM     22 BR   UNL     1       8.762  11.684  21.774  0.00  0.00    +0.000 Br
ENDBRANCH  15  16
ENDBRANCH   4  14
TORSDOF 5
ENDMDL
MODEL 6
REMARK VINA RESULT:      -6.5      1.309      1.516
REMARK  Name = 
REMARK  7 active torsions:
REMARK  status: ('A' for Active; 'I' for Inactive)
REMARK    1  A    between atoms: C_1  and  C_2
REMARK    2  A    between atoms: C_2  and  O_3
REMARK    3  A    between atoms: O_3  and  C_4
REMARK    4  A    between atoms: C_4  and  C_6
REMARK    5  A    between atoms: N_9  and  N_10
REMARK    6  A    between atoms: C_11  and  C_12
REMARK    7  A    between atoms: C_20  and  C_21
REMARK                            x       y       z     vdW  Elec       q    Type
REMARK                         _______ _______ _______ _____ _____    ______ ____
ROOT
ATOM      1  C   UNL     1       4.398   5.207  18.406  0.00  0.00    +0.000 A 
ATOM      2  S   UNL     1       4.144   6.763  17.721  0.00  0.00    +0.000 S 
ATOM      3  C   UNL     1       2.791   7.010  18.750  0.00  0.00    +0.000 A 
ATOM      4  N   UNL     1       2.106   8.184  18.710  0.00  0.00    +0.000 N 
ATOM      5  N   UNL     1       2.526   5.998  19.547  0.00  0.00    +0.000 NA
ATOM      6  C   UNL     1       3.415   4.957  19.351  0.00  0.00    +0.000 A 
ATOM      7  C   UNL     1       3.196   3.721  20.151  0.00  0.00    +0.000 C 
ATOM      8  H   UNL     1       2.443   8.874  18.044  0.00  0.00    +0.000 HD
ENDROOT
BRANCH   1   9
ATOM      9  C   UNL     1       5.480   4.388  17.910  0.00  0.00    +0.000 C 
ATOM     10  O   UNL     1       6.593   4.277  18.408  0.00  0.00    +0.000 OA
BRANCH   9  11
ATOM     11  O   UNL     1       5.112   3.803  16.734  0.00  0.00    +0.000 OA
BRANCH  11  13
ATOM     12  C   UNL     1       5.676   4.806  14.641  0.00  0.00    +0.000 C 
ATOM     13  C   UNL     1       6.102   3.803  15.698  0.00  0.00    +0.000 C 
ENDBRANCH  11  13
ENDBRANCH   9  11
ENDBRANCH   1   9
BRANCH   4  14
ATOM     14  N   UNL     1       1.388   8.605  19.786  0.00  0.00    +0.000 NA
ATOM     15  C   UNL     1       0.651   9.655  19.623  0.00  0.00    +0.000 C 
BRANCH  15  16
ATOM     16  C   UNL     1      -0.091  10.233  20.766  0.00  0.00    +0.000 A 
ATOM     17  C   UNL     1      -0.022   9.563  22.002  0.00  0.00    +0.000 A 
ATOM     18  C   UNL     1      -0.654  10.083  23.131  0.00  0.00    +0.000 A 
ATOM     19  C   UNL     1      -1.370  11.271  23.035  0.00  0.00    +0.000 A 
ATOM     20  C   UNL     1      -1.452  11.942  21.813  0.00  0.00    +0.000 A 
ATOM     21  C   UNL     1      -0.816  11.426  20.673  0.00  0.00    +0.000 A 
ATOM     22 BR   UNL     1      -0.997  12.419  19.066  0.00  0.00    +0.000 Br
ENDBRANCH  15  16
ENDBRANCH   4  14
TORSDOF 5
ENDMDL
MODEL 7
REMARK VINA RESULT:      -6.5      1.994      2.486
REMARK  Name = 
REMARK  7 active torsions:
REMARK  status: ('A' for Active; 'I' for Inactive)
REMARK    1  A    between atoms: C_1  and  C_2
REMARK    2  A    between atoms: C_2  and  O_3
REMARK    3  A    between atoms: O_3  and  C_4
REMARK    4  A    between atoms: C_4  and  C_6
REMARK    5  A    between atoms: N_9  and  N_10
REMARK    6  A    between atoms: C_11  and  C_12
REMARK    7  A    between atoms: C_20  and  C_21
REMARK                            x       y       z     vdW  Elec       q    Type
REMARK                         _______ _______ _______ _____ _____    ______ ____
ROOT
ATOM      1  C   UNL     1       3.883   5.257  18.623  0.00  0.00    +0.000 A 
ATOM      2  S   UNL     1       3.729   6.744  17.773  0.00  0.00    +0.000 S 
ATOM      3  C   UNL     1       2.528   7.269  18.883  0.00  0.00    +0.000 A 
ATOM      4  N   UNL     1       1.975   8.505  18.757  0.00  0.00    +0.000 N 
ATOM      5  N   UNL     1       2.239   6.396  19.822  0.00  0.00    +0.000 NA
ATOM      6  C   UNL     1       2.984   5.239  19.679  0.00  0.00    +0.000 A 
ATOM      7  C   UNL     1       2.717   4.139  20.645  0.00  0.00    +0.000 C 
ATOM      8  H   UNL     1       2.313   9.068  17.981  0.00  0.00    +0.000 HD
ENDROOT
BRANCH   1   9
ATOM      9  C   UNL     1       4.810   4.262  18.139  0.00  0.00    +0.000 C 
ATOM     10  O   UNL     1       4.568   3.379  17.324  0.00  0.00    +0.000 OA
BRANCH   9  11
ATOM     11  O   UNL     1       6.002   4.388  18.791  0.00  0.00    +0.000 OA
BRANCH  11  13
ATOM     12  C   UNL     1       7.582   6.109  18.295  0.00  0.00    +0.000 C 
ATOM     13  C   UNL     1       7.135   4.695  17.970  0.00  0.00    +0.000 C 
ENDBRANCH  11  13
ENDBRANCH   9  11
ENDBRANCH   1   9
BRANCH   4  14
ATOM     14  N   UNL     1       1.425   9.131  19.833  0.00  0.00    +0.000 NA
ATOM     15  C   UNL     1       0.237   9.621  19.681  0.00  0.00    +0.000 C 
BRANCH  15  16
ATOM     16  C   UNL     1      -0.397  10.396  20.771  0.00  0.00    +0.000 A 
ATOM     17  C   UNL     1      -0.420   9.825  22.057  0.00  0.00    +0.000 A 
ATOM     18  C   UNL     1      -0.954  10.526  23.139  0.00  0.00    +0.000 A 
ATOM     19  C   UNL     1      -1.481  11.797  22.943  0.00  0.00    +0.000 A 
ATOM     20  C   UNL     1      -1.472  12.371  21.671  0.00  0.00    +0.000 A 
ATOM     21  C   UNL     1      -0.933  11.674  20.579  0.00  0.00    +0.000 A 
ATOM     22 BR   UNL     1      -0.975  12.550  18.896  0.00  0.00    +0.000 Br
ENDBRANCH  15  16
ENDBRANCH   4  14
TORSDOF 5
ENDMDL
MODEL 8
REMARK VINA RESULT:      -6.4      2.999      4.028
REMARK  Name = 
REMARK  7 active torsions:
REMARK  status: ('A' for Active; 'I' for Inactive)
REMARK    1  A    between atoms: C_1  and  C_2
REMARK    2  A    between atoms: C_2  and  O_3
REMARK    3  A    between atoms: O_3  and  C_4
REMARK    4  A    between atoms: C_4  and  C_6
REMARK    5  A    between atoms: N_9  and  N_10
REMARK    6  A    between atoms: C_11  and  C_12
REMARK    7  A    between atoms: C_20  and  C_21
REMARK                            x       y       z     vdW  Elec       q    Type
REMARK                         _______ _______ _______ _____ _____    ______ ____
ROOT
ATOM      1  C   UNL     1       3.481   4.493  18.958  0.00  0.00    +0.000 A 
ATOM      2  S   UNL     1       4.314   5.997  18.981  0.00  0.00    +0.000 S 
ATOM      3  C   UNL     1       3.027   6.738  18.117  0.00  0.00    +0.000 A 
ATOM      4  N   UNL     1       3.077   8.065  17.822  0.00  0.00    +0.000 N 
ATOM      5  N   UNL     1       2.041   5.924  17.812  0.00  0.00    +0.000 NA
ATOM      6  C   UNL     1       2.290   4.641  18.263  0.00  0.00    +0.000 A 
ATOM      7  C   UNL     1       1.277   3.600  17.936  0.00  0.00    +0.000 C 
ATOM      8  H   UNL     1       3.906   8.561  18.137  0.00  0.00    +0.000 HD
ENDROOT
BRANCH   1   9
ATOM      9  C   UNL     1       4.099   3.336  19.563  0.00  0.00    +0.000 C 
ATOM     10  O   UNL     1       5.299   3.096  19.612  0.00  0.00    +0.000 OA
BRANCH   9  11
ATOM     11  O   UNL     1       3.134   2.481  20.010  0.00  0.00    +0.000 OA
BRANCH  11  13
ATOM     12  C   UNL     1       1.309   2.785  21.521  0.00  0.00    +0.000 C 
ATOM     13  C   UNL     1       2.808   2.578  21.403  0.00  0.00    +0.000 C 
ENDBRANCH  11  13
ENDBRANCH   9  11
ENDBRANCH   1   9
BRANCH   4  14
ATOM     14  N   UNL     1       1.934   8.768  17.602  0.00  0.00    +0.000 NA
ATOM     15  C   UNL     1       1.458   9.439  18.601  0.00  0.00    +0.000 C 
BRANCH  15  16
ATOM     16  C   UNL     1       0.171  10.158  18.474  0.00  0.00    +0.000 A 
ATOM     17  C   UNL     1      -0.793   9.632  17.593  0.00  0.00    +0.000 A 
ATOM     18  C   UNL     1      -2.047  10.232  17.468  0.00  0.00    +0.000 A 
ATOM     19  C   UNL     1      -2.345  11.368  18.212  0.00  0.00    +0.000 A 
ATOM     20  C   UNL     1      -1.395  11.904  19.083  0.00  0.00    +0.000 A 
ATOM     21  C   UNL     1      -0.133  11.304  19.217  0.00  0.00    +0.000 A 
ATOM     22 BR   UNL     1       1.079  12.118  20.428  0.00  0.00    +0.000 Br
ENDBRANCH  15  16
ENDBRANCH   4  14
TORSDOF 5
ENDMDL
MODEL 9
REMARK VINA RESULT:      -6.4      5.046      9.252
REMARK  Name = 
REMARK  7 active torsions:
REMARK  status: ('A' for Active; 'I' for Inactive)
REMARK    1  A    between atoms: C_1  and  C_2
REMARK    2  A    between atoms: C_2  and  O_3
REMARK    3  A    between atoms: O_3  and  C_4
REMARK    4  A    between atoms: C_4  and  C_6
REMARK    5  A    between atoms: N_9  and  N_10
REMARK    6  A    between atoms: C_11  and  C_12
REMARK    7  A    between atoms: C_20  and  C_21
REMARK                            x       y       z     vdW  Elec       q    Type
REMARK                         _______ _______ _______ _____ _____    ______ ____
ROOT
ATOM      1  C   UNL     1      -0.143  10.499  21.679  0.00  0.00    +0.000 A 
ATOM      2  S   UNL     1       0.716   9.185  22.379  0.00  0.00    +0.000 S 
ATOM      3  C   UNL     1       1.109   8.592  20.815  0.00  0.00    +0.000 A 
ATOM      4  N   UNL     1       1.879   7.479  20.679  0.00  0.00    +0.000 N 
ATOM      5  N   UNL     1       0.624   9.310  19.826  0.00  0.00    +0.000 NA
ATOM      6  C   UNL     1      -0.107  10.386  20.297  0.00  0.00    +0.000 A 
ATOM      7  C   UNL     1      -0.763  11.255  19.282  0.00  0.00    +0.000 C 
ATOM      8  H   UNL     1       2.185   7.041  21.544  0.00  0.00    +0.000 HD
ENDROOT
BRANCH   1   9
ATOM      9  C   UNL     1      -0.798  11.453  22.543  0.00  0.00    +0.000 C 
ATOM     10  O   UNL     1      -1.769  11.237  23.259  0.00  0.00    +0.000 OA
BRANCH   9  11
ATOM     11  O   UNL     1      -0.226  12.682  22.389  0.00  0.00    +0.000 OA
BRANCH  11  13
ATOM     12  C   UNL     1      -1.491  14.646  21.892  0.00  0.00    +0.000 C 
ATOM     13  C   UNL     1      -0.920  13.777  22.998  0.00  0.00    +0.000 C 
ENDBRANCH  11  13
ENDBRANCH   9  11
ENDBRANCH   1   9
BRANCH   4  14
ATOM     14  N   UNL     1       2.598   7.268  19.545  0.00  0.00    +0.000 NA
ATOM     15  C   UNL     1       2.734   6.041  19.157  0.00  0.00    +0.000 C 
BRANCH  15  16
ATOM     16  C   UNL     1       3.577   5.716  17.984  0.00  0.00    +0.000 A 
ATOM     17  C   UNL     1       4.364   6.745  17.434  0.00  0.00    +0.000 A 
ATOM     18  C   UNL     1       5.221   6.491  16.363  0.00  0.00    +0.000 A 
ATOM     19  C   UNL     1       5.291   5.212  15.824  0.00  0.00    +0.000 A 
ATOM     20  C   UNL     1       4.509   4.185  16.355  0.00  0.00    +0.000 A 
ATOM     21  C   UNL     1       3.647   4.431  17.435  0.00  0.00    +0.000 A 
ATOM     22 BR   UNL     1       2.631   2.962  18.075  0.00  0.00    +0.000 Br
ENDBRANCH  15  16
ENDBRANCH   4  14
TORSDOF 5
ENDMDL
