MODEL 1
REMARK VINA RESULT:      -6.2      0.000      0.000
REMARK  Name = 
REMARK  14 active torsions:
REMARK  status: ('A' for Active; 'I' for Inactive)
REMARK    1  A    between atoms: C_1  and  N_2
REMARK    2  A    between atoms: N_2  and  C_3
REMARK    3  A    between atoms: N_2  and  C_4
REMARK    4  A    between atoms: C_4  and  C_5
REMARK    5  A    between atoms: C_5  and  N_6
REMARK    6  A    between atoms: C_7  and  C_9
REMARK    7  A    between atoms: C_11  and  N_12
REMARK    8  A    between atoms: C_17  and  N_18
REMARK    9  A    between atoms: N_18  and  C_19
REMARK   10  A    between atoms: N_18  and  C_22
REMARK   11  A    between atoms: C_19  and  C_20
REMARK   12  A    between atoms: C_20  and  O_21
REMARK   13  A    between atoms: C_22  and  C_23
REMARK   14  A    between atoms: C_23  and  O_24
REMARK                            x       y       z     vdW  Elec       q    Type
REMARK                         _______ _______ _______ _____ _____    ______ ____
ROOT
ATOM      1  C   UNL     1       3.949   5.243  18.389  0.00  0.00    +0.000 A 
ATOM      2  C   UNL     1       2.884   4.980  19.300  0.00  0.00    +0.000 A 
ATOM      3  C   UNL     1       2.858   3.830  20.074  0.00  0.00    +0.000 A 
ATOM      4  C   UNL     1       3.873   2.899  19.950  0.00  0.00    +0.000 A 
ATOM      5  C   UNL     1       4.899   3.134  19.028  0.00  0.00    +0.000 A 
ATOM      6  C   UNL     1       4.992   4.282  18.186  0.00  0.00    +0.000 A 
ENDROOT
BRANCH   1   8
ATOM      7  N   UNL     1       2.771   7.380  18.192  0.00  0.00    +0.000 N 
ATOM      8  C   UNL     1       3.779   6.562  17.699  0.00  0.00    +0.000 C 
ATOM      9  O   UNL     1       4.458   6.871  16.728  0.00  0.00    +0.000 OA
ATOM     10  H   UNL     1       2.218   7.114  18.999  0.00  0.00    +0.000 HD
BRANCH   7  11
ATOM     11  C   UNL     1       2.576   8.744  17.726  0.00  0.00    +0.000 C 
BRANCH  11  12
ATOM     12  C   UNL     1       1.175   9.312  18.041  0.00  0.00    +0.000 C 
BRANCH  12  14
ATOM     13  C   UNL     1       1.349  11.587  18.912  0.00  0.00    +0.000 C 
ATOM     14  N   UNL     1       1.081  10.183  19.238  0.00  0.00    +0.000 NA
ATOM     15  C   UNL     1      -0.277  10.077  19.800  0.00  0.00    +0.000 C 
ENDBRANCH  12  14
ENDBRANCH  11  12
ENDBRANCH   7  11
ENDBRANCH   1   8
BRANCH   3  16
ATOM     16  N   UNL     1       1.777   3.608  21.037  0.00  0.00    +0.000 N 
ATOM     17  O   UNL     1       0.616   3.835  20.658  0.00  0.00    +0.000 OA
ATOM     18  O   UNL     1       2.084   3.221  22.170  0.00  0.00    +0.000 OA
ENDBRANCH   3  16
BRANCH   6  19
ATOM     19  N   UNL     1       6.072   4.331  17.293  0.00  0.00    +0.000 N 
BRANCH  19  20
ATOM     20  C   UNL     1       7.442   4.808  17.618  0.00  0.00    +0.000 C 
BRANCH  20  21
ATOM     21  C   UNL     1       7.489   6.247  18.146  0.00  0.00    +0.000 C 
BRANCH  21  22
ATOM     22  O   UNL     1       7.375   7.199  17.086  0.00  0.00    +0.000 OA
ATOM     23  H   UNL     1       6.767   7.884  17.418  0.00  0.00    +0.000 HD
ENDBRANCH  21  22
ENDBRANCH  20  21
ENDBRANCH  19  20
BRANCH  19  24
ATOM     24  C   UNL     1       5.941   3.847  15.878  0.00  0.00    +0.000 C 
BRANCH  24  25
ATOM     25  C   UNL     1       6.773   4.655  14.863  0.00  0.00    +0.000 C 
BRANCH  25  26
ATOM     26  O   UNL     1       6.212   5.943  14.629  0.00  0.00    +0.000 OA
ATOM     27  H   UNL     1       5.346   5.782  14.210  0.00  0.00    +0.000 HD
ENDBRANCH  25  26
ENDBRANCH  24  25
ENDBRANCH  19  24
ENDBRANCH   6  19
TORSDOF 12
ENDMDL
MODEL 2
REMARK VINA RESULT:      -6.1      1.938      2.198
REMARK  Name = 
REMARK  14 active torsions:
REMARK  status: ('A' for Active; 'I' for Inactive)
REMARK    1  A    between atoms: C_1  and  N_2
REMARK    2  A    between atoms: N_2  and  C_3
REMARK    3  A    between atoms: N_2  and  C_4
REMARK    4  A    between atoms: C_4  and  C_5
REMARK    5  A    between atoms: C_5  and  N_6
REMARK    6  A    between atoms: C_7  and  C_9
REMARK    7  A    between atoms: C_11  and  N_12
REMARK    8  A    between atoms: C_17  and  N_18
REMARK    9  A    between atoms: N_18  and  C_19
REMARK   10  A    between atoms: N_18  and  C_22
REMARK   11  A    between atoms: C_19  and  C_20
REMARK   12  A    between atoms: C_20  and  O_21
REMARK   13  A    between atoms: C_22  and  C_23
REMARK   14  A    between atoms: C_23  and  O_24
REMARK                            x       y       z     vdW  Elec       q    Type
REMARK                         _______ _______ _______ _____ _____    ______ ____
ROOT
ATOM      1  C   UNL     1       3.096   5.567  18.219  0.00  0.00    +0.000 A 
ATOM      2  C   UNL     1       2.074   4.702  18.708  0.00  0.00    +0.000 A 
ATOM      3  C   UNL     1       2.175   3.324  18.597  0.00  0.00    +0.000 A 
ATOM      4  C   UNL     1       3.278   2.766  17.977  0.00  0.00    +0.000 A 
ATOM      5  C   UNL     1       4.264   3.614  17.459  0.00  0.00    +0.000 A 
ATOM      6  C   UNL     1       4.229   5.039  17.520  0.00  0.00    +0.000 A 
ENDROOT
BRANCH   1   8
ATOM      7  N   UNL     1       1.989   7.258  19.601  0.00  0.00    +0.000 N 
ATOM      8  C   UNL     1       2.784   7.008  18.491  0.00  0.00    +0.000 C 
ATOM      9  O   UNL     1       3.168   7.900  17.744  0.00  0.00    +0.000 OA
ATOM     10  H   UNL     1       1.681   6.511  20.213  0.00  0.00    +0.000 HD
BRANCH   7  11
ATOM     11  C   UNL     1       1.719   8.605  20.079  0.00  0.00    +0.000 C 
BRANCH  11  12
ATOM     12  C   UNL     1       0.865   8.647  21.365  0.00  0.00    +0.000 C 
BRANCH  12  14
ATOM     13  C   UNL     1       0.571  11.064  21.183  0.00  0.00    +0.000 C 
ATOM     14  N   UNL     1       0.840   9.942  22.087  0.00  0.00    +0.000 NA
ATOM     15  C   UNL     1      -0.215   9.897  23.114  0.00  0.00    +0.000 C 
ENDBRANCH  12  14
ENDBRANCH  11  12
ENDBRANCH   7  11
ENDBRANCH   1   8
BRANCH   3  16
ATOM     16  N   UNL     1       1.133   2.456  19.151  0.00  0.00    +0.000 N 
ATOM     17  O   UNL     1       1.188   2.199  20.365  0.00  0.00    +0.000 OA
ATOM     18  O   UNL     1       0.272   2.022  18.379  0.00  0.00    +0.000 OA
ENDBRANCH   3  16
BRANCH   6  19
ATOM     19  N   UNL     1       5.289   5.728  16.913  0.00  0.00    +0.000 N 
BRANCH  19  20
ATOM     20  C   UNL     1       6.402   6.406  17.627  0.00  0.00    +0.000 C 
BRANCH  20  21
ATOM     21  C   UNL     1       7.090   5.527  18.679  0.00  0.00    +0.000 C 
BRANCH  21  22
ATOM     22  O   UNL     1       7.681   4.367  18.090  0.00  0.00    +0.000 OA
ATOM     23  H   UNL     1       7.178   3.612  18.443  0.00  0.00    +0.000 HD
ENDBRANCH  21  22
ENDBRANCH  20  21
ENDBRANCH  19  20
BRANCH  19  24
ATOM     24  C   UNL     1       5.415   5.810  15.419  0.00  0.00    +0.000 C 
BRANCH  24  25
ATOM     25  C   UNL     1       6.397   4.785  14.819  0.00  0.00    +0.000 C 
BRANCH  25  26
ATOM     26  O   UNL     1       7.643   5.385  14.480  0.00  0.00    +0.000 OA
ATOM     27  H   UNL     1       7.473   6.345  14.447  0.00  0.00    +0.000 HD
ENDBRANCH  25  26
ENDBRANCH  24  25
ENDBRANCH  19  24
ENDBRANCH   6  19
TORSDOF 12
ENDMDL
MODEL 3
REMARK VINA RESULT:      -6.0      1.325      1.546
REMARK  Name = 
REMARK  14 active torsions:
REMARK  status: ('A' for Active; 'I' for Inactive)
REMARK    1  A    between atoms: C_1  and  N_2
REMARK    2  A    between atoms: N_2  and  C_3
REMARK    3  A    between atoms: N_2  and  C_4
REMARK    4  A    between atoms: C_4  and  C_5
REMARK    5  A    between atoms: C_5  and  N_6
REMARK    6  A    between atoms: C_7  and  C_9
REMARK    7  A    between atoms: C_11  and  N_12
REMARK    8  A    between atoms: C_17  and  N_18
REMARK    9  A    between atoms: N_18  and  C_19
REMARK   10  A    between atoms: N_18  and  C_22
REMARK   11  A    between atoms: C_19  and  C_20
REMARK   12  A    between atoms: C_20  and  O_21
REMARK   13  A    between atoms: C_22  and  C_23
REMARK   14  A    between atoms: C_23  and  O_24
REMARK                            x       y       z     vdW  Elec       q    Type
REMARK                         _______ _______ _______ _____ _____    ______ ____
ROOT
ATOM      1  C   UNL     1       3.506   5.233  17.659  0.00  0.00    +0.000 A 
ATOM      2  C   UNL     1       2.347   4.781  18.355  0.00  0.00    +0.000 A 
ATOM      3  C   UNL     1       2.111   3.432  18.571  0.00  0.00    +0.000 A 
ATOM      4  C   UNL     1       3.002   2.494  18.083  0.00  0.00    +0.000 A 
ATOM      5  C   UNL     1       4.120   2.933  17.364  0.00  0.00    +0.000 A 
ATOM      6  C   UNL     1       4.428   4.298  17.087  0.00  0.00    +0.000 A 
ENDROOT
BRANCH   1   8
ATOM      7  N   UNL     1       2.435   7.403  18.032  0.00  0.00    +0.000 N 
ATOM      8  C   UNL     1       3.565   6.729  17.588  0.00  0.00    +0.000 C 
ATOM      9  O   UNL     1       4.534   7.312  17.118  0.00  0.00    +0.000 OA
ATOM     10  H   UNL     1       1.641   6.908  18.421  0.00  0.00    +0.000 HD
BRANCH   7  11
ATOM     11  C   UNL     1       2.392   8.851  18.161  0.00  0.00    +0.000 C 
BRANCH  11  12
ATOM     12  C   UNL     1       0.982   9.449  17.958  0.00  0.00    +0.000 C 
BRANCH  12  14
ATOM     13  C   UNL     1       0.665   9.659  20.370  0.00  0.00    +0.000 C 
ATOM     14  N   UNL     1       0.470  10.294  19.064  0.00  0.00    +0.000 NA
ATOM     15  C   UNL     1       1.184  11.583  19.052  0.00  0.00    +0.000 C 
ENDBRANCH  12  14
ENDBRANCH  11  12
ENDBRANCH   7  11
ENDBRANCH   1   8
BRANCH   3  16
ATOM     16  N   UNL     1       0.936   2.996  19.331  0.00  0.00    +0.000 N 
ATOM     17  O   UNL     1       0.189   2.158  18.800  0.00  0.00    +0.000 OA
ATOM     18  O   UNL     1       0.753   3.496  20.446  0.00  0.00    +0.000 OA
ENDBRANCH   3  16
BRANCH   6  19
ATOM     19  N   UNL     1       5.573   4.548  16.317  0.00  0.00    +0.000 N 
BRANCH  19  20
ATOM     20  C   UNL     1       6.973   4.519  16.814  0.00  0.00    +0.000 C 
BRANCH  20  21
ATOM     21  C   UNL     1       7.366   5.753  17.635  0.00  0.00    +0.000 C 
BRANCH  21  22
ATOM     22  O   UNL     1       7.458   6.921  16.816  0.00  0.00    +0.000 OA
ATOM     23  H   UNL     1       8.379   7.227  16.904  0.00  0.00    +0.000 HD
ENDBRANCH  21  22
ENDBRANCH  20  21
ENDBRANCH  19  20
BRANCH  19  24
ATOM     24  C   UNL     1       5.479   4.844  14.848  0.00  0.00    +0.000 C 
BRANCH  24  25
ATOM     25  C   UNL     1       6.689   4.346  14.034  0.00  0.00    +0.000 C 
BRANCH  25  26
ATOM     26  O   UNL     1       6.340   3.255  13.187  0.00  0.00    +0.000 OA
ATOM     27  H   UNL     1       5.549   2.851  13.588  0.00  0.00    +0.000 HD
ENDBRANCH  25  26
ENDBRANCH  24  25
ENDBRANCH  19  24
ENDBRANCH   6  19
TORSDOF 12
ENDMDL
MODEL 4
REMARK VINA RESULT:      -6.0      2.640      6.294
REMARK  Name = 
REMARK  14 active torsions:
REMARK  status: ('A' for Active; 'I' for Inactive)
REMARK    1  A    between atoms: C_1  and  N_2
REMARK    2  A    between atoms: N_2  and  C_3
REMARK    3  A    between atoms: N_2  and  C_4
REMARK    4  A    between atoms: C_4  and  C_5
REMARK    5  A    between atoms: C_5  and  N_6
REMARK    6  A    between atoms: C_7  and  C_9
REMARK    7  A    between atoms: C_11  and  N_12
REMARK    8  A    between atoms: C_17  and  N_18
REMARK    9  A    between atoms: N_18  and  C_19
REMARK   10  A    between atoms: N_18  and  C_22
REMARK   11  A    between atoms: C_19  and  C_20
REMARK   12  A    between atoms: C_20  and  O_21
REMARK   13  A    between atoms: C_22  and  C_23
REMARK   14  A    between atoms: C_23  and  O_24
REMARK                            x       y       z     vdW  Elec       q    Type
REMARK                         _______ _______ _______ _____ _____    ______ ____
ROOT
ATOM      1  C   UNL     1       2.780   5.326  18.498  0.00  0.00    +0.000 A 
ATOM      2  C   UNL     1       2.598   6.675  18.073  0.00  0.00    +0.000 A 
ATOM      3  C   UNL     1       2.078   7.640  18.923  0.00  0.00    +0.000 A 
ATOM      4  C   UNL     1       1.703   7.290  20.207  0.00  0.00    +0.000 A 
ATOM      5  C   UNL     1       1.843   5.959  20.615  0.00  0.00    +0.000 A 
ATOM      6  C   UNL     1       2.354   4.906  19.799  0.00  0.00    +0.000 A 
ENDROOT
BRANCH   1   8
ATOM      7  N   UNL     1       4.692   4.810  17.059  0.00  0.00    +0.000 N 
ATOM      8  C   UNL     1       3.393   4.482  17.423  0.00  0.00    +0.000 C 
ATOM      9  O   UNL     1       2.762   3.590  16.868  0.00  0.00    +0.000 OA
ATOM     10  H   UNL     1       5.204   5.548  17.529  0.00  0.00    +0.000 HD
BRANCH   7  11
ATOM     11  C   UNL     1       5.472   3.999  16.138  0.00  0.00    +0.000 C 
BRANCH  11  12
ATOM     12  C   UNL     1       5.439   4.511  14.681  0.00  0.00    +0.000 C 
BRANCH  12  14
ATOM     13  C   UNL     1       5.837   3.450  12.518  0.00  0.00    +0.000 C 
ATOM     14  N   UNL     1       6.447   3.924  13.764  0.00  0.00    +0.000 NA
ATOM     15  C   UNL     1       7.452   4.951  13.439  0.00  0.00    +0.000 C 
ENDBRANCH  12  14
ENDBRANCH  11  12
ENDBRANCH   7  11
ENDBRANCH   1   8
BRANCH   3  16
ATOM     16  N   UNL     1       1.947   9.029  18.476  0.00  0.00    +0.000 N 
ATOM     17  O   UNL     1       1.363   9.821  19.235  0.00  0.00    +0.000 OA
ATOM     18  O   UNL     1       2.411   9.327  17.371  0.00  0.00    +0.000 OA
ENDBRANCH   3  16
BRANCH   6  19
ATOM     19  N   UNL     1       2.386   3.622  20.364  0.00  0.00    +0.000 N 
BRANCH  19  20
ATOM     20  C   UNL     1       3.577   2.972  20.969  0.00  0.00    +0.000 C 
BRANCH  20  21
ATOM     21  C   UNL     1       4.397   2.136  19.980  0.00  0.00    +0.000 C 
BRANCH  21  22
ATOM     22  O   UNL     1       5.440   2.906  19.379  0.00  0.00    +0.000 OA
ATOM     23  H   UNL     1       6.269   2.560  19.756  0.00  0.00    +0.000 HD
ENDBRANCH  21  22
ENDBRANCH  20  21
ENDBRANCH  19  20
BRANCH  19  24
ATOM     24  C   UNL     1       1.151   2.771  20.443  0.00  0.00    +0.000 C 
BRANCH  24  25
ATOM     25  C   UNL     1       0.581   2.370  19.068  0.00  0.00    +0.000 C 
BRANCH  25  26
ATOM     26  O   UNL     1       1.477   1.524  18.354  0.00  0.00    +0.000 OA
ATOM     27  H   UNL     1       1.967   1.025  19.033  0.00  0.00    +0.000 HD
ENDBRANCH  25  26
ENDBRANCH  24  25
ENDBRANCH  19  24
ENDBRANCH   6  19
TORSDOF 12
ENDMDL
MODEL 5
REMARK VINA RESULT:      -6.0      1.030      1.856
REMARK  Name = 
REMARK  14 active torsions:
REMARK  status: ('A' for Active; 'I' for Inactive)
REMARK    1  A    between atoms: C_1  and  N_2
REMARK    2  A    between atoms: N_2  and  C_3
REMARK    3  A    between atoms: N_2  and  C_4
REMARK    4  A    between atoms: C_4  and  C_5
REMARK    5  A    between atoms: C_5  and  N_6
REMARK    6  A    between atoms: C_7  and  C_9
REMARK    7  A    between atoms: C_11  and  N_12
REMARK    8  A    between atoms: C_17  and  N_18
REMARK    9  A    between atoms: N_18  and  C_19
REMARK   10  A    between atoms: N_18  and  C_22
REMARK   11  A    between atoms: C_19  and  C_20
REMARK   12  A    between atoms: C_20  and  O_21
REMARK   13  A    between atoms: C_22  and  C_23
REMARK   14  A    between atoms: C_23  and  O_24
REMARK                            x       y       z     vdW  Elec       q    Type
REMARK                         _______ _______ _______ _____ _____    ______ ____
ROOT
ATOM      1  C   UNL     1       3.602   5.247  18.418  0.00  0.00    +0.000 A 
ATOM      2  C   UNL     1       2.393   4.627  18.847  0.00  0.00    +0.000 A 
ATOM      3  C   UNL     1       2.371   3.317  19.303  0.00  0.00    +0.000 A 
ATOM      4  C   UNL     1       3.541   2.580  19.324  0.00  0.00    +0.000 A 
ATOM      5  C   UNL     1       4.723   3.173  18.865  0.00  0.00    +0.000 A 
ATOM      6  C   UNL     1       4.827   4.506  18.369  0.00  0.00    +0.000 A 
ENDROOT
BRANCH   1   8
ATOM      7  N   UNL     1       2.287   7.305  18.581  0.00  0.00    +0.000 N 
ATOM      8  C   UNL     1       3.383   6.673  18.012  0.00  0.00    +0.000 C 
ATOM      9  O   UNL     1       4.103   7.223  17.187  0.00  0.00    +0.000 OA
ATOM     10  H   UNL     1       1.701   6.839  19.265  0.00  0.00    +0.000 HD
BRANCH   7  11
ATOM     11  C   UNL     1       2.024   8.724  18.400  0.00  0.00    +0.000 C 
BRANCH  11  12
ATOM     12  C   UNL     1       1.210   9.355  19.551  0.00  0.00    +0.000 C 
BRANCH  12  14
ATOM     13  C   UNL     1       1.389  11.630  18.681  0.00  0.00    +0.000 C 
ATOM     14  N   UNL     1       0.489  10.610  19.225  0.00  0.00    +0.000 NA
ATOM     15  C   UNL     1      -0.554  10.316  18.226  0.00  0.00    +0.000 C 
ENDBRANCH  12  14
ENDBRANCH  11  12
ENDBRANCH   7  11
ENDBRANCH   1   8
BRANCH   3  16
ATOM     16  N   UNL     1       1.123   2.719  19.784  0.00  0.00    +0.000 N 
ATOM     17  O   UNL     1       0.336   2.275  18.932  0.00  0.00    +0.000 OA
ATOM     18  O   UNL     1       0.922   2.703  21.002  0.00  0.00    +0.000 OA
ENDBRANCH   3  16
BRANCH   6  19
ATOM     19  N   UNL     1       6.088   4.919  17.916  0.00  0.00    +0.000 N 
BRANCH  19  20
ATOM     20  C   UNL     1       6.717   4.525  16.628  0.00  0.00    +0.000 C 
BRANCH  20  21
ATOM     21  C   UNL     1       5.807   4.716  15.409  0.00  0.00    +0.000 C 
BRANCH  21  22
ATOM     22  O   UNL     1       5.649   6.099  15.083  0.00  0.00    +0.000 OA
ATOM     23  H   UNL     1       4.852   6.144  14.525  0.00  0.00    +0.000 HD
ENDBRANCH  21  22
ENDBRANCH  20  21
ENDBRANCH  19  20
BRANCH  19  24
ATOM     24  C   UNL     1       6.933   5.871  18.712  0.00  0.00    +0.000 C 
BRANCH  24  25
ATOM     25  C   UNL     1       7.741   6.860  17.849  0.00  0.00    +0.000 C 
BRANCH  25  26
ATOM     26  O   UNL     1       6.895   7.800  17.195  0.00  0.00    +0.000 OA
ATOM     27  H   UNL     1       7.205   7.835  16.270  0.00  0.00    +0.000 HD
ENDBRANCH  25  26
ENDBRANCH  24  25
ENDBRANCH  19  24
ENDBRANCH   6  19
TORSDOF 12
ENDMDL
MODEL 6
REMARK VINA RESULT:      -6.0      3.145      6.198
REMARK  Name = 
REMARK  14 active torsions:
REMARK  status: ('A' for Active; 'I' for Inactive)
REMARK    1  A    between atoms: C_1  and  N_2
REMARK    2  A    between atoms: N_2  and  C_3
REMARK    3  A    between atoms: N_2  and  C_4
REMARK    4  A    between atoms: C_4  and  C_5
REMARK    5  A    between atoms: C_5  and  N_6
REMARK    6  A    between atoms: C_7  and  C_9
REMARK    7  A    between atoms: C_11  and  N_12
REMARK    8  A    between atoms: C_17  and  N_18
REMARK    9  A    between atoms: N_18  and  C_19
REMARK   10  A    between atoms: N_18  and  C_22
REMARK   11  A    between atoms: C_19  and  C_20
REMARK   12  A    between atoms: C_20  and  O_21
REMARK   13  A    between atoms: C_22  and  C_23
REMARK   14  A    between atoms: C_23  and  O_24
REMARK                            x       y       z     vdW  Elec       q    Type
REMARK                         _______ _______ _______ _____ _____    ______ ____
ROOT
ATOM      1  C   UNL     1       5.148   4.028  16.179  0.00  0.00    +0.000 A 
ATOM      2  C   UNL     1       5.239   3.631  14.812  0.00  0.00    +0.000 A 
ATOM      3  C   UNL     1       6.238   4.116  13.981  0.00  0.00    +0.000 A 
ATOM      4  C   UNL     1       7.158   5.023  14.475  0.00  0.00    +0.000 A 
ATOM      5  C   UNL     1       7.048   5.445  15.804  0.00  0.00    +0.000 A 
ATOM      6  C   UNL     1       6.044   5.006  16.718  0.00  0.00    +0.000 A 
ENDROOT
BRANCH   1   8
ATOM      7  N   UNL     1       4.370   2.299  17.728  0.00  0.00    +0.000 N 
ATOM      8  C   UNL     1       4.017   3.341  16.883  0.00  0.00    +0.000 C 
ATOM      9  O   UNL     1       2.850   3.655  16.680  0.00  0.00    +0.000 OA
ATOM     10  H   UNL     1       5.340   2.052  17.890  0.00  0.00    +0.000 HD
BRANCH   7  11
ATOM     11  C   UNL     1       3.406   1.632  18.589  0.00  0.00    +0.000 C 
BRANCH  11  12
ATOM     12  C   UNL     1       3.169   2.357  19.932  0.00  0.00    +0.000 C 
BRANCH  12  14
ATOM     13  C   UNL     1       0.866   2.527  19.137  0.00  0.00    +0.000 C 
ATOM     14  N   UNL     1       1.864   3.049  20.075  0.00  0.00    +0.000 NA
ATOM     15  C   UNL     1       1.370   2.858  21.449  0.00  0.00    +0.000 C 
ENDBRANCH  12  14
ENDBRANCH  11  12
ENDBRANCH   7  11
ENDBRANCH   1   8
BRANCH   3  16
ATOM     16  N   UNL     1       6.338   3.656  12.594  0.00  0.00    +0.000 N 
ATOM     17  O   UNL     1       5.513   2.810  12.211  0.00  0.00    +0.000 OA
ATOM     18  O   UNL     1       7.240   4.126  11.894  0.00  0.00    +0.000 OA
ENDBRANCH   3  16
BRANCH   6  19
ATOM     19  N   UNL     1       6.065   5.567  18.004  0.00  0.00    +0.000 N 
BRANCH  19  20
ATOM     20  C   UNL     1       7.199   6.320  18.600  0.00  0.00    +0.000 C 
BRANCH  20  21
ATOM     21  C   UNL     1       8.229   5.432  19.309  0.00  0.00    +0.000 C 
BRANCH  21  22
ATOM     22  O   UNL     1       8.051   5.449  20.726  0.00  0.00    +0.000 OA
ATOM     23  H   UNL     1       7.261   5.998  20.882  0.00  0.00    +0.000 HD
ENDBRANCH  21  22
ENDBRANCH  20  21
ENDBRANCH  19  20
BRANCH  19  24
ATOM     24  C   UNL     1       4.874   5.482  18.914  0.00  0.00    +0.000 C 
BRANCH  24  25
ATOM     25  C   UNL     1       3.729   6.440  18.533  0.00  0.00    +0.000 C 
BRANCH  25  26
ATOM     26  O   UNL     1       2.453   5.836  18.723  0.00  0.00    +0.000 OA
ATOM     27  H   UNL     1       2.514   4.953  18.314  0.00  0.00    +0.000 HD
ENDBRANCH  25  26
ENDBRANCH  24  25
ENDBRANCH  19  24
ENDBRANCH   6  19
TORSDOF 12
ENDMDL
MODEL 7
REMARK VINA RESULT:      -5.9      1.109      1.284
REMARK  Name = 
REMARK  14 active torsions:
REMARK  status: ('A' for Active; 'I' for Inactive)
REMARK    1  A    between atoms: C_1  and  N_2
REMARK    2  A    between atoms: N_2  and  C_3
REMARK    3  A    between atoms: N_2  and  C_4
REMARK    4  A    between atoms: C_4  and  C_5
REMARK    5  A    between atoms: C_5  and  N_6
REMARK    6  A    between atoms: C_7  and  C_9
REMARK    7  A    between atoms: C_11  and  N_12
REMARK    8  A    between atoms: C_17  and  N_18
REMARK    9  A    between atoms: N_18  and  C_19
REMARK   10  A    between atoms: N_18  and  C_22
REMARK   11  A    between atoms: C_19  and  C_20
REMARK   12  A    between atoms: C_20  and  O_21
REMARK   13  A    between atoms: C_22  and  C_23
REMARK   14  A    between atoms: C_23  and  O_24
REMARK                            x       y       z     vdW  Elec       q    Type
REMARK                         _______ _______ _______ _____ _____    ______ ____
ROOT
ATOM      1  C   UNL     1       3.664   5.282  18.374  0.00  0.00    +0.000 A 
ATOM      2  C   UNL     1       2.421   4.694  18.749  0.00  0.00    +0.000 A 
ATOM      3  C   UNL     1       2.355   3.414  19.280  0.00  0.00    +0.000 A 
ATOM      4  C   UNL     1       3.514   2.676  19.433  0.00  0.00    +0.000 A 
ATOM      5  C   UNL     1       4.732   3.235  19.028  0.00  0.00    +0.000 A 
ATOM      6  C   UNL     1       4.883   4.535  18.461  0.00  0.00    +0.000 A 
ENDROOT
BRANCH   1   8
ATOM      7  N   UNL     1       2.353   7.349  18.309  0.00  0.00    +0.000 N 
ATOM      8  C   UNL     1       3.487   6.681  17.867  0.00  0.00    +0.000 C 
ATOM      9  O   UNL     1       4.273   7.180  17.071  0.00  0.00    +0.000 OA
ATOM     10  H   UNL     1       1.712   6.926  18.971  0.00  0.00    +0.000 HD
BRANCH   7  11
ATOM     11  C   UNL     1       2.115   8.755  18.023  0.00  0.00    +0.000 C 
BRANCH  11  12
ATOM     12  C   UNL     1       1.232   9.460  19.076  0.00  0.00    +0.000 C 
BRANCH  12  14
ATOM     13  C   UNL     1      -0.862  10.188  18.052  0.00  0.00    +0.000 C 
ATOM     14  N   UNL     1       0.434  10.612  18.588  0.00  0.00    +0.000 NA
ATOM     15  C   UNL     1       0.203  11.542  19.708  0.00  0.00    +0.000 C 
ENDBRANCH  12  14
ENDBRANCH  11  12
ENDBRANCH   7  11
ENDBRANCH   1   8
BRANCH   3  16
ATOM     16  N   UNL     1       1.070   2.851  19.703  0.00  0.00    +0.000 N 
ATOM     17  O   UNL     1       0.321   2.407  18.817  0.00  0.00    +0.000 OA
ATOM     18  O   UNL     1       0.803   2.863  20.909  0.00  0.00    +0.000 OA
ENDBRANCH   3  16
BRANCH   6  19
ATOM     19  N   UNL     1       6.177   4.915  18.078  0.00  0.00    +0.000 N 
BRANCH  19  20
ATOM     20  C   UNL     1       7.086   5.798  18.856  0.00  0.00    +0.000 C 
BRANCH  20  21
ATOM     21  C   UNL     1       7.699   6.937  18.032  0.00  0.00    +0.000 C 
BRANCH  21  22
ATOM     22  O   UNL     1       8.567   7.750  18.824  0.00  0.00    +0.000 OA
ATOM     23  H   UNL     1       8.282   7.613  19.745  0.00  0.00    +0.000 HD
ENDBRANCH  21  22
ENDBRANCH  20  21
ENDBRANCH  19  20
BRANCH  19  24
ATOM     24  C   UNL     1       6.800   4.407  16.809  0.00  0.00    +0.000 C 
BRANCH  24  25
ATOM     25  C   UNL     1       5.901   4.565  15.567  0.00  0.00    +0.000 C 
BRANCH  25  26
ATOM     26  O   UNL     1       5.817   5.923  15.148  0.00  0.00    +0.000 OA
ATOM     27  H   UNL     1       6.725   6.182  14.904  0.00  0.00    +0.000 HD
ENDBRANCH  25  26
ENDBRANCH  24  25
ENDBRANCH  19  24
ENDBRANCH   6  19
TORSDOF 12
ENDMDL
MODEL 8
REMARK VINA RESULT:      -5.9      1.446      1.542
REMARK  Name = 
REMARK  14 active torsions:
REMARK  status: ('A' for Active; 'I' for Inactive)
REMARK    1  A    between atoms: C_1  and  N_2
REMARK    2  A    between atoms: N_2  and  C_3
REMARK    3  A    between atoms: N_2  and  C_4
REMARK    4  A    between atoms: C_4  and  C_5
REMARK    5  A    between atoms: C_5  and  N_6
REMARK    6  A    between atoms: C_7  and  C_9
REMARK    7  A    between atoms: C_11  and  N_12
REMARK    8  A    between atoms: C_17  and  N_18
REMARK    9  A    between atoms: N_18  and  C_19
REMARK   10  A    between atoms: N_18  and  C_22
REMARK   11  A    between atoms: C_19  and  C_20
REMARK   12  A    between atoms: C_20  and  O_21
REMARK   13  A    between atoms: C_22  and  C_23
REMARK   14  A    between atoms: C_23  and  O_24
REMARK                            x       y       z     vdW  Elec       q    Type
REMARK                         _______ _______ _______ _____ _____    ______ ____
ROOT
ATOM      1  C   UNL     1       3.464   5.336  17.829  0.00  0.00    +0.000 A 
ATOM      2  C   UNL     1       2.261   4.780  18.354  0.00  0.00    +0.000 A 
ATOM      3  C   UNL     1       2.093   3.410  18.487  0.00  0.00    +0.000 A 
ATOM      4  C   UNL     1       3.101   2.554  18.083  0.00  0.00    +0.000 A 
ATOM      5  C   UNL     1       4.268   3.095  17.529  0.00  0.00    +0.000 A 
ATOM      6  C   UNL     1       4.513   4.488  17.345  0.00  0.00    +0.000 A 
ENDROOT
BRANCH   1   8
ATOM      7  N   UNL     1       2.202   7.414  18.116  0.00  0.00    +0.000 N 
ATOM      8  C   UNL     1       3.428   6.834  17.822  0.00  0.00    +0.000 C 
ATOM      9  O   UNL     1       4.413   7.499  17.523  0.00  0.00    +0.000 OA
ATOM     10  H   UNL     1       1.395   6.852  18.365  0.00  0.00    +0.000 HD
BRANCH   7  11
ATOM     11  C   UNL     1       2.039   8.849  18.290  0.00  0.00    +0.000 C 
BRANCH  11  12
ATOM     12  C   UNL     1       1.156   9.230  19.498  0.00  0.00    +0.000 C 
BRANCH  12  14
ATOM     13  C   UNL     1       1.459  11.507  18.669  0.00  0.00    +0.000 C 
ATOM     14  N   UNL     1       0.657  10.627  19.523  0.00  0.00    +0.000 NA
ATOM     15  C   UNL     1      -0.737  10.645  19.046  0.00  0.00    +0.000 C 
ENDBRANCH  12  14
ENDBRANCH  11  12
ENDBRANCH   7  11
ENDBRANCH   1   8
BRANCH   3  16
ATOM     16  N   UNL     1       0.866   2.866  19.074  0.00  0.00    +0.000 N 
ATOM     17  O   UNL     1       0.225   2.043  18.401  0.00  0.00    +0.000 OA
ATOM     18  O   UNL     1       0.536   3.266  20.196  0.00  0.00    +0.000 OA
ENDBRANCH   3  16
BRANCH   6  19
ATOM     19  N   UNL     1       5.725   4.846  16.738  0.00  0.00    +0.000 N 
BRANCH  19  20
ATOM     20  C   UNL     1       7.066   4.770  17.373  0.00  0.00    +0.000 C 
BRANCH  20  21
ATOM     21  C   UNL     1       7.288   5.809  18.480  0.00  0.00    +0.000 C 
BRANCH  21  22
ATOM     22  O   UNL     1       6.933   5.292  19.764  0.00  0.00    +0.000 OA
ATOM     23  H   UNL     1       6.534   6.041  20.243  0.00  0.00    +0.000 HD
ENDBRANCH  21  22
ENDBRANCH  20  21
ENDBRANCH  19  20
BRANCH  19  24
ATOM     24  C   UNL     1       5.777   5.322  15.315  0.00  0.00    +0.000 C 
BRANCH  24  25
ATOM     25  C   UNL     1       6.862   4.632  14.466  0.00  0.00    +0.000 C 
BRANCH  25  26
ATOM     26  O   UNL     1       7.852   5.555  14.025  0.00  0.00    +0.000 OA
ATOM     27  H   UNL     1       7.419   6.101  13.342  0.00  0.00    +0.000 HD
ENDBRANCH  25  26
ENDBRANCH  24  25
ENDBRANCH  19  24
ENDBRANCH   6  19
TORSDOF 12
ENDMDL
MODEL 9
REMARK VINA RESULT:      -5.9      1.252      2.118
REMARK  Name = 
REMARK  14 active torsions:
REMARK  status: ('A' for Active; 'I' for Inactive)
REMARK    1  A    between atoms: C_1  and  N_2
REMARK    2  A    between atoms: N_2  and  C_3
REMARK    3  A    between atoms: N_2  and  C_4
REMARK    4  A    between atoms: C_4  and  C_5
REMARK    5  A    between atoms: C_5  and  N_6
REMARK    6  A    between atoms: C_7  and  C_9
REMARK    7  A    between atoms: C_11  and  N_12
REMARK    8  A    between atoms: C_17  and  N_18
REMARK    9  A    between atoms: N_18  and  C_19
REMARK   10  A    between atoms: N_18  and  C_22
REMARK   11  A    between atoms: C_19  and  C_20
REMARK   12  A    between atoms: C_20  and  O_21
REMARK   13  A    between atoms: C_22  and  C_23
REMARK   14  A    between atoms: C_23  and  O_24
REMARK                            x       y       z     vdW  Elec       q    Type
REMARK                         _______ _______ _______ _____ _____    ______ ____
ROOT
ATOM      1  C   UNL     1       3.403   5.267  17.812  0.00  0.00    +0.000 A 
ATOM      2  C   UNL     1       2.258   4.730  18.469  0.00  0.00    +0.000 A 
ATOM      3  C   UNL     1       2.127   3.369  18.702  0.00  0.00    +0.000 A 
ATOM      4  C   UNL     1       3.115   2.503  18.272  0.00  0.00    +0.000 A 
ATOM      5  C   UNL     1       4.222   3.022  17.591  0.00  0.00    +0.000 A 
ATOM      6  C   UNL     1       4.425   4.404  17.299  0.00  0.00    +0.000 A 
ENDROOT
BRANCH   1   8
ATOM      7  N   UNL     1       2.221   7.359  18.279  0.00  0.00    +0.000 N 
ATOM      8  C   UNL     1       3.338   6.761  17.713  0.00  0.00    +0.000 C 
ATOM      9  O   UNL     1       4.198   7.403  17.121  0.00  0.00    +0.000 OA
ATOM     10  H   UNL     1       1.519   6.817  18.769  0.00  0.00    +0.000 HD
BRANCH   7  11
ATOM     11  C   UNL     1       2.083   8.803  18.391  0.00  0.00    +0.000 C 
BRANCH  11  12
ATOM     12  C   UNL     1       1.161   9.249  19.547  0.00  0.00    +0.000 C 
BRANCH  12  14
ATOM     13  C   UNL     1      -0.755  10.274  18.433  0.00  0.00    +0.000 C 
ATOM     14  N   UNL     1       0.390  10.496  19.320  0.00  0.00    +0.000 NA
ATOM     15  C   UNL     1      -0.103  10.996  20.615  0.00  0.00    +0.000 C 
ENDBRANCH  12  14
ENDBRANCH  11  12
ENDBRANCH   7  11
ENDBRANCH   1   8
BRANCH   3  16
ATOM     16  N   UNL     1       0.962   2.848  19.422  0.00  0.00    +0.000 N 
ATOM     17  O   UNL     1       0.892   3.078  20.640  0.00  0.00    +0.000 OA
ATOM     18  O   UNL     1       0.128   2.202  18.779  0.00  0.00    +0.000 OA
ENDBRANCH   3  16
BRANCH   6  19
ATOM     19  N   UNL     1       5.577   4.738  16.573  0.00  0.00    +0.000 N 
BRANCH  19  20
ATOM     20  C   UNL     1       5.617   5.097  15.131  0.00  0.00    +0.000 C 
BRANCH  20  21
ATOM     21  C   UNL     1       6.827   4.524  14.383  0.00  0.00    +0.000 C 
BRANCH  21  22
ATOM     22  O   UNL     1       7.802   5.533  14.110  0.00  0.00    +0.000 OA
ATOM     23  H   UNL     1       7.376   6.376  14.349  0.00  0.00    +0.000 HD
ENDBRANCH  21  22
ENDBRANCH  20  21
ENDBRANCH  19  20
BRANCH  19  24
ATOM     24  C   UNL     1       6.925   4.803  17.231  0.00  0.00    +0.000 C 
BRANCH  24  25
ATOM     25  C   UNL     1       7.295   6.203  17.758  0.00  0.00    +0.000 C 
BRANCH  25  26
ATOM     26  O   UNL     1       7.765   7.051  16.716  0.00  0.00    +0.000 OA
ATOM     27  H   UNL     1       7.251   7.876  16.794  0.00  0.00    +0.000 HD
ENDBRANCH  25  26
ENDBRANCH  24  25
ENDBRANCH  19  24
ENDBRANCH   6  19
TORSDOF 12
ENDMDL
