MODEL 1
REMARK VINA RESULT:      -7.6      0.000      0.000
REMARK  Name = 
REMARK  6 active torsions:
REMARK  status: ('A' for Active; 'I' for Inactive)
REMARK    1  A    between atoms: C_1  and  C_2
REMARK    2  A    between atoms: N_4  and  C_5
REMARK    3  A    between atoms: C_8  and  C_9
REMARK    4  A    between atoms: C_9  and  C_11
REMARK    5  A    between atoms: C_13  and  O_14
REMARK    6  A    between atoms: C_16  and  C_17
REMARK                            x       y       z     vdW  Elec       q    Type
REMARK                         _______ _______ _______ _____ _____    ______ ____
ROOT
ATOM      1  C   UNL     1       2.189   7.312  19.533  0.00  0.00    +0.000 A 
ATOM      2  C   UNL     1       2.788   7.580  18.291  0.00  0.00    +0.000 A 
ATOM      3  C   UNL     1       3.531   6.591  17.634  0.00  0.00    +0.000 A 
ATOM      4  C   UNL     1       3.682   5.326  18.207  0.00  0.00    +0.000 A 
ATOM      5  C   UNL     1       3.111   5.069  19.458  0.00  0.00    +0.000 A 
ATOM      6  C   UNL     1       2.351   6.044  20.107  0.00  0.00    +0.000 A 
ENDROOT
BRANCH   1  10
ATOM      7  C   UNL     1      -0.314   9.982  22.955  0.00  0.00    +0.000 C 
ATOM      8  C   UNL     1       0.338   9.480  21.729  0.00  0.00    +0.000 A 
ATOM      9  C   UNL     1       1.025   8.302  21.528  0.00  0.00    +0.000 A 
ATOM     10  N   UNL     1       1.442   8.314  20.215  0.00  0.00    +0.000 N 
ATOM     11  C   UNL     1       0.973   9.503  19.696  0.00  0.00    +0.000 A 
ATOM     12  N   UNL     1       0.311  10.218  20.577  0.00  0.00    +0.000 NA
ENDBRANCH   1  10
BRANCH   4  13
ATOM     13  C   UNL     1       4.510   4.301  17.516  0.00  0.00    +0.000 C 
ATOM     14  O   UNL     1       4.141   3.132  17.554  0.00  0.00    +0.000 OA
BRANCH  13  15
ATOM     15  C   UNL     1       5.654   4.708  16.737  0.00  0.00    +0.000 A 
ATOM     16  N   UNL     1       5.746   4.460  15.384  0.00  0.00    +0.000 N 
ATOM     17  C   UNL     1       6.878   5.063  14.926  0.00  0.00    +0.000 A 
ATOM     18  N   UNL     1       7.572   5.587  15.901  0.00  0.00    +0.000 NA
ATOM     19  C   UNL     1       6.850   5.343  17.048  0.00  0.00    +0.000 A 
ATOM     20  C   UNL     1       7.418   5.741  18.361  0.00  0.00    +0.000 C 
ATOM     21  H   UNL     1       5.054   3.963  14.844  0.00  0.00    +0.000 HD
BRANCH  17  22
ATOM     22  O   UNL     1       7.243   5.122  13.659  0.00  0.00    +0.000 OA
ATOM     23  H   UNL     1       7.891   4.424  13.484  0.00  0.00    +0.000 HD
ENDBRANCH  17  22
ENDBRANCH  13  15
ENDBRANCH   4  13
TORSDOF 4
ENDMDL
MODEL 2
REMARK VINA RESULT:      -7.6      1.606      1.955
REMARK  Name = 
REMARK  6 active torsions:
REMARK  status: ('A' for Active; 'I' for Inactive)
REMARK    1  A    between atoms: C_1  and  C_2
REMARK    2  A    between atoms: N_4  and  C_5
REMARK    3  A    between atoms: C_8  and  C_9
REMARK    4  A    between atoms: C_9  and  C_11
REMARK    5  A    between atoms: C_13  and  O_14
REMARK    6  A    between atoms: C_16  and  C_17
REMARK                            x       y       z     vdW  Elec       q    Type
REMARK                         _______ _______ _______ _____ _____    ______ ____
ROOT
ATOM      1  C   UNL     1       1.827   7.747  20.020  0.00  0.00    +0.000 A 
ATOM      2  C   UNL     1       2.286   7.990  18.715  0.00  0.00    +0.000 A 
ATOM      3  C   UNL     1       2.901   6.970  17.979  0.00  0.00    +0.000 A 
ATOM      4  C   UNL     1       3.062   5.698  18.535  0.00  0.00    +0.000 A 
ATOM      5  C   UNL     1       2.633   5.466  19.846  0.00  0.00    +0.000 A 
ATOM      6  C   UNL     1       1.998   6.473  20.576  0.00  0.00    +0.000 A 
ENDROOT
BRANCH   1  10
ATOM      7  C   UNL     1      -0.708  11.814  21.484  0.00  0.00    +0.000 C 
ATOM      8  C   UNL     1       0.094  10.576  21.415  0.00  0.00    +0.000 A 
ATOM      9  C   UNL     1       0.486   9.852  20.309  0.00  0.00    +0.000 A 
ATOM     10  N   UNL     1       1.211   8.781  20.781  0.00  0.00    +0.000 N 
ATOM     11  C   UNL     1       1.220   8.926  22.154  0.00  0.00    +0.000 A 
ATOM     12  N   UNL     1       0.562   9.988  22.558  0.00  0.00    +0.000 NA
ENDBRANCH   1  10
BRANCH   4  13
ATOM     13  C   UNL     1       3.756   4.638  17.755  0.00  0.00    +0.000 C 
ATOM     14  O   UNL     1       3.096   3.687  17.350  0.00  0.00    +0.000 OA
BRANCH  13  15
ATOM     15  C   UNL     1       5.146   4.799  17.405  0.00  0.00    +0.000 A 
ATOM     16  N   UNL     1       6.159   4.226  18.143  0.00  0.00    +0.000 N 
ATOM     17  C   UNL     1       7.333   4.466  17.495  0.00  0.00    +0.000 A 
ATOM     18  N   UNL     1       7.160   5.239  16.456  0.00  0.00    +0.000 NA
ATOM     19  C   UNL     1       5.808   5.496  16.402  0.00  0.00    +0.000 A 
ATOM     20  C   UNL     1       5.288   6.429  15.371  0.00  0.00    +0.000 C 
ATOM     21  H   UNL     1       6.022   3.682  18.982  0.00  0.00    +0.000 HD
BRANCH  17  22
ATOM     22  O   UNL     1       8.508   3.984  17.856  0.00  0.00    +0.000 OA
ATOM     23  H   UNL     1       8.372   3.248  18.470  0.00  0.00    +0.000 HD
ENDBRANCH  17  22
ENDBRANCH  13  15
ENDBRANCH   4  13
TORSDOF 4
ENDMDL
MODEL 3
REMARK VINA RESULT:      -7.6      0.205      1.073
REMARK  Name = 
REMARK  6 active torsions:
REMARK  status: ('A' for Active; 'I' for Inactive)
REMARK    1  A    between atoms: C_1  and  C_2
REMARK    2  A    between atoms: N_4  and  C_5
REMARK    3  A    between atoms: C_8  and  C_9
REMARK    4  A    between atoms: C_9  and  C_11
REMARK    5  A    between atoms: C_13  and  O_14
REMARK    6  A    between atoms: C_16  and  C_17
REMARK                            x       y       z     vdW  Elec       q    Type
REMARK                         _______ _______ _______ _____ _____    ______ ____
ROOT
ATOM      1  C   UNL     1       2.271   7.312  19.441  0.00  0.00    +0.000 A 
ATOM      2  C   UNL     1       2.362   6.011  19.965  0.00  0.00    +0.000 A 
ATOM      3  C   UNL     1       3.097   5.026  19.293  0.00  0.00    +0.000 A 
ATOM      4  C   UNL     1       3.750   5.329  18.095  0.00  0.00    +0.000 A 
ATOM      5  C   UNL     1       3.633   6.615  17.559  0.00  0.00    +0.000 A 
ATOM      6  C   UNL     1       2.921   7.607  18.236  0.00  0.00    +0.000 A 
ENDROOT
BRANCH   1  10
ATOM      7  C   UNL     1      -0.237  10.015  22.833  0.00  0.00    +0.000 C 
ATOM      8  C   UNL     1       0.411   9.498  21.612  0.00  0.00    +0.000 A 
ATOM      9  C   UNL     1       1.111   8.325  21.427  0.00  0.00    +0.000 A 
ATOM     10  N   UNL     1       1.517   8.317  20.110  0.00  0.00    +0.000 N 
ATOM     11  C   UNL     1       1.029   9.491  19.573  0.00  0.00    +0.000 A 
ATOM     12  N   UNL     1       0.366  10.214  20.447  0.00  0.00    +0.000 NA
ENDBRANCH   1  10
BRANCH   4  13
ATOM     13  C   UNL     1       4.491   4.260  17.372  0.00  0.00    +0.000 C 
ATOM     14  O   UNL     1       4.054   3.115  17.420  0.00  0.00    +0.000 OA
BRANCH  13  15
ATOM     15  C   UNL     1       5.628   4.603  16.554  0.00  0.00    +0.000 A 
ATOM     16  N   UNL     1       5.683   4.298  15.210  0.00  0.00    +0.000 N 
ATOM     17  C   UNL     1       6.822   4.849  14.705  0.00  0.00    +0.000 A 
ATOM     18  N   UNL     1       7.552   5.391  15.643  0.00  0.00    +0.000 NA
ATOM     19  C   UNL     1       6.848   5.214  16.813  0.00  0.00    +0.000 A 
ATOM     20  C   UNL     1       7.456   5.647  18.097  0.00  0.00    +0.000 C 
ATOM     21  H   UNL     1       4.965   3.800  14.705  0.00  0.00    +0.000 HD
BRANCH  17  22
ATOM     22  O   UNL     1       7.160   4.846  13.429  0.00  0.00    +0.000 OA
ATOM     23  H   UNL     1       7.536   5.708  13.200  0.00  0.00    +0.000 HD
ENDBRANCH  17  22
ENDBRANCH  13  15
ENDBRANCH   4  13
TORSDOF 4
ENDMDL
MODEL 4
REMARK VINA RESULT:      -7.6      1.582      2.215
REMARK  Name = 
REMARK  6 active torsions:
REMARK  status: ('A' for Active; 'I' for Inactive)
REMARK    1  A    between atoms: C_1  and  C_2
REMARK    2  A    between atoms: N_4  and  C_5
REMARK    3  A    between atoms: C_8  and  C_9
REMARK    4  A    between atoms: C_9  and  C_11
REMARK    5  A    between atoms: C_13  and  O_14
REMARK    6  A    between atoms: C_16  and  C_17
REMARK                            x       y       z     vdW  Elec       q    Type
REMARK                         _______ _______ _______ _____ _____    ______ ____
ROOT
ATOM      1  C   UNL     1       1.847   7.662  20.017  0.00  0.00    +0.000 A 
ATOM      2  C   UNL     1       1.936   6.353  20.519  0.00  0.00    +0.000 A 
ATOM      3  C   UNL     1       2.595   5.357  19.786  0.00  0.00    +0.000 A 
ATOM      4  C   UNL     1       3.172   5.657  18.549  0.00  0.00    +0.000 A 
ATOM      5  C   UNL     1       3.055   6.953  18.037  0.00  0.00    +0.000 A 
ATOM      6  C   UNL     1       2.420   7.954  18.773  0.00  0.00    +0.000 A 
ENDROOT
BRANCH   1  10
ATOM      7  C   UNL     1      -1.049  11.516  21.384  0.00  0.00    +0.000 C 
ATOM      8  C   UNL     1      -0.107  10.380  21.339  0.00  0.00    +0.000 A 
ATOM      9  C   UNL     1       0.282   9.612  20.262  0.00  0.00    +0.000 A 
ATOM     10  N   UNL     1       1.170   8.678  20.748  0.00  0.00    +0.000 N 
ATOM     11  C   UNL     1       1.270   8.943  22.099  0.00  0.00    +0.000 A 
ATOM     12  N   UNL     1       0.519   9.953  22.477  0.00  0.00    +0.000 NA
ENDBRANCH   1  10
BRANCH   4  13
ATOM     13  C   UNL     1       3.830   4.577  17.765  0.00  0.00    +0.000 C 
ATOM     14  O   UNL     1       3.145   3.633  17.384  0.00  0.00    +0.000 OA
BRANCH  13  15
ATOM     15  C   UNL     1       5.214   4.711  17.381  0.00  0.00    +0.000 A 
ATOM     16  N   UNL     1       6.243   4.263  18.182  0.00  0.00    +0.000 N 
ATOM     17  C   UNL     1       7.408   4.430  17.495  0.00  0.00    +0.000 A 
ATOM     18  N   UNL     1       7.213   5.048  16.361  0.00  0.00    +0.000 NA
ATOM     19  C   UNL     1       5.856   5.272  16.285  0.00  0.00    +0.000 A 
ATOM     20  C   UNL     1       5.311   6.044  15.139  0.00  0.00    +0.000 C 
ATOM     21  H   UNL     1       6.122   3.840  19.090  0.00  0.00    +0.000 HD
BRANCH  17  22
ATOM     22  O   UNL     1       8.593   4.023  17.908  0.00  0.00    +0.000 OA
ATOM     23  H   UNL     1       8.845   4.528  18.695  0.00  0.00    +0.000 HD
ENDBRANCH  17  22
ENDBRANCH  13  15
ENDBRANCH   4  13
TORSDOF 4
ENDMDL
MODEL 5
REMARK VINA RESULT:      -7.5      1.218      1.287
REMARK  Name = 
REMARK  6 active torsions:
REMARK  status: ('A' for Active; 'I' for Inactive)
REMARK    1  A    between atoms: C_1  and  C_2
REMARK    2  A    between atoms: N_4  and  C_5
REMARK    3  A    between atoms: C_8  and  C_9
REMARK    4  A    between atoms: C_9  and  C_11
REMARK    5  A    between atoms: C_13  and  O_14
REMARK    6  A    between atoms: C_16  and  C_17
REMARK                            x       y       z     vdW  Elec       q    Type
REMARK                         _______ _______ _______ _____ _____    ______ ____
ROOT
ATOM      1  C   UNL     1       2.143   7.837  19.082  0.00  0.00    +0.000 A 
ATOM      2  C   UNL     1       2.960   7.699  17.948  0.00  0.00    +0.000 A 
ATOM      3  C   UNL     1       3.746   6.553  17.775  0.00  0.00    +0.000 A 
ATOM      4  C   UNL     1       3.723   5.533  18.730  0.00  0.00    +0.000 A 
ATOM      5  C   UNL     1       2.934   5.684  19.874  0.00  0.00    +0.000 A 
ATOM      6  C   UNL     1       2.131   6.814  20.040  0.00  0.00    +0.000 A 
ENDROOT
BRANCH   1  10
ATOM      7  C   UNL     1      -0.702  11.482  21.011  0.00  0.00    +0.000 C 
ATOM      8  C   UNL     1       0.094  10.602  20.132  0.00  0.00    +0.000 A 
ATOM      9  C   UNL     1       0.754   9.432  20.439  0.00  0.00    +0.000 A 
ATOM     10  N   UNL     1       1.349   9.003  19.273  0.00  0.00    +0.000 N 
ATOM     11  C   UNL     1       1.005   9.943  18.323  0.00  0.00    +0.000 A 
ATOM     12  N   UNL     1       0.257  10.907  18.809  0.00  0.00    +0.000 NA
ENDBRANCH   1  10
BRANCH   4  13
ATOM     13  C   UNL     1       4.597   4.341  18.552  0.00  0.00    +0.000 C 
ATOM     14  O   UNL     1       4.387   3.356  19.251  0.00  0.00    +0.000 OA
BRANCH  13  15
ATOM     15  C   UNL     1       5.588   4.329  17.504  0.00  0.00    +0.000 A 
ATOM     16  N   UNL     1       5.381   3.676  16.307  0.00  0.00    +0.000 N 
ATOM     17  C   UNL     1       6.444   3.946  15.498  0.00  0.00    +0.000 A 
ATOM     18  N   UNL     1       7.363   4.632  16.122  0.00  0.00    +0.000 NA
ATOM     19  C   UNL     1       6.872   4.848  17.390  0.00  0.00    +0.000 A 
ATOM     20  C   UNL     1       7.726   5.535  18.392  0.00  0.00    +0.000 C 
ATOM     21  H   UNL     1       4.554   3.146  16.078  0.00  0.00    +0.000 HD
BRANCH  17  22
ATOM     22  O   UNL     1       6.546   3.570  14.237  0.00  0.00    +0.000 OA
ATOM     23  H   UNL     1       6.894   2.667  14.203  0.00  0.00    +0.000 HD
ENDBRANCH  17  22
ENDBRANCH  13  15
ENDBRANCH   4  13
TORSDOF 4
ENDMDL
MODEL 6
REMARK VINA RESULT:      -7.5      1.247      1.675
REMARK  Name = 
REMARK  6 active torsions:
REMARK  status: ('A' for Active; 'I' for Inactive)
REMARK    1  A    between atoms: C_1  and  C_2
REMARK    2  A    between atoms: N_4  and  C_5
REMARK    3  A    between atoms: C_8  and  C_9
REMARK    4  A    between atoms: C_9  and  C_11
REMARK    5  A    between atoms: C_13  and  O_14
REMARK    6  A    between atoms: C_16  and  C_17
REMARK                            x       y       z     vdW  Elec       q    Type
REMARK                         _______ _______ _______ _____ _____    ______ ____
ROOT
ATOM      1  C   UNL     1       2.136   7.880  19.074  0.00  0.00    +0.000 A 
ATOM      2  C   UNL     1       2.142   6.856  20.035  0.00  0.00    +0.000 A 
ATOM      3  C   UNL     1       2.948   5.724  19.860  0.00  0.00    +0.000 A 
ATOM      4  C   UNL     1       3.757   5.604  18.726  0.00  0.00    +0.000 A 
ATOM      5  C   UNL     1       3.727   6.610  17.755  0.00  0.00    +0.000 A 
ATOM      6  C   UNL     1       2.943   7.751  17.937  0.00  0.00    +0.000 A 
ENDROOT
BRANCH   1  10
ATOM      7  C   UNL     1      -0.842  11.469  20.907  0.00  0.00    +0.000 C 
ATOM      8  C   UNL     1      -0.002  10.604  20.054  0.00  0.00    +0.000 A 
ATOM      9  C   UNL     1       0.674   9.449  20.385  0.00  0.00    +0.000 A 
ATOM     10  N   UNL     1       1.311   9.029  19.238  0.00  0.00    +0.000 N 
ATOM     11  C   UNL     1       0.974   9.958  18.275  0.00  0.00    +0.000 A 
ATOM     12  N   UNL     1       0.191  10.908  18.735  0.00  0.00    +0.000 NA
ENDBRANCH   1  10
BRANCH   4  13
ATOM     13  C   UNL     1       4.574   4.375  18.534  0.00  0.00    +0.000 C 
ATOM     14  O   UNL     1       4.319   3.393  19.223  0.00  0.00    +0.000 OA
BRANCH  13  15
ATOM     15  C   UNL     1       5.563   4.328  17.486  0.00  0.00    +0.000 A 
ATOM     16  N   UNL     1       5.333   3.685  16.288  0.00  0.00    +0.000 N 
ATOM     17  C   UNL     1       6.404   3.917  15.479  0.00  0.00    +0.000 A 
ATOM     18  N   UNL     1       7.347   4.569  16.104  0.00  0.00    +0.000 NA
ATOM     19  C   UNL     1       6.865   4.802  17.372  0.00  0.00    +0.000 A 
ATOM     20  C   UNL     1       7.744   5.456  18.374  0.00  0.00    +0.000 C 
ATOM     21  H   UNL     1       4.487   3.185  16.059  0.00  0.00    +0.000 HD
BRANCH  17  22
ATOM     22  O   UNL     1       6.492   3.540  14.217  0.00  0.00    +0.000 OA
ATOM     23  H   UNL     1       6.942   4.232  13.711  0.00  0.00    +0.000 HD
ENDBRANCH  17  22
ENDBRANCH  13  15
ENDBRANCH   4  13
TORSDOF 4
ENDMDL
MODEL 7
REMARK VINA RESULT:      -7.5      1.654      2.385
REMARK  Name = 
REMARK  6 active torsions:
REMARK  status: ('A' for Active; 'I' for Inactive)
REMARK    1  A    between atoms: C_1  and  C_2
REMARK    2  A    between atoms: N_4  and  C_5
REMARK    3  A    between atoms: C_8  and  C_9
REMARK    4  A    between atoms: C_9  and  C_11
REMARK    5  A    between atoms: C_13  and  O_14
REMARK    6  A    between atoms: C_16  and  C_17
REMARK                            x       y       z     vdW  Elec       q    Type
REMARK                         _______ _______ _______ _____ _____    ______ ____
ROOT
ATOM      1  C   UNL     1       1.738   7.917  19.776  0.00  0.00    +0.000 A 
ATOM      2  C   UNL     1       1.957   6.663  20.368  0.00  0.00    +0.000 A 
ATOM      3  C   UNL     1       2.753   5.705  19.726  0.00  0.00    +0.000 A 
ATOM      4  C   UNL     1       3.339   5.991  18.490  0.00  0.00    +0.000 A 
ATOM      5  C   UNL     1       3.095   7.229  17.887  0.00  0.00    +0.000 A 
ATOM      6  C   UNL     1       2.322   8.195  18.534  0.00  0.00    +0.000 A 
ENDROOT
BRANCH   1  10
ATOM      7  C   UNL     1      -0.938  10.559  23.087  0.00  0.00    +0.000 C 
ATOM      8  C   UNL     1      -0.257  10.048  21.881  0.00  0.00    +0.000 A 
ATOM      9  C   UNL     1       0.515   8.916  21.731  0.00  0.00    +0.000 A 
ATOM     10  N   UNL     1       0.922   8.893  20.415  0.00  0.00    +0.000 N 
ATOM     11  C   UNL     1       0.361  10.017  19.843  0.00  0.00    +0.000 A 
ATOM     12  N   UNL     1      -0.346  10.723  20.695  0.00  0.00    +0.000 NA
ENDBRANCH   1  10
BRANCH   4  13
ATOM     13  C   UNL     1       4.146   4.947  17.801  0.00  0.00    +0.000 C 
ATOM     14  O   UNL     1       3.564   4.140  17.084  0.00  0.00    +0.000 OA
BRANCH  13  15
ATOM     15  C   UNL     1       5.584   4.970  17.903  0.00  0.00    +0.000 A 
ATOM     16  N   UNL     1       6.232   5.396  19.042  0.00  0.00    +0.000 N 
ATOM     17  C   UNL     1       7.567   5.190  18.864  0.00  0.00    +0.000 A 
ATOM     18  N   UNL     1       7.831   4.765  17.657  0.00  0.00    +0.000 NA
ATOM     19  C   UNL     1       6.614   4.659  17.023  0.00  0.00    +0.000 A 
ATOM     20  C   UNL     1       6.574   4.278  15.588  0.00  0.00    +0.000 C 
ATOM     21  H   UNL     1       5.771   5.743  19.870  0.00  0.00    +0.000 HD
BRANCH  17  22
ATOM     22  O   UNL     1       8.492   5.388  19.785  0.00  0.00    +0.000 OA
ATOM     23  H   UNL     1       8.064   5.475  20.649  0.00  0.00    +0.000 HD
ENDBRANCH  17  22
ENDBRANCH  13  15
ENDBRANCH   4  13
TORSDOF 4
ENDMDL
MODEL 8
REMARK VINA RESULT:      -7.4      0.843      1.538
REMARK  Name = 
REMARK  6 active torsions:
REMARK  status: ('A' for Active; 'I' for Inactive)
REMARK    1  A    between atoms: C_1  and  C_2
REMARK    2  A    between atoms: N_4  and  C_5
REMARK    3  A    between atoms: C_8  and  C_9
REMARK    4  A    between atoms: C_9  and  C_11
REMARK    5  A    between atoms: C_13  and  O_14
REMARK    6  A    between atoms: C_16  and  C_17
REMARK                            x       y       z     vdW  Elec       q    Type
REMARK                         _______ _______ _______ _____ _____    ______ ____
ROOT
ATOM      1  C   UNL     1       2.322   7.207  19.365  0.00  0.00    +0.000 A 
ATOM      2  C   UNL     1       2.386   5.936  19.957  0.00  0.00    +0.000 A 
ATOM      3  C   UNL     1       3.094   4.899  19.337  0.00  0.00    +0.000 A 
ATOM      4  C   UNL     1       3.748   5.121  18.121  0.00  0.00    +0.000 A 
ATOM      5  C   UNL     1       3.658   6.379  17.517  0.00  0.00    +0.000 A 
ATOM      6  C   UNL     1       2.972   7.422  18.143  0.00  0.00    +0.000 A 
ENDROOT
BRANCH   1  10
ATOM      7  C   UNL     1      -0.233  11.417  20.289  0.00  0.00    +0.000 C 
ATOM      8  C   UNL     1       0.473  10.124  20.378  0.00  0.00    +0.000 A 
ATOM      9  C   UNL     1       1.098   9.402  19.384  0.00  0.00    +0.000 A 
ATOM     10  N   UNL     1       1.595   8.265  19.982  0.00  0.00    +0.000 N 
ATOM     11  C   UNL     1       1.244   8.371  21.312  0.00  0.00    +0.000 A 
ATOM     12  N   UNL     1       0.575   9.470  21.575  0.00  0.00    +0.000 NA
ENDBRANCH   1  10
BRANCH   4  13
ATOM     13  C   UNL     1       4.460   3.997  17.455  0.00  0.00    +0.000 C 
ATOM     14  O   UNL     1       4.005   2.865  17.578  0.00  0.00    +0.000 OA
BRANCH  13  15
ATOM     15  C   UNL     1       5.590   4.270  16.601  0.00  0.00    +0.000 A 
ATOM     16  N   UNL     1       5.535   4.099  15.234  0.00  0.00    +0.000 N 
ATOM     17  C   UNL     1       6.711   4.545  14.712  0.00  0.00    +0.000 A 
ATOM     18  N   UNL     1       7.555   4.889  15.648  0.00  0.00    +0.000 NA
ATOM     19  C   UNL     1       6.894   4.687  16.839  0.00  0.00    +0.000 A 
ATOM     20  C   UNL     1       7.619   4.904  18.117  0.00  0.00    +0.000 C 
ATOM     21  H   UNL     1       4.732   3.754  14.731  0.00  0.00    +0.000 HD
BRANCH  17  22
ATOM     22  O   UNL     1       6.981   4.629  13.422  0.00  0.00    +0.000 OA
ATOM     23  H   UNL     1       6.161   4.521  12.920  0.00  0.00    +0.000 HD
ENDBRANCH  17  22
ENDBRANCH  13  15
ENDBRANCH   4  13
TORSDOF 4
ENDMDL
MODEL 9
REMARK VINA RESULT:      -7.4      2.428      3.737
REMARK  Name = 
REMARK  6 active torsions:
REMARK  status: ('A' for Active; 'I' for Inactive)
REMARK    1  A    between atoms: C_1  and  C_2
REMARK    2  A    between atoms: N_4  and  C_5
REMARK    3  A    between atoms: C_8  and  C_9
REMARK    4  A    between atoms: C_9  and  C_11
REMARK    5  A    between atoms: C_13  and  O_14
REMARK    6  A    between atoms: C_16  and  C_17
REMARK                            x       y       z     vdW  Elec       q    Type
REMARK                         _______ _______ _______ _____ _____    ______ ____
ROOT
ATOM      1  C   UNL     1       1.561   8.709  19.407  0.00  0.00    +0.000 A 
ATOM      2  C   UNL     1       1.846   7.592  20.208  0.00  0.00    +0.000 A 
ATOM      3  C   UNL     1       2.650   6.554  19.719  0.00  0.00    +0.000 A 
ATOM      4  C   UNL     1       3.180   6.623  18.427  0.00  0.00    +0.000 A 
ATOM      5  C   UNL     1       2.871   7.721  17.619  0.00  0.00    +0.000 A 
ATOM      6  C   UNL     1       2.088   8.768  18.110  0.00  0.00    +0.000 A 
ENDROOT
BRANCH   1  10
ATOM      7  C   UNL     1      -0.586  12.270  22.202  0.00  0.00    +0.000 C 
ATOM      8  C   UNL     1      -0.205  11.327  21.132  0.00  0.00    +0.000 A 
ATOM      9  C   UNL     1       0.786  10.369  21.127  0.00  0.00    +0.000 A 
ATOM     10  N   UNL     1       0.735   9.763  19.890  0.00  0.00    +0.000 N 
ATOM     11  C   UNL     1      -0.294  10.391  19.220  0.00  0.00    +0.000 A 
ATOM     12  N   UNL     1      -0.872  11.328  19.938  0.00  0.00    +0.000 NA
ENDBRANCH   1  10
BRANCH   4  13
ATOM     13  C   UNL     1       3.997   5.493  17.908  0.00  0.00    +0.000 C 
ATOM     14  O   UNL     1       4.824   5.726  17.033  0.00  0.00    +0.000 OA
BRANCH  13  15
ATOM     15  C   UNL     1       3.878   4.187  18.508  0.00  0.00    +0.000 A 
ATOM     16  N   UNL     1       4.960   3.529  19.053  0.00  0.00    +0.000 N 
ATOM     17  C   UNL     1       4.503   2.385  19.633  0.00  0.00    +0.000 A 
ATOM     18  N   UNL     1       3.228   2.207  19.409  0.00  0.00    +0.000 NA
ATOM     19  C   UNL     1       2.823   3.298  18.672  0.00  0.00    +0.000 A 
ATOM     20  C   UNL     1       1.425   3.358  18.174  0.00  0.00    +0.000 C 
ATOM     21  H   UNL     1       5.905   3.883  19.056  0.00  0.00    +0.000 HD
BRANCH  17  22
ATOM     22  O   UNL     1       5.241   1.549  20.340  0.00  0.00    +0.000 OA
ATOM     23  H   UNL     1       6.156   1.594  20.027  0.00  0.00    +0.000 HD
ENDBRANCH  17  22
ENDBRANCH  13  15
ENDBRANCH   4  13
TORSDOF 4
ENDMDL
