MODEL 1
REMARK VINA RESULT:      -7.4      0.000      0.000
REMARK  Name = 
REMARK  11 active torsions:
REMARK  status: ('A' for Active; 'I' for Inactive)
REMARK    1  A    between atoms: C_1  and  O_2
REMARK    2  A    between atoms: O_2  and  C_3
REMARK    3  A    between atoms: C_4  and  C_5
REMARK    4  A    between atoms: C_4  and  C_9
REMARK    5  A    between atoms: C_5  and  O_7
REMARK    6  A    between atoms: O_7  and  C_8
REMARK    7  A    between atoms: C_14  and  C_15
REMARK    8  A    between atoms: C_15  and  S_16
REMARK    9  A    between atoms: S_16  and  C_17
REMARK   10  A    between atoms: C_21  and  C_22
REMARK   11  A    between atoms: C_24  and  C_25
REMARK                            x       y       z     vdW  Elec       q    Type
REMARK                         _______ _______ _______ _____ _____    ______ ____
ROOT
ATOM      1  C   UNL     1       4.052   4.416  17.459  0.00  0.00    +0.000 A 
ATOM      2  C   UNL     1       3.695   3.065  17.276  0.00  0.00    +0.000 A 
ATOM      3  C   UNL     1       2.565   2.536  17.891  0.00  0.00    +0.000 A 
ATOM      4  C   UNL     1       1.797   3.339  18.721  0.00  0.00    +0.000 A 
ATOM      5  C   UNL     1       2.141   4.676  18.918  0.00  0.00    +0.000 A 
ATOM      6  C   UNL     1       3.243   5.259  18.262  0.00  0.00    +0.000 A 
ENDROOT
BRANCH   1   8
ATOM      7  C   UNL     1       6.455   4.898  17.427  0.00  0.00    +0.000 C 
ATOM      8  C   UNL     1       5.281   4.874  16.774  0.00  0.00    +0.000 C 
BRANCH   7  10
ATOM      9  C   UNL     1       7.133   5.446  19.594  0.00  0.00    +0.000 C 
ATOM     10  O   UNL     1       6.593   4.460  18.721  0.00  0.00    +0.000 OA
ENDBRANCH   7  10
BRANCH   8  11
ATOM     11  C   UNL     1       5.263   5.423  15.384  0.00  0.00    +0.000 C 
ATOM     12  O   UNL     1       5.268   6.612  15.105  0.00  0.00    +0.000 OA
BRANCH  11  13
ATOM     13  O   UNL     1       5.216   4.405  14.483  0.00  0.00    +0.000 OA
ATOM     14  C   UNL     1       6.454   4.113  13.838  0.00  0.00    +0.000 C 
ENDBRANCH  11  13
ENDBRANCH   8  11
ENDBRANCH   1   8
BRANCH   6  15
ATOM     15  C   UNL     1       3.570   6.738  18.359  0.00  0.00    +0.000 C 
BRANCH  15  16
ATOM     16  S   UNL     1       2.555   7.946  17.499  0.00  0.00    +0.000 S 
BRANCH  16  17
ATOM     17  C   UNL     1       1.814   8.899  18.754  0.00  0.00    +0.000 A 
ATOM     18  N   UNL     1       1.499   8.497  20.019  0.00  0.00    +0.000 NA
ATOM     19  C   UNL     1       0.826   9.525  20.511  0.00  0.00    +0.000 A 
ATOM     20  N   UNL     1       0.201   9.680  21.721  0.00  0.00    +0.000 NA
ATOM     21  C   UNL     1      -0.539  10.744  21.864  0.00  0.00    +0.000 A 
ATOM     22  C   UNL     1      -1.279  10.963  23.163  0.00  0.00    +0.000 C 
ATOM     23  C   UNL     1      -0.744  11.803  20.821  0.00  0.00    +0.000 A 
ATOM     24  C   UNL     1      -0.063  11.645  19.674  0.00  0.00    +0.000 A 
ATOM     25  C   UNL     1      -0.167  12.579  18.511  0.00  0.00    +0.000 C 
ATOM     26  N   UNL     1       0.738  10.512  19.521  0.00  0.00    +0.000 N 
ATOM     27  N   UNL     1       1.448  10.140  18.442  0.00  0.00    +0.000 NA
ENDBRANCH  16  17
ENDBRANCH  15  16
ENDBRANCH   6  15
TORSDOF 7
ENDMDL
MODEL 2
REMARK VINA RESULT:      -7.3      0.795      2.318
REMARK  Name = 
REMARK  11 active torsions:
REMARK  status: ('A' for Active; 'I' for Inactive)
REMARK    1  A    between atoms: C_1  and  O_2
REMARK    2  A    between atoms: O_2  and  C_3
REMARK    3  A    between atoms: C_4  and  C_5
REMARK    4  A    between atoms: C_4  and  C_9
REMARK    5  A    between atoms: C_5  and  O_7
REMARK    6  A    between atoms: O_7  and  C_8
REMARK    7  A    between atoms: C_14  and  C_15
REMARK    8  A    between atoms: C_15  and  S_16
REMARK    9  A    between atoms: S_16  and  C_17
REMARK   10  A    between atoms: C_21  and  C_22
REMARK   11  A    between atoms: C_24  and  C_25
REMARK                            x       y       z     vdW  Elec       q    Type
REMARK                         _______ _______ _______ _____ _____    ______ ____
ROOT
ATOM      1  C   UNL     1       4.170   4.631  17.693  0.00  0.00    +0.000 A 
ATOM      2  C   UNL     1       3.943   3.290  17.329  0.00  0.00    +0.000 A 
ATOM      3  C   UNL     1       2.686   2.713  17.480  0.00  0.00    +0.000 A 
ATOM      4  C   UNL     1       1.652   3.457  18.027  0.00  0.00    +0.000 A 
ATOM      5  C   UNL     1       1.864   4.784  18.400  0.00  0.00    +0.000 A 
ATOM      6  C   UNL     1       3.106   5.417  18.203  0.00  0.00    +0.000 A 
ENDROOT
BRANCH   1   8
ATOM      7  C   UNL     1       6.003   5.439  16.279  0.00  0.00    +0.000 C 
ATOM      8  C   UNL     1       5.547   5.143  17.508  0.00  0.00    +0.000 C 
BRANCH   7  10
ATOM      9  C   UNL     1       5.648   4.310  14.266  0.00  0.00    +0.000 C 
ATOM     10  O   UNL     1       5.223   5.338  15.154  0.00  0.00    +0.000 OA
ENDBRANCH   7  10
BRANCH   8  11
ATOM     11  C   UNL     1       6.516   5.255  18.640  0.00  0.00    +0.000 C 
ATOM     12  O   UNL     1       6.252   5.011  19.808  0.00  0.00    +0.000 OA
BRANCH  11  13
ATOM     13  O   UNL     1       7.720   5.691  18.181  0.00  0.00    +0.000 OA
ATOM     14  C   UNL     1       8.055   7.029  18.542  0.00  0.00    +0.000 C 
ENDBRANCH  11  13
ENDBRANCH   8  11
ENDBRANCH   1   8
BRANCH   6  15
ATOM     15  C   UNL     1       3.333   6.891  18.484  0.00  0.00    +0.000 C 
BRANCH  15  16
ATOM     16  S   UNL     1       2.398   8.136  17.586  0.00  0.00    +0.000 S 
BRANCH  16  17
ATOM     17  C   UNL     1       1.635   9.110  18.812  0.00  0.00    +0.000 A 
ATOM     18  N   UNL     1       1.348   8.747  20.095  0.00  0.00    +0.000 NA
ATOM     19  C   UNL     1       0.644   9.768  20.555  0.00  0.00    +0.000 A 
ATOM     20  N   UNL     1       0.026   9.947  21.766  0.00  0.00    +0.000 NA
ATOM     21  C   UNL     1      -0.750  10.989  21.876  0.00  0.00    +0.000 A 
ATOM     22  C   UNL     1      -1.485  11.232  23.174  0.00  0.00    +0.000 C 
ATOM     23  C   UNL     1      -1.005  11.998  20.795  0.00  0.00    +0.000 A 
ATOM     24  C   UNL     1      -0.330  11.821  19.648  0.00  0.00    +0.000 A 
ATOM     25  C   UNL     1      -0.480  12.705  18.450  0.00  0.00    +0.000 C 
ATOM     26  N   UNL     1       0.509  10.712  19.529  0.00  0.00    +0.000 N 
ATOM     27  N   UNL     1       1.221  10.324  18.456  0.00  0.00    +0.000 NA
ENDBRANCH  16  17
ENDBRANCH  15  16
ENDBRANCH   6  15
TORSDOF 7
ENDMDL
MODEL 3
REMARK VINA RESULT:      -7.2      1.021      1.826
REMARK  Name = 
REMARK  11 active torsions:
REMARK  status: ('A' for Active; 'I' for Inactive)
REMARK    1  A    between atoms: C_1  and  O_2
REMARK    2  A    between atoms: O_2  and  C_3
REMARK    3  A    between atoms: C_4  and  C_5
REMARK    4  A    between atoms: C_4  and  C_9
REMARK    5  A    between atoms: C_5  and  O_7
REMARK    6  A    between atoms: O_7  and  C_8
REMARK    7  A    between atoms: C_14  and  C_15
REMARK    8  A    between atoms: C_15  and  S_16
REMARK    9  A    between atoms: S_16  and  C_17
REMARK   10  A    between atoms: C_21  and  C_22
REMARK   11  A    between atoms: C_24  and  C_25
REMARK                            x       y       z     vdW  Elec       q    Type
REMARK                         _______ _______ _______ _____ _____    ______ ____
ROOT
ATOM      1  C   UNL     1       4.370   4.104  17.504  0.00  0.00    +0.000 A 
ATOM      2  C   UNL     1       3.932   2.784  17.287  0.00  0.00    +0.000 A 
ATOM      3  C   UNL     1       2.750   2.320  17.856  0.00  0.00    +0.000 A 
ATOM      4  C   UNL     1       2.010   3.160  18.675  0.00  0.00    +0.000 A 
ATOM      5  C   UNL     1       2.434   4.468  18.906  0.00  0.00    +0.000 A 
ATOM      6  C   UNL     1       3.592   4.987  18.295  0.00  0.00    +0.000 A 
ENDROOT
BRANCH   1   8
ATOM      7  C   UNL     1       6.752   4.673  17.610  0.00  0.00    +0.000 C 
ATOM      8  C   UNL     1       5.648   4.492  16.866  0.00  0.00    +0.000 C 
BRANCH   7  10
ATOM      9  C   UNL     1       7.415   5.514  19.685  0.00  0.00    +0.000 C 
ATOM     10  O   UNL     1       6.774   4.466  18.966  0.00  0.00    +0.000 OA
ENDBRANCH   7  10
BRANCH   8  11
ATOM     11  C   UNL     1       5.751   4.796  15.406  0.00  0.00    +0.000 C 
ATOM     12  O   UNL     1       5.475   5.873  14.899  0.00  0.00    +0.000 OA
BRANCH  11  13
ATOM     13  O   UNL     1       6.172   3.694  14.729  0.00  0.00    +0.000 OA
ATOM     14  C   UNL     1       6.173   3.822  13.308  0.00  0.00    +0.000 C 
ENDBRANCH  11  13
ENDBRANCH   8  11
ENDBRANCH   1   8
BRANCH   6  15
ATOM     15  C   UNL     1       4.012   6.439  18.428  0.00  0.00    +0.000 C 
BRANCH  15  16
ATOM     16  S   UNL     1       3.452   7.655  17.229  0.00  0.00    +0.000 S 
BRANCH  16  17
ATOM     17  C   UNL     1       2.160   8.516  18.018  0.00  0.00    +0.000 A 
ATOM     18  N   UNL     1       1.351   9.470  17.474  0.00  0.00    +0.000 NA
ATOM     19  C   UNL     1       0.655   9.912  18.509  0.00  0.00    +0.000 A 
ATOM     20  N   UNL     1      -0.272  10.919  18.591  0.00  0.00    +0.000 NA
ATOM     21  C   UNL     1      -0.669  11.251  19.787  0.00  0.00    +0.000 A 
ATOM     22  C   UNL     1      -1.669  12.372  19.952  0.00  0.00    +0.000 C 
ATOM     23  C   UNL     1      -0.200  10.615  21.063  0.00  0.00    +0.000 A 
ATOM     24  C   UNL     1       0.659   9.591  20.934  0.00  0.00    +0.000 A 
ATOM     25  C   UNL     1       1.258   8.857  22.092  0.00  0.00    +0.000 C 
ATOM     26  N   UNL     1       1.079   9.226  19.653  0.00  0.00    +0.000 N 
ATOM     27  N   UNL     1       1.969   8.278  19.313  0.00  0.00    +0.000 NA
ENDBRANCH  16  17
ENDBRANCH  15  16
ENDBRANCH   6  15
TORSDOF 7
ENDMDL
MODEL 4
REMARK VINA RESULT:      -7.1      1.001      1.762
REMARK  Name = 
REMARK  11 active torsions:
REMARK  status: ('A' for Active; 'I' for Inactive)
REMARK    1  A    between atoms: C_1  and  O_2
REMARK    2  A    between atoms: O_2  and  C_3
REMARK    3  A    between atoms: C_4  and  C_5
REMARK    4  A    between atoms: C_4  and  C_9
REMARK    5  A    between atoms: C_5  and  O_7
REMARK    6  A    between atoms: O_7  and  C_8
REMARK    7  A    between atoms: C_14  and  C_15
REMARK    8  A    between atoms: C_15  and  S_16
REMARK    9  A    between atoms: S_16  and  C_17
REMARK   10  A    between atoms: C_21  and  C_22
REMARK   11  A    between atoms: C_24  and  C_25
REMARK                            x       y       z     vdW  Elec       q    Type
REMARK                         _______ _______ _______ _____ _____    ______ ____
ROOT
ATOM      1  C   UNL     1       3.997   4.925  17.455  0.00  0.00    +0.000 A 
ATOM      2  C   UNL     1       3.762   3.607  17.018  0.00  0.00    +0.000 A 
ATOM      3  C   UNL     1       2.616   2.920  17.403  0.00  0.00    +0.000 A 
ATOM      4  C   UNL     1       1.706   3.530  18.255  0.00  0.00    +0.000 A 
ATOM      5  C   UNL     1       1.928   4.831  18.703  0.00  0.00    +0.000 A 
ATOM      6  C   UNL     1       3.047   5.576  18.282  0.00  0.00    +0.000 A 
ENDROOT
BRANCH   1   8
ATOM      7  C   UNL     1       6.258   5.779  17.868  0.00  0.00    +0.000 C 
ATOM      8  C   UNL     1       5.255   5.560  17.001  0.00  0.00    +0.000 C 
BRANCH   7  10
ATOM      9  C   UNL     1       7.458   5.451  19.844  0.00  0.00    +0.000 C 
ATOM     10  O   UNL     1       6.199   5.390  19.183  0.00  0.00    +0.000 OA
ENDBRANCH   7  10
BRANCH   8  11
ATOM     11  C   UNL     1       5.432   6.074  15.609  0.00  0.00    +0.000 C 
ATOM     12  O   UNL     1       4.805   7.006  15.127  0.00  0.00    +0.000 OA
BRANCH  11  13
ATOM     13  O   UNL     1       6.372   5.339  14.957  0.00  0.00    +0.000 OA
ATOM     14  C   UNL     1       5.855   4.329  14.092  0.00  0.00    +0.000 C 
ENDBRANCH  11  13
ENDBRANCH   8  11
ENDBRANCH   1   8
BRANCH   6  15
ATOM     15  C   UNL     1       3.252   7.034  18.653  0.00  0.00    +0.000 C 
BRANCH  15  16
ATOM     16  S   UNL     1       2.591   8.334  17.603  0.00  0.00    +0.000 S 
BRANCH  16  17
ATOM     17  C   UNL     1       1.370   9.123  18.563  0.00  0.00    +0.000 A 
ATOM     18  N   UNL     1       0.486  10.078  18.153  0.00  0.00    +0.000 NA
ATOM     19  C   UNL     1      -0.105  10.453  19.275  0.00  0.00    +0.000 A 
ATOM     20  N   UNL     1      -1.042  11.429  19.502  0.00  0.00    +0.000 NA
ATOM     21  C   UNL     1      -1.317  11.695  20.748  0.00  0.00    +0.000 A 
ATOM     22  C   UNL     1      -2.320  12.779  21.070  0.00  0.00    +0.000 C 
ATOM     23  C   UNL     1      -0.702  11.014  21.936  0.00  0.00    +0.000 A 
ATOM     24  C   UNL     1       0.162  10.022  21.668  0.00  0.00    +0.000 A 
ATOM     25  C   UNL     1       0.896   9.253  22.720  0.00  0.00    +0.000 C 
ATOM     26  N   UNL     1       0.452   9.727  20.335  0.00  0.00    +0.000 N 
ATOM     27  N   UNL     1       1.323   8.820  19.858  0.00  0.00    +0.000 NA
ENDBRANCH  16  17
ENDBRANCH  15  16
ENDBRANCH   6  15
TORSDOF 7
ENDMDL
MODEL 5
REMARK VINA RESULT:      -7.0      2.117      3.853
REMARK  Name = 
REMARK  11 active torsions:
REMARK  status: ('A' for Active; 'I' for Inactive)
REMARK    1  A    between atoms: C_1  and  O_2
REMARK    2  A    between atoms: O_2  and  C_3
REMARK    3  A    between atoms: C_4  and  C_5
REMARK    4  A    between atoms: C_4  and  C_9
REMARK    5  A    between atoms: C_5  and  O_7
REMARK    6  A    between atoms: O_7  and  C_8
REMARK    7  A    between atoms: C_14  and  C_15
REMARK    8  A    between atoms: C_15  and  S_16
REMARK    9  A    between atoms: S_16  and  C_17
REMARK   10  A    between atoms: C_21  and  C_22
REMARK   11  A    between atoms: C_24  and  C_25
REMARK                            x       y       z     vdW  Elec       q    Type
REMARK                         _______ _______ _______ _____ _____    ______ ____
ROOT
ATOM      1  C   UNL     1       6.632   5.726  16.746  0.00  0.00    +0.000 A 
ATOM      2  C   UNL     1       7.472   4.913  15.960  0.00  0.00    +0.000 A 
ATOM      3  C   UNL     1       7.086   4.508  14.686  0.00  0.00    +0.000 A 
ATOM      4  C   UNL     1       5.844   4.883  14.196  0.00  0.00    +0.000 A 
ATOM      5  C   UNL     1       4.998   5.681  14.965  0.00  0.00    +0.000 A 
ATOM      6  C   UNL     1       5.384   6.159  16.232  0.00  0.00    +0.000 A 
ENDROOT
BRANCH   1   8
ATOM      7  C   UNL     1       7.800   7.236  18.285  0.00  0.00    +0.000 C 
ATOM      8  C   UNL     1       7.130   6.087  18.092  0.00  0.00    +0.000 C 
BRANCH   7  10
ATOM      9  C   UNL     1       8.187   9.477  17.757  0.00  0.00    +0.000 C 
ATOM     10  O   UNL     1       8.012   8.147  17.281  0.00  0.00    +0.000 OA
ENDBRANCH   7  10
BRANCH   8  11
ATOM     11  C   UNL     1       7.009   5.163  19.261  0.00  0.00    +0.000 C 
ATOM     12  O   UNL     1       7.511   5.360  20.357  0.00  0.00    +0.000 OA
BRANCH  11  13
ATOM     13  O   UNL     1       6.281   4.068  18.915  0.00  0.00    +0.000 OA
ATOM     14  C   UNL     1       4.982   3.997  19.502  0.00  0.00    +0.000 C 
ENDBRANCH  11  13
ENDBRANCH   8  11
ENDBRANCH   1   8
BRANCH   6  15
ATOM     15  C   UNL     1       4.538   7.128  17.039  0.00  0.00    +0.000 C 
BRANCH  15  16
ATOM     16  S   UNL     1       3.154   6.523  18.013  0.00  0.00    +0.000 S 
BRANCH  16  17
ATOM     17  C   UNL     1       2.257   7.945  18.469  0.00  0.00    +0.000 A 
ATOM     18  N   UNL     1       2.067   9.074  17.727  0.00  0.00    +0.000 NA
ATOM     19  C   UNL     1       1.464   9.898  18.568  0.00  0.00    +0.000 A 
ATOM     20  N   UNL     1       1.080  11.204  18.408  0.00  0.00    +0.000 NA
ATOM     21  C   UNL     1       0.661  11.824  19.477  0.00  0.00    +0.000 A 
ATOM     22  C   UNL     1       0.249  13.274  19.378  0.00  0.00    +0.000 C 
ATOM     23  C   UNL     1       0.561  11.218  20.846  0.00  0.00    +0.000 A 
ATOM     24  C   UNL     1       0.886   9.919  20.945  0.00  0.00    +0.000 A 
ATOM     25  C   UNL     1       0.878   9.156  22.231  0.00  0.00    +0.000 C 
ATOM     26  N   UNL     1       1.325   9.250  19.801  0.00  0.00    +0.000 N 
ATOM     27  N   UNL     1       1.750   7.978  19.698  0.00  0.00    +0.000 NA
ENDBRANCH  16  17
ENDBRANCH  15  16
ENDBRANCH   6  15
TORSDOF 7
ENDMDL
MODEL 6
REMARK VINA RESULT:      -7.0      1.096      2.916
REMARK  Name = 
REMARK  11 active torsions:
REMARK  status: ('A' for Active; 'I' for Inactive)
REMARK    1  A    between atoms: C_1  and  O_2
REMARK    2  A    between atoms: O_2  and  C_3
REMARK    3  A    between atoms: C_4  and  C_5
REMARK    4  A    between atoms: C_4  and  C_9
REMARK    5  A    between atoms: C_5  and  O_7
REMARK    6  A    between atoms: O_7  and  C_8
REMARK    7  A    between atoms: C_14  and  C_15
REMARK    8  A    between atoms: C_15  and  S_16
REMARK    9  A    between atoms: S_16  and  C_17
REMARK   10  A    between atoms: C_21  and  C_22
REMARK   11  A    between atoms: C_24  and  C_25
REMARK                            x       y       z     vdW  Elec       q    Type
REMARK                         _______ _______ _______ _____ _____    ______ ____
ROOT
ATOM      1  C   UNL     1       4.157   4.272  17.799  0.00  0.00    +0.000 A 
ATOM      2  C   UNL     1       3.937   2.930  17.436  0.00  0.00    +0.000 A 
ATOM      3  C   UNL     1       2.715   2.313  17.685  0.00  0.00    +0.000 A 
ATOM      4  C   UNL     1       1.711   3.020  18.329  0.00  0.00    +0.000 A 
ATOM      5  C   UNL     1       1.916   4.348  18.702  0.00  0.00    +0.000 A 
ATOM      6  C   UNL     1       3.119   5.020  18.409  0.00  0.00    +0.000 A 
ENDROOT
BRANCH   1   8
ATOM      7  C   UNL     1       5.888   5.025  16.233  0.00  0.00    +0.000 C 
ATOM      8  C   UNL     1       5.498   4.827  17.504  0.00  0.00    +0.000 C 
BRANCH   7  10
ATOM      9  C   UNL     1       5.714   4.066  14.111  0.00  0.00    +0.000 C 
ATOM     10  O   UNL     1       5.068   4.780  15.160  0.00  0.00    +0.000 OA
ENDBRANCH   7  10
BRANCH   8  11
ATOM     11  C   UNL     1       6.505   5.092  18.576  0.00  0.00    +0.000 C 
ATOM     12  O   UNL     1       6.325   4.884  19.766  0.00  0.00    +0.000 OA
BRANCH  11  13
ATOM     13  O   UNL     1       7.636   5.618  18.032  0.00  0.00    +0.000 OA
ATOM     14  C   UNL     1       8.019   6.891  18.550  0.00  0.00    +0.000 C 
ENDBRANCH  11  13
ENDBRANCH   8  11
ENDBRANCH   1   8
BRANCH   6  15
ATOM     15  C   UNL     1       3.327   6.497  18.692  0.00  0.00    +0.000 C 
BRANCH  15  16
ATOM     16  S   UNL     1       3.050   7.712  17.397  0.00  0.00    +0.000 S 
BRANCH  16  17
ATOM     17  C   UNL     1       2.101   8.968  18.141  0.00  0.00    +0.000 A 
ATOM     18  N   UNL     1       1.965  10.259  17.721  0.00  0.00    +0.000 NA
ATOM     19  C   UNL     1       1.280  10.831  18.698  0.00  0.00    +0.000 A 
ATOM     20  N   UNL     1       0.897  12.136  18.868  0.00  0.00    +0.000 NA
ATOM     21  C   UNL     1       0.378  12.446  20.023  0.00  0.00    +0.000 A 
ATOM     22  C   UNL     1      -0.040  13.874  20.288  0.00  0.00    +0.000 C 
ATOM     23  C   UNL     1       0.160  11.491  21.160  0.00  0.00    +0.000 A 
ATOM     24  C   UNL     1       0.490  10.210  20.929  0.00  0.00    +0.000 A 
ATOM     25  C   UNL     1       0.374   9.124  21.951  0.00  0.00    +0.000 C 
ATOM     26  N   UNL     1       1.038   9.872  19.690  0.00  0.00    +0.000 N 
ATOM     27  N   UNL     1       1.484   8.671  19.282  0.00  0.00    +0.000 NA
ENDBRANCH  16  17
ENDBRANCH  15  16
ENDBRANCH   6  15
TORSDOF 7
ENDMDL
MODEL 7
REMARK VINA RESULT:      -6.9      3.696      5.709
REMARK  Name = 
REMARK  11 active torsions:
REMARK  status: ('A' for Active; 'I' for Inactive)
REMARK    1  A    between atoms: C_1  and  O_2
REMARK    2  A    between atoms: O_2  and  C_3
REMARK    3  A    between atoms: C_4  and  C_5
REMARK    4  A    between atoms: C_4  and  C_9
REMARK    5  A    between atoms: C_5  and  O_7
REMARK    6  A    between atoms: O_7  and  C_8
REMARK    7  A    between atoms: C_14  and  C_15
REMARK    8  A    between atoms: C_15  and  S_16
REMARK    9  A    between atoms: S_16  and  C_17
REMARK   10  A    between atoms: C_21  and  C_22
REMARK   11  A    between atoms: C_24  and  C_25
REMARK                            x       y       z     vdW  Elec       q    Type
REMARK                         _______ _______ _______ _____ _____    ______ ____
ROOT
ATOM      1  C   UNL     1       6.731   5.985  16.931  0.00  0.00    +0.000 A 
ATOM      2  C   UNL     1       7.419   5.120  16.058  0.00  0.00    +0.000 A 
ATOM      3  C   UNL     1       6.881   4.777  14.822  0.00  0.00    +0.000 A 
ATOM      4  C   UNL     1       5.635   5.265  14.458  0.00  0.00    +0.000 A 
ATOM      5  C   UNL     1       4.938   6.117  15.315  0.00  0.00    +0.000 A 
ATOM      6  C   UNL     1       5.482   6.534  16.545  0.00  0.00    +0.000 A 
ENDROOT
BRANCH   1   8
ATOM      7  C   UNL     1       8.117   7.389  18.387  0.00  0.00    +0.000 C 
ATOM      8  C   UNL     1       7.384   6.274  18.228  0.00  0.00    +0.000 C 
BRANCH   7  10
ATOM      9  C   UNL     1       8.351   9.660  17.900  0.00  0.00    +0.000 C 
ATOM     10  O   UNL     1       8.258   8.331  17.399  0.00  0.00    +0.000 OA
ENDBRANCH   7  10
BRANCH   8  11
ATOM     11  C   UNL     1       7.351   5.310  19.369  0.00  0.00    +0.000 C 
ATOM     12  O   UNL     1       7.929   5.472  20.433  0.00  0.00    +0.000 OA
BRANCH  11  13
ATOM     13  O   UNL     1       6.604   4.222  19.039  0.00  0.00    +0.000 OA
ATOM     14  C   UNL     1       5.290   4.201  19.594  0.00  0.00    +0.000 C 
ENDBRANCH  11  13
ENDBRANCH   8  11
ENDBRANCH   1   8
BRANCH   6  15
ATOM     15  C   UNL     1       4.804   7.553  17.442  0.00  0.00    +0.000 C 
BRANCH  15  16
ATOM     16  S   UNL     1       3.014   7.711  17.436  0.00  0.00    +0.000 S 
BRANCH  16  17
ATOM     17  C   UNL     1       2.430   6.349  18.351  0.00  0.00    +0.000 A 
ATOM     18  N   UNL     1       2.116   6.319  19.679  0.00  0.00    +0.000 NA
ATOM     19  C   UNL     1       1.879   5.039  19.911  0.00  0.00    +0.000 A 
ATOM     20  N   UNL     1       1.579   4.389  21.081  0.00  0.00    +0.000 NA
ATOM     21  C   UNL     1       1.569   3.086  21.038  0.00  0.00    +0.000 A 
ATOM     22  C   UNL     1       1.273   2.307  22.299  0.00  0.00    +0.000 C 
ATOM     23  C   UNL     1       1.846   2.257  19.820  0.00  0.00    +0.000 A 
ATOM     24  C   UNL     1       2.072   2.933  18.681  0.00  0.00    +0.000 A 
ATOM     25  C   UNL     1       2.398   2.278  17.376  0.00  0.00    +0.000 C 
ATOM     26  N   UNL     1       2.074   4.328  18.720  0.00  0.00    +0.000 N 
ATOM     27  N   UNL     1       2.334   5.184  17.716  0.00  0.00    +0.000 NA
ENDBRANCH  16  17
ENDBRANCH  15  16
ENDBRANCH   6  15
TORSDOF 7
ENDMDL
MODEL 8
REMARK VINA RESULT:      -6.8      2.257      4.311
REMARK  Name = 
REMARK  11 active torsions:
REMARK  status: ('A' for Active; 'I' for Inactive)
REMARK    1  A    between atoms: C_1  and  O_2
REMARK    2  A    between atoms: O_2  and  C_3
REMARK    3  A    between atoms: C_4  and  C_5
REMARK    4  A    between atoms: C_4  and  C_9
REMARK    5  A    between atoms: C_5  and  O_7
REMARK    6  A    between atoms: O_7  and  C_8
REMARK    7  A    between atoms: C_14  and  C_15
REMARK    8  A    between atoms: C_15  and  S_16
REMARK    9  A    between atoms: S_16  and  C_17
REMARK   10  A    between atoms: C_21  and  C_22
REMARK   11  A    between atoms: C_24  and  C_25
REMARK                            x       y       z     vdW  Elec       q    Type
REMARK                         _______ _______ _______ _____ _____    ______ ____
ROOT
ATOM      1  C   UNL     1       3.506   5.379  18.723  0.00  0.00    +0.000 A 
ATOM      2  C   UNL     1       4.737   4.699  18.803  0.00  0.00    +0.000 A 
ATOM      3  C   UNL     1       5.880   5.217  18.204  0.00  0.00    +0.000 A 
ATOM      4  C   UNL     1       5.800   6.404  17.490  0.00  0.00    +0.000 A 
ATOM      5  C   UNL     1       4.587   7.085  17.395  0.00  0.00    +0.000 A 
ATOM      6  C   UNL     1       3.426   6.619  18.042  0.00  0.00    +0.000 A 
ENDROOT
BRANCH   1   8
ATOM      7  C   UNL     1       1.575   3.868  18.703  0.00  0.00    +0.000 C 
ATOM      8  C   UNL     1       2.348   4.732  19.381  0.00  0.00    +0.000 C 
BRANCH   7  10
ATOM      9  C   UNL     1       2.539   2.266  17.303  0.00  0.00    +0.000 C 
ATOM     10  O   UNL     1       1.836   3.500  17.406  0.00  0.00    +0.000 OA
ENDBRANCH   7  10
BRANCH   8  11
ATOM     11  C   UNL     1       1.925   5.080  20.772  0.00  0.00    +0.000 C 
ATOM     12  O   UNL     1       1.241   6.047  21.070  0.00  0.00    +0.000 OA
BRANCH  11  13
ATOM     13  O   UNL     1       2.432   4.175  21.652  0.00  0.00    +0.000 OA
ATOM     14  C   UNL     1       1.708   2.949  21.741  0.00  0.00    +0.000 C 
ENDBRANCH  11  13
ENDBRANCH   8  11
ENDBRANCH   1   8
BRANCH   6  15
ATOM     15  C   UNL     1       2.124   7.400  18.059  0.00  0.00    +0.000 C 
BRANCH  15  16
ATOM     16  S   UNL     1       2.135   9.179  17.804  0.00  0.00    +0.000 S 
BRANCH  16  17
ATOM     17  C   UNL     1       0.918   9.804  18.883  0.00  0.00    +0.000 A 
ATOM     18  N   UNL     1      -0.001  10.777  18.616  0.00  0.00    +0.000 NA
ATOM     19  C   UNL     1      -0.574  10.990  19.789  0.00  0.00    +0.000 A 
ATOM     20  N   UNL     1      -1.530  11.902  20.158  0.00  0.00    +0.000 NA
ATOM     21  C   UNL     1      -1.781  12.000  21.433  0.00  0.00    +0.000 A 
ATOM     22  C   UNL     1      -2.803  13.005  21.912  0.00  0.00    +0.000 C 
ATOM     23  C   UNL     1      -1.119  11.193  22.511  0.00  0.00    +0.000 A 
ATOM     24  C   UNL     1      -0.236  10.268  22.102  0.00  0.00    +0.000 A 
ATOM     25  C   UNL     1       0.544   9.394  23.032  0.00  0.00    +0.000 C 
ATOM     26  N   UNL     1       0.028  10.152  20.736  0.00  0.00    +0.000 N 
ATOM     27  N   UNL     1       0.910   9.339  20.129  0.00  0.00    +0.000 NA
ENDBRANCH  16  17
ENDBRANCH  15  16
ENDBRANCH   6  15
TORSDOF 7
ENDMDL
MODEL 9
REMARK VINA RESULT:      -6.8      4.152      8.728
REMARK  Name = 
REMARK  11 active torsions:
REMARK  status: ('A' for Active; 'I' for Inactive)
REMARK    1  A    between atoms: C_1  and  O_2
REMARK    2  A    between atoms: O_2  and  C_3
REMARK    3  A    between atoms: C_4  and  C_5
REMARK    4  A    between atoms: C_4  and  C_9
REMARK    5  A    between atoms: C_5  and  O_7
REMARK    6  A    between atoms: O_7  and  C_8
REMARK    7  A    between atoms: C_14  and  C_15
REMARK    8  A    between atoms: C_15  and  S_16
REMARK    9  A    between atoms: S_16  and  C_17
REMARK   10  A    between atoms: C_21  and  C_22
REMARK   11  A    between atoms: C_24  and  C_25
REMARK                            x       y       z     vdW  Elec       q    Type
REMARK                         _______ _______ _______ _____ _____    ______ ____
ROOT
ATOM      1  C   UNL     1      -0.760  11.441  19.791  0.00  0.00    +0.000 A 
ATOM      2  C   UNL     1      -1.961  11.794  19.146  0.00  0.00    +0.000 A 
ATOM      3  C   UNL     1      -2.388  11.115  18.010  0.00  0.00    +0.000 A 
ATOM      4  C   UNL     1      -1.605  10.098  17.485  0.00  0.00    +0.000 A 
ATOM      5  C   UNL     1      -0.409   9.742  18.107  0.00  0.00    +0.000 A 
ATOM      6  C   UNL     1       0.021  10.367  19.294  0.00  0.00    +0.000 A 
ENDROOT
BRANCH   1   8
ATOM      7  C   UNL     1       0.515  13.228  20.884  0.00  0.00    +0.000 C 
ATOM      8  C   UNL     1      -0.388  12.237  20.982  0.00  0.00    +0.000 C 
BRANCH   7  10
ATOM      9  C   UNL     1       2.513  13.477  19.702  0.00  0.00    +0.000 C 
ATOM     10  O   UNL     1       1.094  13.587  19.692  0.00  0.00    +0.000 OA
ENDBRANCH   7  10
BRANCH   8  11
ATOM     11  C   UNL     1      -0.907  11.921  22.347  0.00  0.00    +0.000 C 
ATOM     12  O   UNL     1      -0.429  11.083  23.096  0.00  0.00    +0.000 OA
BRANCH  11  13
ATOM     13  O   UNL     1      -2.000  12.685  22.618  0.00  0.00    +0.000 OA
ATOM     14  C   UNL     1      -2.949  12.088  23.501  0.00  0.00    +0.000 C 
ENDBRANCH  11  13
ENDBRANCH   8  11
ENDBRANCH   1   8
BRANCH   6  15
ATOM     15  C   UNL     1       1.252   9.920  20.060  0.00  0.00    +0.000 C 
BRANCH  15  16
ATOM     16  S   UNL     1       1.144   8.556  21.226  0.00  0.00    +0.000 S 
BRANCH  16  17
ATOM     17  C   UNL     1       1.665   7.151  20.339  0.00  0.00    +0.000 A 
ATOM     18  N   UNL     1       1.489   5.843  20.685  0.00  0.00    +0.000 NA
ATOM     19  C   UNL     1       2.191   5.186  19.777  0.00  0.00    +0.000 A 
ATOM     20  N   UNL     1       2.442   3.844  19.649  0.00  0.00    +0.000 NA
ATOM     21  C   UNL     1       3.319   3.498  18.749  0.00  0.00    +0.000 A 
ATOM     22  C   UNL     1       3.664   2.037  18.574  0.00  0.00    +0.000 C 
ATOM     23  C   UNL     1       4.056   4.445  17.848  0.00  0.00    +0.000 A 
ATOM     24  C   UNL     1       3.734   5.743  17.962  0.00  0.00    +0.000 A 
ATOM     25  C   UNL     1       4.385   6.834  17.172  0.00  0.00    +0.000 C 
ATOM     26  N   UNL     1       2.788   6.117  18.918  0.00  0.00    +0.000 N 
ATOM     27  N   UNL     1       2.371   7.357  19.230  0.00  0.00    +0.000 NA
ENDBRANCH  16  17
ENDBRANCH  15  16
ENDBRANCH   6  15
TORSDOF 7
ENDMDL
