MODEL 1
REMARK VINA RESULT:      -8.3      0.000      0.000
REMARK  Name = 
REMARK  4 active torsions:
REMARK  status: ('A' for Active; 'I' for Inactive)
REMARK    1  A    between atoms: C_2  and  C_3
REMARK    2  A    between atoms: C_2  and  C_19
REMARK    3  A    between atoms: C_3  and  C_4
REMARK    4  A    between atoms: C_4  and  N_5
REMARK                            x       y       z     vdW  Elec       q    Type
REMARK                         _______ _______ _______ _____ _____    ______ ____
ROOT
ATOM      1  N   UNL     1       3.059   5.831  18.195  0.00  0.00    +0.000 NA
ATOM      2  C   UNL     1       4.058   5.235  17.293  0.00  0.00    +0.000 C 
ATOM      3  C   UNL     1       3.917   3.711  17.115  0.00  0.00    +0.000 C 
ATOM      4  C   UNL     1       2.500   3.351  16.690  0.00  0.00    +0.000 C 
ATOM      5  C   UNL     1       1.563   3.864  17.781  0.00  0.00    +0.000 C 
ATOM      6  C   UNL     1       1.691   5.405  17.842  0.00  0.00    +0.000 C 
ATOM      7  C   UNL     1       1.900   3.282  19.147  0.00  0.00    +0.000 A 
ATOM      8  C   UNL     1       0.959   3.181  20.104  0.00  0.00    +0.000 A 
ATOM      9  C   UNL     1       1.302   2.762  21.436  0.00  0.00    +0.000 A 
ATOM     10  C   UNL     1       2.572   2.487  21.754  0.00  0.00    +0.000 A 
ATOM     11  C   UNL     1       3.634   2.563  20.718  0.00  0.00    +0.000 A 
ATOM     12  O   UNL     1       4.789   2.275  21.030  0.00  0.00    +0.000 OA
ATOM     13  N   UNL     1       3.227   2.955  19.441  0.00  0.00    +0.000 N 
ATOM     14  C   UNL     1       4.253   2.946  18.399  0.00  0.00    +0.000 C 
ENDROOT
BRANCH   1  15
ATOM     15  C   UNL     1       3.182   7.293  18.251  0.00  0.00    +0.000 C 
BRANCH  15  16
ATOM     16  C   UNL     1       1.892   7.990  17.811  0.00  0.00    +0.000 C 
BRANCH  16  18
ATOM     17  O   UNL     1       2.259  10.361  17.936  0.00  0.00    +0.000 OA
ATOM     18  C   UNL     1       1.786   9.358  18.439  0.00  0.00    +0.000 C 
BRANCH  18  19
ATOM     19  C   UNL     1       1.032   9.473  19.715  0.00  0.00    +0.000 A 
ATOM     20  C   UNL     1       0.127  10.534  19.836  0.00  0.00    +0.000 A 
ATOM     21  C   UNL     1      -0.570  10.720  21.026  0.00  0.00    +0.000 A 
ATOM     22  C   UNL     1      -0.358   9.844  22.083  0.00  0.00    +0.000 A 
ATOM     23  F   UNL     1      -0.999  10.045  23.240  0.00  0.00    +0.000 F 
ATOM     24  C   UNL     1       0.521   8.769  21.967  0.00  0.00    +0.000 A 
ATOM     25  C   UNL     1       1.219   8.577  20.776  0.00  0.00    +0.000 A 
ENDBRANCH  18  19
ENDBRANCH  16  18
ENDBRANCH  15  16
ENDBRANCH   1  15
TORSDOF 4
ENDMDL
MODEL 2
REMARK VINA RESULT:      -8.0      1.303      1.663
REMARK  Name = 
REMARK  4 active torsions:
REMARK  status: ('A' for Active; 'I' for Inactive)
REMARK    1  A    between atoms: C_2  and  C_3
REMARK    2  A    between atoms: C_2  and  C_19
REMARK    3  A    between atoms: C_3  and  C_4
REMARK    4  A    between atoms: C_4  and  N_5
REMARK                            x       y       z     vdW  Elec       q    Type
REMARK                         _______ _______ _______ _____ _____    ______ ____
ROOT
ATOM      1  N   UNL     1       3.127   5.860  18.284  0.00  0.00    +0.000 NA
ATOM      2  C   UNL     1       4.084   5.248  17.349  0.00  0.00    +0.000 C 
ATOM      3  C   UNL     1       3.876   3.737  17.131  0.00  0.00    +0.000 C 
ATOM      4  C   UNL     1       2.438   3.449  16.722  0.00  0.00    +0.000 C 
ATOM      5  C   UNL     1       1.542   3.971  17.842  0.00  0.00    +0.000 C 
ATOM      6  C   UNL     1       1.736   5.502  17.943  0.00  0.00    +0.000 C 
ATOM      7  C   UNL     1       1.876   3.337  19.186  0.00  0.00    +0.000 A 
ATOM      8  C   UNL     1       0.947   3.249  20.156  0.00  0.00    +0.000 A 
ATOM      9  C   UNL     1       1.294   2.779  21.470  0.00  0.00    +0.000 A 
ATOM     10  C   UNL     1       2.556   2.442  21.758  0.00  0.00    +0.000 A 
ATOM     11  C   UNL     1       3.603   2.503  20.706  0.00  0.00    +0.000 A 
ATOM     12  O   UNL     1       4.749   2.157  20.991  0.00  0.00    +0.000 OA
ATOM     13  N   UNL     1       3.192   2.946  19.448  0.00  0.00    +0.000 N 
ATOM     14  C   UNL     1       4.200   2.923  18.388  0.00  0.00    +0.000 C 
ENDROOT
BRANCH   1  15
ATOM     15  C   UNL     1       3.312   7.314  18.377  0.00  0.00    +0.000 C 
BRANCH  15  16
ATOM     16  C   UNL     1       2.086   8.007  18.976  0.00  0.00    +0.000 C 
BRANCH  16  18
ATOM     17  O   UNL     1       2.329   9.582  17.178  0.00  0.00    +0.000 OA
ATOM     18  C   UNL     1       1.722   9.232  18.173  0.00  0.00    +0.000 C 
BRANCH  18  19
ATOM     19  C   UNL     1       0.537  10.016  18.613  0.00  0.00    +0.000 A 
ATOM     20  C   UNL     1       0.666  10.779  19.779  0.00  0.00    +0.000 A 
ATOM     21  C   UNL     1      -0.425  11.494  20.265  0.00  0.00    +0.000 A 
ATOM     22  C   UNL     1      -1.632  11.441  19.580  0.00  0.00    +0.000 A 
ATOM     23  F   UNL     1      -2.692  12.097  20.068  0.00  0.00    +0.000 F 
ATOM     24  C   UNL     1      -1.766  10.706  18.404  0.00  0.00    +0.000 A 
ATOM     25  C   UNL     1      -0.676   9.991  17.912  0.00  0.00    +0.000 A 
ENDBRANCH  18  19
ENDBRANCH  16  18
ENDBRANCH  15  16
ENDBRANCH   1  15
TORSDOF 4
ENDMDL
MODEL 3
REMARK VINA RESULT:      -8.0      2.267      3.662
REMARK  Name = 
REMARK  4 active torsions:
REMARK  status: ('A' for Active; 'I' for Inactive)
REMARK    1  A    between atoms: C_2  and  C_3
REMARK    2  A    between atoms: C_2  and  C_19
REMARK    3  A    between atoms: C_3  and  C_4
REMARK    4  A    between atoms: C_4  and  N_5
REMARK                            x       y       z     vdW  Elec       q    Type
REMARK                         _______ _______ _______ _____ _____    ______ ____
ROOT
ATOM      1  N   UNL     1       2.892   5.470  18.597  0.00  0.00    +0.000 NA
ATOM      2  C   UNL     1       2.470   4.426  17.650  0.00  0.00    +0.000 C 
ATOM      3  C   UNL     1       3.577   3.418  17.289  0.00  0.00    +0.000 C 
ATOM      4  C   UNL     1       4.184   2.814  18.548  0.00  0.00    +0.000 C 
ATOM      5  C   UNL     1       4.743   3.971  19.372  0.00  0.00    +0.000 C 
ATOM      6  C   UNL     1       3.566   4.890  19.775  0.00  0.00    +0.000 C 
ATOM      7  C   UNL     1       5.769   4.786  18.596  0.00  0.00    +0.000 A 
ATOM      8  C   UNL     1       6.721   5.487  19.238  0.00  0.00    +0.000 A 
ATOM      9  C   UNL     1       7.603   6.365  18.518  0.00  0.00    +0.000 A 
ATOM     10  C   UNL     1       7.477   6.519  17.195  0.00  0.00    +0.000 A 
ATOM     11  C   UNL     1       6.453   5.742  16.449  0.00  0.00    +0.000 A 
ATOM     12  O   UNL     1       6.379   5.880  15.228  0.00  0.00    +0.000 OA
ATOM     13  N   UNL     1       5.646   4.892  17.207  0.00  0.00    +0.000 N 
ATOM     14  C   UNL     1       4.697   4.062  16.465  0.00  0.00    +0.000 C 
ENDROOT
BRANCH   1  15
ATOM     15  C   UNL     1       1.773   6.341  18.979  0.00  0.00    +0.000 C 
BRANCH  15  16
ATOM     16  C   UNL     1       2.224   7.478  19.898  0.00  0.00    +0.000 C 
BRANCH  16  18
ATOM     17  O   UNL     1       1.500   9.269  18.470  0.00  0.00    +0.000 OA
ATOM     18  C   UNL     1       1.484   8.752  19.572  0.00  0.00    +0.000 C 
BRANCH  18  19
ATOM     19  C   UNL     1       0.670   9.372  20.651  0.00  0.00    +0.000 A 
ATOM     20  C   UNL     1      -0.030  10.542  20.339  0.00  0.00    +0.000 A 
ATOM     21  C   UNL     1      -0.768  11.193  21.324  0.00  0.00    +0.000 A 
ATOM     22  C   UNL     1      -0.801  10.667  22.609  0.00  0.00    +0.000 A 
ATOM     23  F   UNL     1      -1.479  11.313  23.565  0.00  0.00    +0.000 F 
ATOM     24  C   UNL     1      -0.128   9.489  22.926  0.00  0.00    +0.000 A 
ATOM     25  C   UNL     1       0.609   8.832  21.943  0.00  0.00    +0.000 A 
ENDBRANCH  18  19
ENDBRANCH  16  18
ENDBRANCH  15  16
ENDBRANCH   1  15
TORSDOF 4
ENDMDL
MODEL 4
REMARK VINA RESULT:      -8.0      5.898      7.199
REMARK  Name = 
REMARK  4 active torsions:
REMARK  status: ('A' for Active; 'I' for Inactive)
REMARK    1  A    between atoms: C_2  and  C_3
REMARK    2  A    between atoms: C_2  and  C_19
REMARK    3  A    between atoms: C_3  and  C_4
REMARK    4  A    between atoms: C_4  and  N_5
REMARK                            x       y       z     vdW  Elec       q    Type
REMARK                         _______ _______ _______ _____ _____    ______ ____
ROOT
ATOM      1  N   UNL     1       6.986   6.750  17.889  0.00  0.00    +0.000 NA
ATOM      2  C   UNL     1       7.358   5.391  17.465  0.00  0.00    +0.000 C 
ATOM      3  C   UNL     1       6.195   4.578  16.863  0.00  0.00    +0.000 C 
ATOM      4  C   UNL     1       5.530   5.350  15.733  0.00  0.00    +0.000 C 
ATOM      5  C   UNL     1       5.031   6.665  16.324  0.00  0.00    +0.000 C 
ATOM      6  C   UNL     1       6.256   7.467  16.825  0.00  0.00    +0.000 C 
ATOM      7  C   UNL     1       4.072   6.444  17.487  0.00  0.00    +0.000 A 
ATOM      8  C   UNL     1       3.155   7.375  17.809  0.00  0.00    +0.000 A 
ATOM      9  C   UNL     1       2.342   7.232  18.987  0.00  0.00    +0.000 A 
ATOM     10  C   UNL     1       2.501   6.180  19.798  0.00  0.00    +0.000 A 
ATOM     11  C   UNL     1       3.486   5.121  19.460  0.00  0.00    +0.000 A 
ATOM     12  O   UNL     1       3.590   4.148  20.207  0.00  0.00    +0.000 OA
ATOM     13  N   UNL     1       4.225   5.311  18.291  0.00  0.00    +0.000 N 
ATOM     14  C   UNL     1       5.133   4.229  17.910  0.00  0.00    +0.000 C 
ENDROOT
BRANCH   1  15
ATOM     15  C   UNL     1       8.151   7.508  18.363  0.00  0.00    +0.000 C 
BRANCH  15  16
ATOM     16  C   UNL     1       8.152   8.942  17.828  0.00  0.00    +0.000 C 
BRANCH  16  18
ATOM     17  O   UNL     1       9.129   9.595  19.924  0.00  0.00    +0.000 OA
ATOM     18  C   UNL     1       8.921   9.854  18.753  0.00  0.00    +0.000 C 
BRANCH  18  19
ATOM     19  C   UNL     1       9.476  11.109  18.178  0.00  0.00    +0.000 A 
ATOM     20  C   UNL     1      10.864  11.189  18.028  0.00  0.00    +0.000 A 
ATOM     21  C   UNL     1      11.443  12.358  17.542  0.00  0.00    +0.000 A 
ATOM     22  C   UNL     1      10.629  13.433  17.209  0.00  0.00    +0.000 A 
ATOM     23  F   UNL     1      11.188  14.570  16.778  0.00  0.00    +0.000 F 
ATOM     24  C   UNL     1       9.243  13.357  17.330  0.00  0.00    +0.000 A 
ATOM     25  C   UNL     1       8.658  12.187  17.813  0.00  0.00    +0.000 A 
ENDBRANCH  18  19
ENDBRANCH  16  18
ENDBRANCH  15  16
ENDBRANCH   1  15
TORSDOF 4
ENDMDL
MODEL 5
REMARK VINA RESULT:      -8.0      5.970      7.267
REMARK  Name = 
REMARK  4 active torsions:
REMARK  status: ('A' for Active; 'I' for Inactive)
REMARK    1  A    between atoms: C_2  and  C_3
REMARK    2  A    between atoms: C_2  and  C_19
REMARK    3  A    between atoms: C_3  and  C_4
REMARK    4  A    between atoms: C_4  and  N_5
REMARK                            x       y       z     vdW  Elec       q    Type
REMARK                         _______ _______ _______ _____ _____    ______ ____
ROOT
ATOM      1  N   UNL     1       7.091   6.820  18.022  0.00  0.00    +0.000 NA
ATOM      2  C   UNL     1       7.437   5.414  17.760  0.00  0.00    +0.000 C 
ATOM      3  C   UNL     1       6.286   4.582  17.161  0.00  0.00    +0.000 C 
ATOM      4  C   UNL     1       5.727   5.259  15.918  0.00  0.00    +0.000 C 
ATOM      5  C   UNL     1       5.241   6.641  16.342  0.00  0.00    +0.000 C 
ATOM      6  C   UNL     1       6.460   7.450  16.845  0.00  0.00    +0.000 C 
ATOM      7  C   UNL     1       4.200   6.569  17.451  0.00  0.00    +0.000 A 
ATOM      8  C   UNL     1       3.300   7.555  17.618  0.00  0.00    +0.000 A 
ATOM      9  C   UNL     1       2.406   7.557  18.745  0.00  0.00    +0.000 A 
ATOM     10  C   UNL     1       2.471   6.586  19.663  0.00  0.00    +0.000 A 
ATOM     11  C   UNL     1       3.436   5.468  19.500  0.00  0.00    +0.000 A 
ATOM     12  O   UNL     1       3.452   4.573  20.344  0.00  0.00    +0.000 OA
ATOM     13  N   UNL     1       4.256   5.517  18.371  0.00  0.00    +0.000 N 
ATOM     14  C   UNL     1       5.144   4.374  18.162  0.00  0.00    +0.000 C 
ENDROOT
BRANCH   1  15
ATOM     15  C   UNL     1       8.250   7.585  18.499  0.00  0.00    +0.000 C 
BRANCH  15  16
ATOM     16  C   UNL     1       8.266   9.007  17.933  0.00  0.00    +0.000 C 
BRANCH  16  18
ATOM     17  O   UNL     1       9.048   9.751  20.080  0.00  0.00    +0.000 OA
ATOM     18  C   UNL     1       8.966   9.949  18.882  0.00  0.00    +0.000 C 
BRANCH  18  19
ATOM     19  C   UNL     1       9.615  11.155  18.300  0.00  0.00    +0.000 A 
ATOM     20  C   UNL     1       8.784  12.218  17.931  0.00  0.00    +0.000 A 
ATOM     21  C   UNL     1       9.330  13.352  17.337  0.00  0.00    +0.000 A 
ATOM     22  C   UNL     1      10.700  13.413  17.120  0.00  0.00    +0.000 A 
ATOM     23  F   UNL     1      11.221  14.487  16.513  0.00  0.00    +0.000 F 
ATOM     24  C   UNL     1      11.542  12.372  17.506  0.00  0.00    +0.000 A 
ATOM     25  C   UNL     1      11.000  11.236  18.105  0.00  0.00    +0.000 A 
ENDBRANCH  18  19
ENDBRANCH  16  18
ENDBRANCH  15  16
ENDBRANCH   1  15
TORSDOF 4
ENDMDL
MODEL 6
REMARK VINA RESULT:      -7.9      2.098      3.364
REMARK  Name = 
REMARK  4 active torsions:
REMARK  status: ('A' for Active; 'I' for Inactive)
REMARK    1  A    between atoms: C_2  and  C_3
REMARK    2  A    between atoms: C_2  and  C_19
REMARK    3  A    between atoms: C_3  and  C_4
REMARK    4  A    between atoms: C_4  and  N_5
REMARK                            x       y       z     vdW  Elec       q    Type
REMARK                         _______ _______ _______ _____ _____    ______ ____
ROOT
ATOM      1  N   UNL     1       2.902   6.228  18.231  0.00  0.00    +0.000 NA
ATOM      2  C   UNL     1       2.001   5.149  17.798  0.00  0.00    +0.000 C 
ATOM      3  C   UNL     1       2.586   3.733  17.963  0.00  0.00    +0.000 C 
ATOM      4  C   UNL     1       3.067   3.516  19.391  0.00  0.00    +0.000 C 
ATOM      5  C   UNL     1       4.122   4.582  19.674  0.00  0.00    +0.000 C 
ATOM      6  C   UNL     1       3.444   5.970  19.580  0.00  0.00    +0.000 C 
ATOM      7  C   UNL     1       5.277   4.524  18.683  0.00  0.00    +0.000 A 
ATOM      8  C   UNL     1       6.496   4.985  19.018  0.00  0.00    +0.000 A 
ATOM      9  C   UNL     1       7.550   5.059  18.043  0.00  0.00    +0.000 A 
ATOM     10  C   UNL     1       7.330   4.691  16.776  0.00  0.00    +0.000 A 
ATOM     11  C   UNL     1       6.004   4.153  16.376  0.00  0.00    +0.000 A 
ATOM     12  O   UNL     1       5.839   3.793  15.211  0.00  0.00    +0.000 OA
ATOM     13  N   UNL     1       5.034   4.088  17.377  0.00  0.00    +0.000 N 
ATOM     14  C   UNL     1       3.757   3.478  17.008  0.00  0.00    +0.000 C 
ENDROOT
BRANCH   1  15
ATOM     15  C   UNL     1       2.256   7.544  18.142  0.00  0.00    +0.000 C 
BRANCH  15  16
ATOM     16  C   UNL     1       1.872   8.084  19.521  0.00  0.00    +0.000 C 
BRANCH  16  18
ATOM     17  O   UNL     1       1.225  10.103  18.390  0.00  0.00    +0.000 OA
ATOM     18  C   UNL     1       1.177   9.418  19.395  0.00  0.00    +0.000 C 
BRANCH  18  19
ATOM     19  C   UNL     1       0.368   9.885  20.552  0.00  0.00    +0.000 A 
ATOM     20  C   UNL     1      -0.360  11.069  20.394  0.00  0.00    +0.000 A 
ATOM     21  C   UNL     1      -1.096  11.580  21.459  0.00  0.00    +0.000 A 
ATOM     22  C   UNL     1      -1.100  10.901  22.670  0.00  0.00    +0.000 A 
ATOM     23  F   UNL     1      -1.776  11.411  23.707  0.00  0.00    +0.000 F 
ATOM     24  C   UNL     1      -0.400   9.707  22.834  0.00  0.00    +0.000 A 
ATOM     25  C   UNL     1       0.335   9.189  21.768  0.00  0.00    +0.000 A 
ENDBRANCH  18  19
ENDBRANCH  16  18
ENDBRANCH  15  16
ENDBRANCH   1  15
TORSDOF 4
ENDMDL
MODEL 7
REMARK VINA RESULT:      -7.9      2.450      3.945
REMARK  Name = 
REMARK  4 active torsions:
REMARK  status: ('A' for Active; 'I' for Inactive)
REMARK    1  A    between atoms: C_2  and  C_3
REMARK    2  A    between atoms: C_2  and  C_19
REMARK    3  A    between atoms: C_3  and  C_4
REMARK    4  A    between atoms: C_4  and  N_5
REMARK                            x       y       z     vdW  Elec       q    Type
REMARK                         _______ _______ _______ _____ _____    ______ ____
ROOT
ATOM      1  N   UNL     1       2.861   5.534  18.857  0.00  0.00    +0.000 NA
ATOM      2  C   UNL     1       2.349   4.622  17.822  0.00  0.00    +0.000 C 
ATOM      3  C   UNL     1       3.399   3.635  17.276  0.00  0.00    +0.000 C 
ATOM      4  C   UNL     1       4.057   2.870  18.415  0.00  0.00    +0.000 C 
ATOM      5  C   UNL     1       4.703   3.904  19.333  0.00  0.00    +0.000 C 
ATOM      6  C   UNL     1       3.584   4.800  19.914  0.00  0.00    +0.000 C 
ATOM      7  C   UNL     1       5.709   4.778  18.595  0.00  0.00    +0.000 A 
ATOM      8  C   UNL     1       6.720   5.372  19.255  0.00  0.00    +0.000 A 
ATOM      9  C   UNL     1       7.588   6.306  18.589  0.00  0.00    +0.000 A 
ATOM     10  C   UNL     1       7.389   6.620  17.304  0.00  0.00    +0.000 A 
ATOM     11  C   UNL     1       6.297   5.966  16.538  0.00  0.00    +0.000 A 
ATOM     12  O   UNL     1       6.156   6.251  15.349  0.00  0.00    +0.000 OA
ATOM     13  N   UNL     1       5.507   5.053  17.239  0.00  0.00    +0.000 N 
ATOM     14  C   UNL     1       4.489   4.343  16.465  0.00  0.00    +0.000 C 
ENDROOT
BRANCH   1  15
ATOM     15  C   UNL     1       1.797   6.383  19.408  0.00  0.00    +0.000 C 
BRANCH  15  16
ATOM     16  C   UNL     1       2.274   7.820  19.633  0.00  0.00    +0.000 C 
BRANCH  16  18
ATOM     17  O   UNL     1       2.297   8.673  17.388  0.00  0.00    +0.000 OA
ATOM     18  C   UNL     1       1.819   8.714  18.506  0.00  0.00    +0.000 C 
BRANCH  18  19
ATOM     19  C   UNL     1       0.705   9.660  18.784  0.00  0.00    +0.000 A 
ATOM     20  C   UNL     1       0.717  10.325  20.015  0.00  0.00    +0.000 A 
ATOM     21  C   UNL     1      -0.326  11.184  20.350  0.00  0.00    +0.000 A 
ATOM     22  C   UNL     1      -1.368  11.372  19.451  0.00  0.00    +0.000 A 
ATOM     23  F   UNL     1      -2.390  12.168  19.788  0.00  0.00    +0.000 F 
ATOM     24  C   UNL     1      -1.378  10.736  18.211  0.00  0.00    +0.000 A 
ATOM     25  C   UNL     1      -0.334   9.877  17.870  0.00  0.00    +0.000 A 
ENDBRANCH  18  19
ENDBRANCH  16  18
ENDBRANCH  15  16
ENDBRANCH   1  15
TORSDOF 4
ENDMDL
MODEL 8
REMARK VINA RESULT:      -7.8      1.798      2.198
REMARK  Name = 
REMARK  4 active torsions:
REMARK  status: ('A' for Active; 'I' for Inactive)
REMARK    1  A    between atoms: C_2  and  C_3
REMARK    2  A    between atoms: C_2  and  C_19
REMARK    3  A    between atoms: C_3  and  C_4
REMARK    4  A    between atoms: C_4  and  N_5
REMARK                            x       y       z     vdW  Elec       q    Type
REMARK                         _______ _______ _______ _____ _____    ______ ____
ROOT
ATOM      1  N   UNL     1       3.198   5.884  18.233  0.00  0.00    +0.000 NA
ATOM      2  C   UNL     1       4.157   5.254  17.312  0.00  0.00    +0.000 C 
ATOM      3  C   UNL     1       3.931   3.744  17.104  0.00  0.00    +0.000 C 
ATOM      4  C   UNL     1       2.494   3.470  16.684  0.00  0.00    +0.000 C 
ATOM      5  C   UNL     1       1.595   4.011  17.792  0.00  0.00    +0.000 C 
ATOM      6  C   UNL     1       1.806   5.541  17.883  0.00  0.00    +0.000 C 
ATOM      7  C   UNL     1       1.908   3.383  19.144  0.00  0.00    +0.000 A 
ATOM      8  C   UNL     1       0.970   3.314  20.106  0.00  0.00    +0.000 A 
ATOM      9  C   UNL     1       1.300   2.849  21.426  0.00  0.00    +0.000 A 
ATOM     10  C   UNL     1       2.555   2.499  21.728  0.00  0.00    +0.000 A 
ATOM     11  C   UNL     1       3.612   2.540  20.685  0.00  0.00    +0.000 A 
ATOM     12  O   UNL     1       4.752   2.183  20.982  0.00  0.00    +0.000 OA
ATOM     13  N   UNL     1       3.218   2.979  19.420  0.00  0.00    +0.000 N 
ATOM     14  C   UNL     1       4.235   2.936  18.369  0.00  0.00    +0.000 C 
ENDROOT
BRANCH   1  15
ATOM     15  C   UNL     1       3.400   7.337  18.317  0.00  0.00    +0.000 C 
BRANCH  15  16
ATOM     16  C   UNL     1       2.139   8.111  17.926  0.00  0.00    +0.000 C 
BRANCH  16  18
ATOM     17  O   UNL     1       1.544   8.343  20.242  0.00  0.00    +0.000 OA
ATOM     18  C   UNL     1       1.560   8.823  19.124  0.00  0.00    +0.000 C 
BRANCH  18  19
ATOM     19  C   UNL     1       1.019  10.193  18.915  0.00  0.00    +0.000 A 
ATOM     20  C   UNL     1      -0.373  10.341  18.902  0.00  0.00    +0.000 A 
ATOM     21  C   UNL     1      -0.935  11.591  18.662  0.00  0.00    +0.000 A 
ATOM     22  C   UNL     1      -0.103  12.680  18.439  0.00  0.00    +0.000 A 
ATOM     23  F   UNL     1      -0.644  13.874  18.169  0.00  0.00    +0.000 F 
ATOM     24  C   UNL     1       1.284  12.551  18.475  0.00  0.00    +0.000 A 
ATOM     25  C   UNL     1       1.852  11.302  18.718  0.00  0.00    +0.000 A 
ENDBRANCH  18  19
ENDBRANCH  16  18
ENDBRANCH  15  16
ENDBRANCH   1  15
TORSDOF 4
ENDMDL
MODEL 9
REMARK VINA RESULT:      -7.8      2.489      3.867
REMARK  Name = 
REMARK  4 active torsions:
REMARK  status: ('A' for Active; 'I' for Inactive)
REMARK    1  A    between atoms: C_2  and  C_3
REMARK    2  A    between atoms: C_2  and  C_19
REMARK    3  A    between atoms: C_3  and  C_4
REMARK    4  A    between atoms: C_4  and  N_5
REMARK                            x       y       z     vdW  Elec       q    Type
REMARK                         _______ _______ _______ _____ _____    ______ ____
ROOT
ATOM      1  N   UNL     1       2.977   5.491  18.568  0.00  0.00    +0.000 NA
ATOM      2  C   UNL     1       2.579   4.444  17.613  0.00  0.00    +0.000 C 
ATOM      3  C   UNL     1       3.697   3.437  17.280  0.00  0.00    +0.000 C 
ATOM      4  C   UNL     1       4.275   2.838  18.554  0.00  0.00    +0.000 C 
ATOM      5  C   UNL     1       4.812   3.997  19.389  0.00  0.00    +0.000 C 
ATOM      6  C   UNL     1       3.624   4.915  19.763  0.00  0.00    +0.000 C 
ATOM      7  C   UNL     1       5.855   4.813  18.636  0.00  0.00    +0.000 A 
ATOM      8  C   UNL     1       6.790   5.517  19.299  0.00  0.00    +0.000 A 
ATOM      9  C   UNL     1       7.687   6.395  18.598  0.00  0.00    +0.000 A 
ATOM     10  C   UNL     1       7.591   6.546  17.273  0.00  0.00    +0.000 A 
ATOM     11  C   UNL     1       6.587   5.767  16.504  0.00  0.00    +0.000 A 
ATOM     12  O   UNL     1       6.542   5.902  15.282  0.00  0.00    +0.000 OA
ATOM     13  N   UNL     1       5.764   4.916  17.244  0.00  0.00    +0.000 N 
ATOM     14  C   UNL     1       4.835   4.083  16.482  0.00  0.00    +0.000 C 
ENDROOT
BRANCH   1  15
ATOM     15  C   UNL     1       1.847   6.361  18.921  0.00  0.00    +0.000 C 
BRANCH  15  16
ATOM     16  C   UNL     1       2.315   7.746  19.373  0.00  0.00    +0.000 C 
BRANCH  16  18
ATOM     17  O   UNL     1       2.172   8.977  17.314  0.00  0.00    +0.000 OA
ATOM     18  C   UNL     1       1.776   8.815  18.454  0.00  0.00    +0.000 C 
BRANCH  18  19
ATOM     19  C   UNL     1       0.681   9.679  18.970  0.00  0.00    +0.000 A 
ATOM     20  C   UNL     1      -0.313  10.070  18.066  0.00  0.00    +0.000 A 
ATOM     21  C   UNL     1      -1.335  10.918  18.482  0.00  0.00    +0.000 A 
ATOM     22  C   UNL     1      -1.356  11.366  19.796  0.00  0.00    +0.000 A 
ATOM     23  F   UNL     1      -2.316  12.212  20.186  0.00  0.00    +0.000 F 
ATOM     24  C   UNL     1      -0.387  10.963  20.713  0.00  0.00    +0.000 A 
ATOM     25  C   UNL     1       0.637  10.111  20.303  0.00  0.00    +0.000 A 
ENDBRANCH  18  19
ENDBRANCH  16  18
ENDBRANCH  15  16
ENDBRANCH   1  15
TORSDOF 4
ENDMDL
