MODEL 1
REMARK VINA RESULT:      -7.7      0.000      0.000
REMARK  Name = 
REMARK  5 active torsions:
REMARK  status: ('A' for Active; 'I' for Inactive)
REMARK    1  A    between atoms: C_2  and  C_3
REMARK    2  A    between atoms: C_2  and  C_18
REMARK    3  A    between atoms: C_3  and  O_4
REMARK    4  A    between atoms: O_4  and  C_5
REMARK    5  A    between atoms: C_5  and  C_7
REMARK                            x       y       z     vdW  Elec       q    Type
REMARK                         _______ _______ _______ _____ _____    ______ ____
ROOT
ATOM      1  C   UNL     1       4.157   3.753  17.317  0.00  0.00    +0.000 C 
ATOM      2  O   UNL     1       4.225   2.608  17.736  0.00  0.00    +0.000 OA
ENDROOT
BRANCH   1   3
ATOM      3  C   UNL     1       5.324   4.550  16.850  0.00  0.00    +0.000 A 
ATOM      4  C   UNL     1       5.987   5.365  17.768  0.00  0.00    +0.000 A 
ATOM      5  C   UNL     1       7.099   6.039  17.329  0.00  0.00    +0.000 A 
ATOM      6 CL   UNL     1       8.003   7.040  18.389  0.00  0.00    +0.000 Cl
ATOM      7  N   UNL     1       7.589   5.972  16.077  0.00  0.00    +0.000 NA
ATOM      8  C   UNL     1       6.953   5.193  15.191  0.00  0.00    +0.000 A 
ATOM      9  C   UNL     1       7.473   5.125  13.903  0.00  0.00    +0.000 A 
ATOM     10  C   UNL     1       6.885   4.344  12.908  0.00  0.00    +0.000 A 
ATOM     11  C   UNL     1       5.745   3.614  13.197  0.00  0.00    +0.000 A 
ATOM     12  C   UNL     1       5.204   3.671  14.481  0.00  0.00    +0.000 A 
ATOM     13  C   UNL     1       5.798   4.448  15.510  0.00  0.00    +0.000 A 
ENDBRANCH   1   3
BRANCH   1  14
ATOM     14  O   UNL     1       3.003   4.455  17.174  0.00  0.00    +0.000 OA
BRANCH  14  15
ATOM     15  C   UNL     1       2.210   4.495  18.365  0.00  0.00    +0.000 C 
BRANCH  15  17
ATOM     16  O   UNL     1       3.492   5.224  20.283  0.00  0.00    +0.000 OA
ATOM     17  C   UNL     1       2.710   5.522  19.381  0.00  0.00    +0.000 C 
BRANCH  17  18
ATOM     18  C   UNL     1       2.253   6.942  19.248  0.00  0.00    +0.000 A 
ATOM     19  C   UNL     1       1.650   7.551  20.361  0.00  0.00    +0.000 A 
ATOM     20  C   UNL     1       1.200   8.873  20.294  0.00  0.00    +0.000 A 
ATOM     21  C   UNL     1       1.348   9.593  19.111  0.00  0.00    +0.000 A 
ATOM     22 CL   UNL     1       0.777  11.212  19.016  0.00  0.00    +0.000 Cl
ATOM     23  C   UNL     1       1.950   9.003  18.000  0.00  0.00    +0.000 A 
ATOM     24  C   UNL     1       2.406   7.680  18.067  0.00  0.00    +0.000 A 
ENDBRANCH  17  18
ENDBRANCH  15  17
ENDBRANCH  14  15
ENDBRANCH   1  14
TORSDOF 5
ENDMDL
MODEL 2
REMARK VINA RESULT:      -7.7      3.027      6.863
REMARK  Name = 
REMARK  5 active torsions:
REMARK  status: ('A' for Active; 'I' for Inactive)
REMARK    1  A    between atoms: C_2  and  C_3
REMARK    2  A    between atoms: C_2  and  C_18
REMARK    3  A    between atoms: C_3  and  O_4
REMARK    4  A    between atoms: O_4  and  C_5
REMARK    5  A    between atoms: C_5  and  C_7
REMARK                            x       y       z     vdW  Elec       q    Type
REMARK                         _______ _______ _______ _____ _____    ______ ____
ROOT
ATOM      1  C   UNL     1       5.930   4.964  19.290  0.00  0.00    +0.000 C 
ATOM      2  O   UNL     1       6.681   5.310  20.188  0.00  0.00    +0.000 OA
ENDROOT
BRANCH   1   3
ATOM      3  C   UNL     1       4.501   5.366  19.184  0.00  0.00    +0.000 A 
ATOM      4  C   UNL     1       4.185   6.537  18.495  0.00  0.00    +0.000 A 
ATOM      5  C   UNL     1       2.856   6.851  18.356  0.00  0.00    +0.000 A 
ATOM      6 CL   UNL     1       2.363   8.252  17.497  0.00  0.00    +0.000 Cl
ATOM      7  N   UNL     1       1.841   6.113  18.840  0.00  0.00    +0.000 NA
ATOM      8  C   UNL     1       2.141   4.989  19.507  0.00  0.00    +0.000 A 
ATOM      9  C   UNL     1       1.084   4.229  19.997  0.00  0.00    +0.000 A 
ATOM     10  C   UNL     1       1.288   3.044  20.703  0.00  0.00    +0.000 A 
ATOM     11  C   UNL     1       2.580   2.603  20.936  0.00  0.00    +0.000 A 
ATOM     12  C   UNL     1       3.655   3.351  20.458  0.00  0.00    +0.000 A 
ATOM     13  C   UNL     1       3.464   4.551  19.723  0.00  0.00    +0.000 A 
ENDBRANCH   1   3
BRANCH   1  14
ATOM     14  O   UNL     1       6.296   4.197  18.230  0.00  0.00    +0.000 OA
BRANCH  14  15
ATOM     15  C   UNL     1       7.511   4.628  17.608  0.00  0.00    +0.000 C 
BRANCH  15  17
ATOM     16  O   UNL     1       7.607   6.672  16.317  0.00  0.00    +0.000 OA
ATOM     17  C   UNL     1       7.274   5.488  16.367  0.00  0.00    +0.000 C 
BRANCH  17  18
ATOM     18  C   UNL     1       6.645   4.855  15.165  0.00  0.00    +0.000 A 
ATOM     19  C   UNL     1       7.377   4.834  13.967  0.00  0.00    +0.000 A 
ATOM     20  C   UNL     1       6.837   4.261  12.811  0.00  0.00    +0.000 A 
ATOM     21  C   UNL     1       5.560   3.707  12.848  0.00  0.00    +0.000 A 
ATOM     22 CL   UNL     1       4.884   3.019  11.425  0.00  0.00    +0.000 Cl
ATOM     23  C   UNL     1       4.824   3.714  14.032  0.00  0.00    +0.000 A 
ATOM     24  C   UNL     1       5.365   4.285  15.192  0.00  0.00    +0.000 A 
ENDBRANCH  17  18
ENDBRANCH  15  17
ENDBRANCH  14  15
ENDBRANCH   1  14
TORSDOF 5
ENDMDL
MODEL 3
REMARK VINA RESULT:      -7.5      1.579      2.818
REMARK  Name = 
REMARK  5 active torsions:
REMARK  status: ('A' for Active; 'I' for Inactive)
REMARK    1  A    between atoms: C_2  and  C_3
REMARK    2  A    between atoms: C_2  and  C_18
REMARK    3  A    between atoms: C_3  and  O_4
REMARK    4  A    between atoms: O_4  and  C_5
REMARK    5  A    between atoms: C_5  and  C_7
REMARK                            x       y       z     vdW  Elec       q    Type
REMARK                         _______ _______ _______ _____ _____    ______ ____
ROOT
ATOM      1  C   UNL     1       3.843   3.190  17.364  0.00  0.00    +0.000 C 
ATOM      2  O   UNL     1       3.882   2.094  17.899  0.00  0.00    +0.000 OA
ENDROOT
BRANCH   1   3
ATOM      3  C   UNL     1       5.006   3.851  16.710  0.00  0.00    +0.000 A 
ATOM      4  C   UNL     1       5.173   3.701  15.333  0.00  0.00    +0.000 A 
ATOM      5  C   UNL     1       6.215   4.374  14.746  0.00  0.00    +0.000 A 
ATOM      6 CL   UNL     1       6.486   4.280  13.054  0.00  0.00    +0.000 Cl
ATOM      7  N   UNL     1       7.085   5.161  15.403  0.00  0.00    +0.000 NA
ATOM      8  C   UNL     1       6.930   5.305  16.727  0.00  0.00    +0.000 A 
ATOM      9  C   UNL     1       7.830   6.127  17.396  0.00  0.00    +0.000 A 
ATOM     10  C   UNL     1       7.755   6.343  18.772  0.00  0.00    +0.000 A 
ATOM     11  C   UNL     1       6.762   5.719  19.507  0.00  0.00    +0.000 A 
ATOM     12  C   UNL     1       5.851   4.887  18.858  0.00  0.00    +0.000 A 
ATOM     13  C   UNL     1       5.903   4.669  17.456  0.00  0.00    +0.000 A 
ENDBRANCH   1   3
BRANCH   1  14
ATOM     14  O   UNL     1       2.724   3.952  17.246  0.00  0.00    +0.000 OA
BRANCH  14  15
ATOM     15  C   UNL     1       1.900   3.937  18.417  0.00  0.00    +0.000 C 
BRANCH  15  17
ATOM     16  O   UNL     1       2.939   4.535  20.518  0.00  0.00    +0.000 OA
ATOM     17  C   UNL     1       2.374   4.914  19.492  0.00  0.00    +0.000 C 
BRANCH  17  18
ATOM     18  C   UNL     1       2.170   6.380  19.270  0.00  0.00    +0.000 A 
ATOM     19  C   UNL     1       1.627   7.141  20.318  0.00  0.00    +0.000 A 
ATOM     20  C   UNL     1       1.410   8.514  20.165  0.00  0.00    +0.000 A 
ATOM     21  C   UNL     1       1.731   9.133  18.960  0.00  0.00    +0.000 A 
ATOM     22 CL   UNL     1       1.446  10.816  18.759  0.00  0.00    +0.000 Cl
ATOM     23  C   UNL     1       2.277   8.392  17.912  0.00  0.00    +0.000 A 
ATOM     24  C   UNL     1       2.500   7.017  18.066  0.00  0.00    +0.000 A 
ENDBRANCH  17  18
ENDBRANCH  15  17
ENDBRANCH  14  15
ENDBRANCH   1  14
TORSDOF 5
ENDMDL
MODEL 4
REMARK VINA RESULT:      -7.4      3.095      4.973
REMARK  Name = 
REMARK  5 active torsions:
REMARK  status: ('A' for Active; 'I' for Inactive)
REMARK    1  A    between atoms: C_2  and  C_3
REMARK    2  A    between atoms: C_2  and  C_18
REMARK    3  A    between atoms: C_3  and  O_4
REMARK    4  A    between atoms: O_4  and  C_5
REMARK    5  A    between atoms: C_5  and  C_7
REMARK                            x       y       z     vdW  Elec       q    Type
REMARK                         _______ _______ _______ _____ _____    ______ ____
ROOT
ATOM      1  C   UNL     1       2.359   7.275  18.751  0.00  0.00    +0.000 C 
ATOM      2  O   UNL     1       2.430   7.477  19.952  0.00  0.00    +0.000 OA
ENDROOT
BRANCH   1   3
ATOM      3  C   UNL     1       3.041   6.158  18.042  0.00  0.00    +0.000 A 
ATOM      4  C   UNL     1       4.162   6.446  17.263  0.00  0.00    +0.000 A 
ATOM      5  C   UNL     1       4.811   5.391  16.673  0.00  0.00    +0.000 A 
ATOM      6 CL   UNL     1       6.218   5.637  15.723  0.00  0.00    +0.000 Cl
ATOM      7  N   UNL     1       4.439   4.103  16.789  0.00  0.00    +0.000 NA
ATOM      8  C   UNL     1       3.360   3.823  17.533  0.00  0.00    +0.000 A 
ATOM      9  C   UNL     1       2.989   2.487  17.652  0.00  0.00    +0.000 A 
ATOM     10  C   UNL     1       1.882   2.091  18.404  0.00  0.00    +0.000 A 
ATOM     11  C   UNL     1       1.118   3.047  19.049  0.00  0.00    +0.000 A 
ATOM     12  C   UNL     1       1.468   4.392  18.940  0.00  0.00    +0.000 A 
ATOM     13  C   UNL     1       2.600   4.811  18.193  0.00  0.00    +0.000 A 
ENDBRANCH   1   3
BRANCH   1  14
ATOM     14  O   UNL     1       1.614   8.014  17.887  0.00  0.00    +0.000 OA
BRANCH  14  15
ATOM     15  C   UNL     1       1.755   9.426  18.078  0.00  0.00    +0.000 C 
BRANCH  15  17
ATOM     16  O   UNL     1       0.902  10.224  20.196  0.00  0.00    +0.000 OA
ATOM     17  C   UNL     1       0.689  10.013  19.002  0.00  0.00    +0.000 C 
BRANCH  17  18
ATOM     18  C   UNL     1      -0.645  10.370  18.424  0.00  0.00    +0.000 A 
ATOM     19  C   UNL     1      -1.393  11.376  19.056  0.00  0.00    +0.000 A 
ATOM     20  C   UNL     1      -2.648  11.747  18.563  0.00  0.00    +0.000 A 
ATOM     21  C   UNL     1      -3.162  11.112  17.436  0.00  0.00    +0.000 A 
ATOM     22 CL   UNL     1      -4.713  11.551  16.838  0.00  0.00    +0.000 Cl
ATOM     23  C   UNL     1      -2.427  10.116  16.794  0.00  0.00    +0.000 A 
ATOM     24  C   UNL     1      -1.168   9.746  17.284  0.00  0.00    +0.000 A 
ENDBRANCH  17  18
ENDBRANCH  15  17
ENDBRANCH  14  15
ENDBRANCH   1  14
TORSDOF 5
ENDMDL
MODEL 5
REMARK VINA RESULT:      -7.4      2.905      6.758
REMARK  Name = 
REMARK  5 active torsions:
REMARK  status: ('A' for Active; 'I' for Inactive)
REMARK    1  A    between atoms: C_2  and  C_3
REMARK    2  A    between atoms: C_2  and  C_18
REMARK    3  A    between atoms: C_3  and  O_4
REMARK    4  A    between atoms: O_4  and  C_5
REMARK    5  A    between atoms: C_5  and  C_7
REMARK                            x       y       z     vdW  Elec       q    Type
REMARK                         _______ _______ _______ _____ _____    ______ ____
ROOT
ATOM      1  C   UNL     1       6.012   4.995  18.775  0.00  0.00    +0.000 C 
ATOM      2  O   UNL     1       6.634   5.243  19.796  0.00  0.00    +0.000 OA
ENDROOT
BRANCH   1   3
ATOM      3  C   UNL     1       4.548   5.205  18.607  0.00  0.00    +0.000 A 
ATOM      4  C   UNL     1       4.077   6.503  18.408  0.00  0.00    +0.000 A 
ATOM      5  C   UNL     1       2.732   6.661  18.191  0.00  0.00    +0.000 A 
ATOM      6 CL   UNL     1       2.059   8.213  17.903  0.00  0.00    +0.000 Cl
ATOM      7  N   UNL     1       1.838   5.656  18.162  0.00  0.00    +0.000 NA
ATOM      8  C   UNL     1       2.286   4.408  18.357  0.00  0.00    +0.000 A 
ATOM      9  C   UNL     1       1.355   3.376  18.317  0.00  0.00    +0.000 A 
ATOM     10  C   UNL     1       1.718   2.043  18.507  0.00  0.00    +0.000 A 
ATOM     11  C   UNL     1       3.043   1.725  18.751  0.00  0.00    +0.000 A 
ATOM     12  C   UNL     1       3.993   2.744  18.800  0.00  0.00    +0.000 A 
ATOM     13  C   UNL     1       3.643   4.104  18.592  0.00  0.00    +0.000 A 
ENDBRANCH   1   3
BRANCH   1  14
ATOM     14  O   UNL     1       6.570   4.531  17.626  0.00  0.00    +0.000 OA
BRANCH  14  15
ATOM     15  C   UNL     1       7.142   5.563  16.815  0.00  0.00    +0.000 C 
BRANCH  15  17
ATOM     16  O   UNL     1       5.600   6.912  15.528  0.00  0.00    +0.000 OA
ATOM     17  C   UNL     1       6.293   5.897  15.588  0.00  0.00    +0.000 C 
BRANCH  17  18
ATOM     18  C   UNL     1       6.336   4.970  14.412  0.00  0.00    +0.000 A 
ATOM     19  C   UNL     1       5.279   4.060  14.246  0.00  0.00    +0.000 A 
ATOM     20  C   UNL     1       5.270   3.168  13.169  0.00  0.00    +0.000 A 
ATOM     21  C   UNL     1       6.319   3.180  12.254  0.00  0.00    +0.000 A 
ATOM     22 CL   UNL     1       6.322   2.071  10.940  0.00  0.00    +0.000 Cl
ATOM     23  C   UNL     1       7.372   4.082  12.403  0.00  0.00    +0.000 A 
ATOM     24  C   UNL     1       7.381   4.980  13.479  0.00  0.00    +0.000 A 
ENDBRANCH  17  18
ENDBRANCH  15  17
ENDBRANCH  14  15
ENDBRANCH   1  14
TORSDOF 5
ENDMDL
MODEL 6
REMARK VINA RESULT:      -7.4      1.110      1.590
REMARK  Name = 
REMARK  5 active torsions:
REMARK  status: ('A' for Active; 'I' for Inactive)
REMARK    1  A    between atoms: C_2  and  C_3
REMARK    2  A    between atoms: C_2  and  C_18
REMARK    3  A    between atoms: C_3  and  O_4
REMARK    4  A    between atoms: O_4  and  C_5
REMARK    5  A    between atoms: C_5  and  C_7
REMARK                            x       y       z     vdW  Elec       q    Type
REMARK                         _______ _______ _______ _____ _____    ______ ____
ROOT
ATOM      1  C   UNL     1       4.929   4.125  18.888  0.00  0.00    +0.000 C 
ATOM      2  O   UNL     1       5.298   3.230  19.631  0.00  0.00    +0.000 OA
ENDROOT
BRANCH   1   3
ATOM      3  C   UNL     1       5.838   4.950  18.046  0.00  0.00    +0.000 A 
ATOM      4  C   UNL     1       6.575   5.966  18.656  0.00  0.00    +0.000 A 
ATOM      5  C   UNL     1       7.454   6.668  17.870  0.00  0.00    +0.000 A 
ATOM      6 CL   UNL     1       8.430   7.915  18.532  0.00  0.00    +0.000 Cl
ATOM      7  N   UNL     1       7.649   6.450  16.557  0.00  0.00    +0.000 NA
ATOM      8  C   UNL     1       6.940   5.477  15.967  0.00  0.00    +0.000 A 
ATOM      9  C   UNL     1       7.156   5.255  14.611  0.00  0.00    +0.000 A 
ATOM     10  C   UNL     1       6.469   4.268  13.904  0.00  0.00    +0.000 A 
ATOM     11  C   UNL     1       5.536   3.483  14.560  0.00  0.00    +0.000 A 
ATOM     12  C   UNL     1       5.301   3.691  15.918  0.00  0.00    +0.000 A 
ATOM     13  C   UNL     1       6.002   4.681  16.656  0.00  0.00    +0.000 A 
ENDBRANCH   1   3
BRANCH   1  14
ATOM     14  O   UNL     1       3.632   4.474  18.685  0.00  0.00    +0.000 OA
BRANCH  14  15
ATOM     15  C   UNL     1       3.426   5.890  18.629  0.00  0.00    +0.000 C 
BRANCH  15  17
ATOM     16  O   UNL     1       2.056   5.689  20.613  0.00  0.00    +0.000 OA
ATOM     17  C   UNL     1       2.422   6.388  19.669  0.00  0.00    +0.000 C 
BRANCH  17  18
ATOM     18  C   UNL     1       1.896   7.784  19.547  0.00  0.00    +0.000 A 
ATOM     19  C   UNL     1       2.037   8.440  18.313  0.00  0.00    +0.000 A 
ATOM     20  C   UNL     1       1.569   9.747  18.143  0.00  0.00    +0.000 A 
ATOM     21  C   UNL     1       0.960  10.406  19.207  0.00  0.00    +0.000 A 
ATOM     22 CL   UNL     1       0.402  12.020  19.009  0.00  0.00    +0.000 Cl
ATOM     23  C   UNL     1       0.807   9.765  20.436  0.00  0.00    +0.000 A 
ATOM     24  C   UNL     1       1.272   8.454  20.607  0.00  0.00    +0.000 A 
ENDBRANCH  17  18
ENDBRANCH  15  17
ENDBRANCH  14  15
ENDBRANCH   1  14
TORSDOF 5
ENDMDL
MODEL 7
REMARK VINA RESULT:      -7.3      1.917      2.493
REMARK  Name = 
REMARK  5 active torsions:
REMARK  status: ('A' for Active; 'I' for Inactive)
REMARK    1  A    between atoms: C_2  and  C_3
REMARK    2  A    between atoms: C_2  and  C_18
REMARK    3  A    between atoms: C_3  and  O_4
REMARK    4  A    between atoms: O_4  and  C_5
REMARK    5  A    between atoms: C_5  and  C_7
REMARK                            x       y       z     vdW  Elec       q    Type
REMARK                         _______ _______ _______ _____ _____    ______ ____
ROOT
ATOM      1  C   UNL     1       4.116   3.497  16.575  0.00  0.00    +0.000 C 
ATOM      2  O   UNL     1       2.949   3.839  16.467  0.00  0.00    +0.000 OA
ENDROOT
BRANCH   1   3
ATOM      3  C   UNL     1       5.281   4.334  16.177  0.00  0.00    +0.000 A 
ATOM      4  C   UNL     1       5.869   5.160  17.135  0.00  0.00    +0.000 A 
ATOM      5  C   UNL     1       6.981   5.872  16.760  0.00  0.00    +0.000 A 
ATOM      6 CL   UNL     1       7.796   6.891  17.875  0.00  0.00    +0.000 Cl
ATOM      7  N   UNL     1       7.537   5.833  15.536  0.00  0.00    +0.000 NA
ATOM      8  C   UNL     1       6.972   5.044  14.612  0.00  0.00    +0.000 A 
ATOM      9  C   UNL     1       7.560   5.004  13.352  0.00  0.00    +0.000 A 
ATOM     10  C   UNL     1       7.050   4.215  12.321  0.00  0.00    +0.000 A 
ATOM     11  C   UNL     1       5.920   3.449  12.544  0.00  0.00    +0.000 A 
ATOM     12  C   UNL     1       5.311   3.476  13.798  0.00  0.00    +0.000 A 
ATOM     13  C   UNL     1       5.826   4.260  14.863  0.00  0.00    +0.000 A 
ENDBRANCH   1   3
BRANCH   1  14
ATOM     14  O   UNL     1       4.529   2.320  17.115  0.00  0.00    +0.000 OA
BRANCH  14  15
ATOM     15  C   UNL     1       3.690   1.857  18.179  0.00  0.00    +0.000 C 
BRANCH  15  17
ATOM     16  O   UNL     1       4.846   2.100  20.290  0.00  0.00    +0.000 OA
ATOM     17  C   UNL     1       3.994   2.534  19.515  0.00  0.00    +0.000 C 
BRANCH  17  18
ATOM     18  C   UNL     1       3.249   3.783  19.873  0.00  0.00    +0.000 A 
ATOM     19  C   UNL     1       1.950   3.655  20.391  0.00  0.00    +0.000 A 
ATOM     20  C   UNL     1       1.206   4.787  20.738  0.00  0.00    +0.000 A 
ATOM     21  C   UNL     1       1.757   6.054  20.564  0.00  0.00    +0.000 A 
ATOM     22 CL   UNL     1       0.838   7.450  20.969  0.00  0.00    +0.000 Cl
ATOM     23  C   UNL     1       3.048   6.196  20.057  0.00  0.00    +0.000 A 
ATOM     24  C   UNL     1       3.796   5.063  19.713  0.00  0.00    +0.000 A 
ENDBRANCH  17  18
ENDBRANCH  15  17
ENDBRANCH  14  15
ENDBRANCH   1  14
TORSDOF 5
ENDMDL
MODEL 8
REMARK VINA RESULT:      -7.3      1.213      1.452
REMARK  Name = 
REMARK  5 active torsions:
REMARK  status: ('A' for Active; 'I' for Inactive)
REMARK    1  A    between atoms: C_2  and  C_3
REMARK    2  A    between atoms: C_2  and  C_18
REMARK    3  A    between atoms: C_3  and  O_4
REMARK    4  A    between atoms: O_4  and  C_5
REMARK    5  A    between atoms: C_5  and  C_7
REMARK                            x       y       z     vdW  Elec       q    Type
REMARK                         _______ _______ _______ _____ _____    ______ ____
ROOT
ATOM      1  C   UNL     1       3.728   3.812  18.020  0.00  0.00    +0.000 C 
ATOM      2  O   UNL     1       3.523   2.711  18.504  0.00  0.00    +0.000 OA
ENDROOT
BRANCH   1   3
ATOM      3  C   UNL     1       5.077   4.364  17.720  0.00  0.00    +0.000 A 
ATOM      4  C   UNL     1       5.871   4.803  18.780  0.00  0.00    +0.000 A 
ATOM      5  C   UNL     1       7.135   5.246  18.482  0.00  0.00    +0.000 A 
ATOM      6 CL   UNL     1       8.201   5.776  19.718  0.00  0.00    +0.000 Cl
ATOM      7  N   UNL     1       7.658   5.291  17.243  0.00  0.00    +0.000 NA
ATOM      8  C   UNL     1       6.897   4.875  16.222  0.00  0.00    +0.000 A 
ATOM      9  C   UNL     1       7.450   4.918  14.946  0.00  0.00    +0.000 A 
ATOM     10  C   UNL     1       6.742   4.507  13.817  0.00  0.00    +0.000 A 
ATOM     11  C   UNL     1       5.444   4.046  13.957  0.00  0.00    +0.000 A 
ATOM     12  C   UNL     1       4.868   3.997  15.225  0.00  0.00    +0.000 A 
ATOM     13  C   UNL     1       5.580   4.396  16.386  0.00  0.00    +0.000 A 
ENDBRANCH   1   3
BRANCH   1  14
ATOM     14  O   UNL     1       2.754   4.683  17.644  0.00  0.00    +0.000 OA
BRANCH  14  15
ATOM     15  C   UNL     1       2.422   5.637  18.659  0.00  0.00    +0.000 C 
BRANCH  15  17
ATOM     16  O   UNL     1       3.696   7.332  17.495  0.00  0.00    +0.000 OA
ATOM     17  C   UNL     1       2.774   7.072  18.267  0.00  0.00    +0.000 C 
BRANCH  17  18
ATOM     18  C   UNL     1       1.946   8.190  18.820  0.00  0.00    +0.000 A 
ATOM     19  C   UNL     1       1.631   8.168  20.189  0.00  0.00    +0.000 A 
ATOM     20  C   UNL     1       0.857   9.183  20.759  0.00  0.00    +0.000 A 
ATOM     21  C   UNL     1       0.391  10.225  19.962  0.00  0.00    +0.000 A 
ATOM     22 CL   UNL     1      -0.579  11.465  20.654  0.00  0.00    +0.000 Cl
ATOM     23  C   UNL     1       0.701  10.264  18.603  0.00  0.00    +0.000 A 
ATOM     24  C   UNL     1       1.481   9.250  18.031  0.00  0.00    +0.000 A 
ENDBRANCH  17  18
ENDBRANCH  15  17
ENDBRANCH  14  15
ENDBRANCH   1  14
TORSDOF 5
ENDMDL
MODEL 9
REMARK VINA RESULT:      -7.3      3.080      6.865
REMARK  Name = 
REMARK  5 active torsions:
REMARK  status: ('A' for Active; 'I' for Inactive)
REMARK    1  A    between atoms: C_2  and  C_3
REMARK    2  A    between atoms: C_2  and  C_18
REMARK    3  A    between atoms: C_3  and  O_4
REMARK    4  A    between atoms: O_4  and  C_5
REMARK    5  A    between atoms: C_5  and  C_7
REMARK                            x       y       z     vdW  Elec       q    Type
REMARK                         _______ _______ _______ _____ _____    ______ ____
ROOT
ATOM      1  C   UNL     1       4.371   6.317  17.783  0.00  0.00    +0.000 C 
ATOM      2  O   UNL     1       4.194   6.765  16.661  0.00  0.00    +0.000 OA
ENDROOT
BRANCH   1   3
ATOM      3  C   UNL     1       3.279   5.948  18.725  0.00  0.00    +0.000 A 
ATOM      4  C   UNL     1       2.802   6.916  19.608  0.00  0.00    +0.000 A 
ATOM      5  C   UNL     1       1.751   6.569  20.421  0.00  0.00    +0.000 A 
ATOM      6 CL   UNL     1       1.071   7.699  21.518  0.00  0.00    +0.000 Cl
ATOM      7  N   UNL     1       1.156   5.362  20.427  0.00  0.00    +0.000 NA
ATOM      8  C   UNL     1       1.615   4.428  19.583  0.00  0.00    +0.000 A 
ATOM      9  C   UNL     1       0.986   3.187  19.593  0.00  0.00    +0.000 A 
ATOM     10  C   UNL     1       1.387   2.148  18.753  0.00  0.00    +0.000 A 
ATOM     11  C   UNL     1       2.446   2.343  17.883  0.00  0.00    +0.000 A 
ATOM     12  C   UNL     1       3.093   3.577  17.859  0.00  0.00    +0.000 A 
ATOM     13  C   UNL     1       2.688   4.651  18.695  0.00  0.00    +0.000 A 
ENDBRANCH   1   3
BRANCH   1  14
ATOM     14  O   UNL     1       5.588   6.050  18.324  0.00  0.00    +0.000 OA
BRANCH  14  15
ATOM     15  C   UNL     1       6.328   5.062  17.599  0.00  0.00    +0.000 C 
BRANCH  15  17
ATOM     16  O   UNL     1       7.660   6.577  16.263  0.00  0.00    +0.000 OA
ATOM     17  C   UNL     1       6.916   5.597  16.293  0.00  0.00    +0.000 C 
BRANCH  17  18
ATOM     18  C   UNL     1       6.598   4.881  15.017  0.00  0.00    +0.000 A 
ATOM     19  C   UNL     1       5.413   4.130  14.955  0.00  0.00    +0.000 A 
ATOM     20  C   UNL     1       5.068   3.437  13.791  0.00  0.00    +0.000 A 
ATOM     21  C   UNL     1       5.909   3.488  12.683  0.00  0.00    +0.000 A 
ATOM     22 CL   UNL     1       5.499   2.620  11.256  0.00  0.00    +0.000 Cl
ATOM     23  C   UNL     1       7.086   4.235  12.727  0.00  0.00    +0.000 A 
ATOM     24  C   UNL     1       7.431   4.933  13.891  0.00  0.00    +0.000 A 
ENDBRANCH  17  18
ENDBRANCH  15  17
ENDBRANCH  14  15
ENDBRANCH   1  14
TORSDOF 5
ENDMDL
