MODEL 1
REMARK VINA RESULT:      -5.3      0.000      0.000
REMARK  Name = 
REMARK  30 active torsions:
REMARK  status: ('A' for Active; 'I' for Inactive)
REMARK    1  A    between atoms: C_1  and  C_2
REMARK    2  A    between atoms: C_2  and  C_3
REMARK    3  A    between atoms: C_3  and  C_4
REMARK    4  A    between atoms: C_4  and  C_5
REMARK    5  A    between atoms: C_5  and  C_6
REMARK    6  A    between atoms: C_6  and  C_7
REMARK    7  A    between atoms: C_7  and  C_8
REMARK    8  A    between atoms: C_8  and  C_9
REMARK    9  A    between atoms: C_9  and  C_10
REMARK   10  A    between atoms: C_10  and  C_11
REMARK   11  A    between atoms: C_11  and  C_12
REMARK   12  A    between atoms: C_12  and  C_13
REMARK   13  A    between atoms: C_13  and  C_14
REMARK   14  A    between atoms: C_14  and  C_15
REMARK   15  A    between atoms: C_15  and  C_16
REMARK   16  A    between atoms: C_16  and  C_17
REMARK   17  A    between atoms: C_17  and  C_18
REMARK   18  A    between atoms: C_18  and  C_19
REMARK   19  A    between atoms: C_20  and  C_21
REMARK   20  A    between atoms: C_21  and  C_22
REMARK   21  A    between atoms: C_22  and  C_23
REMARK   22  A    between atoms: C_23  and  C_24
REMARK   23  A    between atoms: C_24  and  C_25
REMARK   24  A    between atoms: C_25  and  C_26
REMARK   25  A    between atoms: C_26  and  C_27
REMARK   26  A    between atoms: C_27  and  C_28
REMARK   27  A    between atoms: C_28  and  C_29
REMARK   28  A    between atoms: C_29  and  C_30
REMARK   29  A    between atoms: C_30  and  C_31
REMARK   30  A    between atoms: C_31  and  O_33
REMARK                            x       y       z     vdW  Elec       q    Type
REMARK                         _______ _______ _______ _____ _____    ______ ____
ROOT
ATOM      1  C   UNL     1       1.919   2.226  18.151  0.00  0.00    +0.000 C 
ENDROOT
BRANCH   1   2
ATOM      2  C   UNL     1       3.284   2.501  17.532  0.00  0.00    +0.000 C 
BRANCH   2   3
ATOM      3  C   UNL     1       3.524   3.952  17.381  0.00  0.00    +0.000 C 
ATOM      4  C   UNL     1       3.716   5.131  17.259  0.00  0.00    +0.000 C 
BRANCH   4   5
ATOM      5  C   UNL     1       3.947   6.584  17.112  0.00  0.00    +0.000 C 
BRANCH   5   6
ATOM      6  C   UNL     1       5.032   7.071  18.065  0.00  0.00    +0.000 C 
BRANCH   6   7
ATOM      7  C   UNL     1       6.315   7.438  17.316  0.00  0.00    +0.000 C 
BRANCH   7   8
ATOM      8  C   UNL     1       7.506   6.683  17.896  0.00  0.00    +0.000 C 
BRANCH   8   9
ATOM      9  C   UNL     1       7.212   5.191  17.987  0.00  0.00    +0.000 C 
BRANCH   9  10
ATOM     10  C   UNL     1       7.681   4.485  16.732  0.00  0.00    +0.000 C 
BRANCH  10  11
ATOM     11  C   UNL     1       6.492   4.098  15.860  0.00  0.00    +0.000 C 
BRANCH  11  12
ATOM     12  C   UNL     1       6.631   4.706  14.468  0.00  0.00    +0.000 C 
BRANCH  12  13
ATOM     13  C   UNL     1       6.069   3.759  13.419  0.00  0.00    +0.000 C 
BRANCH  13  14
ATOM     14  C   UNL     1       6.915   3.736  12.155  0.00  0.00    +0.000 C 
BRANCH  14  15
ATOM     15  C   UNL     1       6.816   2.365  11.509  0.00  0.00    +0.000 C 
ATOM     16  O   UNL     1       7.687   1.860  10.821  0.00  0.00    +0.000 OA
BRANCH  15  17
ATOM     17  O   UNL     1       5.636   1.728  11.773  0.00  0.00    +0.000 OA
ATOM     18  H   UNL     1       4.822   2.198  11.517  0.00  0.00    +0.000 HD
ENDBRANCH  15  17
ENDBRANCH  14  15
ENDBRANCH  13  14
ENDBRANCH  12  13
ENDBRANCH  11  12
ENDBRANCH  10  11
ENDBRANCH   9  10
ENDBRANCH   8   9
ENDBRANCH   7   8
ENDBRANCH   6   7
ENDBRANCH   5   6
ENDBRANCH   4   5
ENDBRANCH   2   3
ENDBRANCH   1   2
BRANCH   1  19
ATOM     19  C   UNL     1       2.028   1.940  19.646  0.00  0.00    +0.000 C 
BRANCH  19  20
ATOM     20  C   UNL     1       1.099   2.861  20.433  0.00  0.00    +0.000 C 
BRANCH  20  21
ATOM     21  C   UNL     1       1.152   4.275  19.880  0.00  0.00    +0.000 C 
BRANCH  21  22
ATOM     22  C   UNL     1       1.976   5.165  20.798  0.00  0.00    +0.000 C 
BRANCH  22  23
ATOM     23  C   UNL     1       2.068   6.566  20.220  0.00  0.00    +0.000 C 
BRANCH  23  24
ATOM     24  C   UNL     1       1.100   7.488  20.937  0.00  0.00    +0.000 C 
BRANCH  24  25
ATOM     25  C   UNL     1       1.342   8.924  20.513  0.00  0.00    +0.000 C 
BRANCH  25  26
ATOM     26  C   UNL     1       1.389   9.014  18.999  0.00  0.00    +0.000 C 
BRANCH  26  27
ATOM     27  C   UNL     1       0.309   9.956  18.504  0.00  0.00    +0.000 C 
BRANCH  27  28
ATOM     28  C   UNL     1      -0.537  10.430  19.671  0.00  0.00    +0.000 C 
BRANCH  28  29
ATOM     29  C   UNL     1      -0.556  11.946  19.712  0.00  0.00    +0.000 C 
BRANCH  29  30
ATOM     30  C   UNL     1      -1.641  12.425  20.661  0.00  0.00    +0.000 C 
BRANCH  30  31
ATOM     31  C   UNL     1      -1.095  12.499  22.076  0.00  0.00    +0.000 C 
BRANCH  31  32
ATOM     32  C   UNL     1      -2.030  11.778  23.033  0.00  0.00    +0.000 C 
BRANCH  32  34
ATOM     33  C   UNL     1      -2.416  14.097  23.864  0.00  0.00    +0.000 C 
ATOM     34  C   UNL     1      -3.053  12.747  23.608  0.00  0.00    +0.000 C 
ENDBRANCH  32  34
ENDBRANCH  31  32
ENDBRANCH  30  31
ENDBRANCH  29  30
ENDBRANCH  28  29
ENDBRANCH  27  28
ENDBRANCH  26  27
ENDBRANCH  25  26
ENDBRANCH  24  25
ENDBRANCH  23  24
ENDBRANCH  22  23
ENDBRANCH  21  22
ENDBRANCH  20  21
ENDBRANCH  19  20
ENDBRANCH   1  19
TORSDOF 29
ENDMDL
MODEL 2
REMARK VINA RESULT:      -5.2      2.794      6.279
REMARK  Name = 
REMARK  30 active torsions:
REMARK  status: ('A' for Active; 'I' for Inactive)
REMARK    1  A    between atoms: C_1  and  C_2
REMARK    2  A    between atoms: C_2  and  C_3
REMARK    3  A    between atoms: C_3  and  C_4
REMARK    4  A    between atoms: C_4  and  C_5
REMARK    5  A    between atoms: C_5  and  C_6
REMARK    6  A    between atoms: C_6  and  C_7
REMARK    7  A    between atoms: C_7  and  C_8
REMARK    8  A    between atoms: C_8  and  C_9
REMARK    9  A    between atoms: C_9  and  C_10
REMARK   10  A    between atoms: C_10  and  C_11
REMARK   11  A    between atoms: C_11  and  C_12
REMARK   12  A    between atoms: C_12  and  C_13
REMARK   13  A    between atoms: C_13  and  C_14
REMARK   14  A    between atoms: C_14  and  C_15
REMARK   15  A    between atoms: C_15  and  C_16
REMARK   16  A    between atoms: C_16  and  C_17
REMARK   17  A    between atoms: C_17  and  C_18
REMARK   18  A    between atoms: C_18  and  C_19
REMARK   19  A    between atoms: C_20  and  C_21
REMARK   20  A    between atoms: C_21  and  C_22
REMARK   21  A    between atoms: C_22  and  C_23
REMARK   22  A    between atoms: C_23  and  C_24
REMARK   23  A    between atoms: C_24  and  C_25
REMARK   24  A    between atoms: C_25  and  C_26
REMARK   25  A    between atoms: C_26  and  C_27
REMARK   26  A    between atoms: C_27  and  C_28
REMARK   27  A    between atoms: C_28  and  C_29
REMARK   28  A    between atoms: C_29  and  C_30
REMARK   29  A    between atoms: C_30  and  C_31
REMARK   30  A    between atoms: C_31  and  O_33
REMARK                            x       y       z     vdW  Elec       q    Type
REMARK                         _______ _______ _______ _____ _____    ______ ____
ROOT
ATOM      1  C   UNL     1       2.162   9.521  17.859  0.00  0.00    +0.000 C 
ENDROOT
BRANCH   1   2
ATOM      2  C   UNL     1       2.458   8.058  17.552  0.00  0.00    +0.000 C 
BRANCH   2   3
ATOM      3  C   UNL     1       2.298   7.213  18.754  0.00  0.00    +0.000 C 
ATOM      4  C   UNL     1       2.163   6.527  19.731  0.00  0.00    +0.000 C 
BRANCH   4   5
ATOM      5  C   UNL     1       1.993   5.684  20.933  0.00  0.00    +0.000 C 
BRANCH   5   6
ATOM      6  C   UNL     1       2.526   4.275  20.701  0.00  0.00    +0.000 C 
BRANCH   6   7
ATOM      7  C   UNL     1       1.502   3.212  21.103  0.00  0.00    +0.000 C 
BRANCH   7   8
ATOM      8  C   UNL     1       1.308   2.202  19.978  0.00  0.00    +0.000 C 
BRANCH   8   9
ATOM      9  C   UNL     1       1.157   2.907  18.635  0.00  0.00    +0.000 C 
BRANCH   9  10
ATOM     10  C   UNL     1       2.304   2.537  17.716  0.00  0.00    +0.000 C 
BRANCH  10  11
ATOM     11  C   UNL     1       2.811   3.767  16.971  0.00  0.00    +0.000 C 
BRANCH  11  12
ATOM     12  C   UNL     1       4.327   3.880  17.100  0.00  0.00    +0.000 C 
BRANCH  12  13
ATOM     13  C   UNL     1       4.777   5.302  16.803  0.00  0.00    +0.000 C 
BRANCH  13  14
ATOM     14  C   UNL     1       5.800   5.802  17.812  0.00  0.00    +0.000 C 
BRANCH  14  15
ATOM     15  C   UNL     1       7.180   5.790  17.177  0.00  0.00    +0.000 C 
ATOM     16  O   UNL     1       7.663   6.723  16.558  0.00  0.00    +0.000 OA
BRANCH  15  17
ATOM     17  O   UNL     1       7.851   4.615  17.365  0.00  0.00    +0.000 OA
ATOM     18  H   UNL     1       7.773   3.952  16.656  0.00  0.00    +0.000 HD
ENDBRANCH  15  17
ENDBRANCH  14  15
ENDBRANCH  13  14
ENDBRANCH  12  13
ENDBRANCH  11  12
ENDBRANCH  10  11
ENDBRANCH   9  10
ENDBRANCH   8   9
ENDBRANCH   7   8
ENDBRANCH   6   7
ENDBRANCH   5   6
ENDBRANCH   4   5
ENDBRANCH   2   3
ENDBRANCH   1   2
BRANCH   1  19
ATOM     19  C   UNL     1       0.727   9.715  18.340  0.00  0.00    +0.000 C 
BRANCH  19  20
ATOM     20  C   UNL     1       0.412  11.201  18.487  0.00  0.00    +0.000 C 
BRANCH  20  21
ATOM     21  C   UNL     1       1.481  11.897  19.312  0.00  0.00    +0.000 C 
BRANCH  21  22
ATOM     22  C   UNL     1       1.910  13.188  18.631  0.00  0.00    +0.000 C 
BRANCH  22  23
ATOM     23  C   UNL     1       0.818  14.234  18.765  0.00  0.00    +0.000 C 
BRANCH  23  24
ATOM     24  C   UNL     1       0.960  14.967  20.086  0.00  0.00    +0.000 C 
BRANCH  24  25
ATOM     25  C   UNL     1      -0.140  14.537  21.037  0.00  0.00    +0.000 C 
BRANCH  25  26
ATOM     26  C   UNL     1      -1.412  14.252  20.262  0.00  0.00    +0.000 C 
BRANCH  26  27
ATOM     27  C   UNL     1      -2.484  13.732  21.200  0.00  0.00    +0.000 C 
BRANCH  27  28
ATOM     28  C   UNL     1      -3.059  12.436  20.659  0.00  0.00    +0.000 C 
BRANCH  28  29
ATOM     29  C   UNL     1      -4.020  12.733  19.524  0.00  0.00    +0.000 C 
BRANCH  29  30
ATOM     30  C   UNL     1      -4.865  11.507  19.227  0.00  0.00    +0.000 C 
BRANCH  30  31
ATOM     31  C   UNL     1      -4.690  11.096  17.776  0.00  0.00    +0.000 C 
BRANCH  31  32
ATOM     32  C   UNL     1      -3.422  10.274  17.616  0.00  0.00    +0.000 C 
BRANCH  32  34
ATOM     33  C   UNL     1      -3.204  10.649  15.161  0.00  0.00    +0.000 C 
ATOM     34  C   UNL     1      -2.549  10.850  16.512  0.00  0.00    +0.000 C 
ENDBRANCH  32  34
ENDBRANCH  31  32
ENDBRANCH  30  31
ENDBRANCH  29  30
ENDBRANCH  28  29
ENDBRANCH  27  28
ENDBRANCH  26  27
ENDBRANCH  25  26
ENDBRANCH  24  25
ENDBRANCH  23  24
ENDBRANCH  22  23
ENDBRANCH  21  22
ENDBRANCH  20  21
ENDBRANCH  19  20
ENDBRANCH   1  19
TORSDOF 29
ENDMDL
MODEL 3
REMARK VINA RESULT:      -5.1      6.485      9.433
REMARK  Name = 
REMARK  30 active torsions:
REMARK  status: ('A' for Active; 'I' for Inactive)
REMARK    1  A    between atoms: C_1  and  C_2
REMARK    2  A    between atoms: C_2  and  C_3
REMARK    3  A    between atoms: C_3  and  C_4
REMARK    4  A    between atoms: C_4  and  C_5
REMARK    5  A    between atoms: C_5  and  C_6
REMARK    6  A    between atoms: C_6  and  C_7
REMARK    7  A    between atoms: C_7  and  C_8
REMARK    8  A    between atoms: C_8  and  C_9
REMARK    9  A    between atoms: C_9  and  C_10
REMARK   10  A    between atoms: C_10  and  C_11
REMARK   11  A    between atoms: C_11  and  C_12
REMARK   12  A    between atoms: C_12  and  C_13
REMARK   13  A    between atoms: C_13  and  C_14
REMARK   14  A    between atoms: C_14  and  C_15
REMARK   15  A    between atoms: C_15  and  C_16
REMARK   16  A    between atoms: C_16  and  C_17
REMARK   17  A    between atoms: C_17  and  C_18
REMARK   18  A    between atoms: C_18  and  C_19
REMARK   19  A    between atoms: C_20  and  C_21
REMARK   20  A    between atoms: C_21  and  C_22
REMARK   21  A    between atoms: C_22  and  C_23
REMARK   22  A    between atoms: C_23  and  C_24
REMARK   23  A    between atoms: C_24  and  C_25
REMARK   24  A    between atoms: C_25  and  C_26
REMARK   25  A    between atoms: C_26  and  C_27
REMARK   26  A    between atoms: C_27  and  C_28
REMARK   27  A    between atoms: C_28  and  C_29
REMARK   28  A    between atoms: C_29  and  C_30
REMARK   29  A    between atoms: C_30  and  C_31
REMARK   30  A    between atoms: C_31  and  O_33
REMARK                            x       y       z     vdW  Elec       q    Type
REMARK                         _______ _______ _______ _____ _____    ______ ____
ROOT
ATOM      1  C   UNL     1       8.275   9.524  18.116  0.00  0.00    +0.000 C 
ENDROOT
BRANCH   1   2
ATOM      2  C   UNL     1       8.276   8.012  18.305  0.00  0.00    +0.000 C 
BRANCH   2   3
ATOM      3  C   UNL     1       7.234   7.366  17.480  0.00  0.00    +0.000 C 
ATOM      4  C   UNL     1       6.384   6.841  16.812  0.00  0.00    +0.000 C 
BRANCH   4   5
ATOM      5  C   UNL     1       5.334   6.198  15.994  0.00  0.00    +0.000 C 
BRANCH   5   6
ATOM      6  C   UNL     1       4.483   5.251  16.832  0.00  0.00    +0.000 C 
BRANCH   6   7
ATOM      7  C   UNL     1       5.312   4.091  17.387  0.00  0.00    +0.000 C 
BRANCH   7   8
ATOM      8  C   UNL     1       5.149   3.992  18.899  0.00  0.00    +0.000 C 
BRANCH   8   9
ATOM      9  C   UNL     1       4.603   2.627  19.300  0.00  0.00    +0.000 C 
BRANCH   9  10
ATOM     10  C   UNL     1       3.873   1.991  18.135  0.00  0.00    +0.000 C 
BRANCH  10  11
ATOM     11  C   UNL     1       2.431   1.675  18.515  0.00  0.00    +0.000 C 
BRANCH  11  12
ATOM     12  C   UNL     1       1.580   2.941  18.475  0.00  0.00    +0.000 C 
BRANCH  12  13
ATOM     13  C   UNL     1       0.614   2.966  19.649  0.00  0.00    +0.000 C 
BRANCH  13  14
ATOM     14  C   UNL     1       0.722   4.253  20.452  0.00  0.00    +0.000 C 
BRANCH  14  15
ATOM     15  C   UNL     1       2.003   4.232  21.267  0.00  0.00    +0.000 C 
ATOM     16  O   UNL     1       2.343   3.315  21.996  0.00  0.00    +0.000 OA
BRANCH  15  17
ATOM     17  O   UNL     1       2.764   5.356  21.108  0.00  0.00    +0.000 OA
ATOM     18  H   UNL     1       2.456   5.998  20.443  0.00  0.00    +0.000 HD
ENDBRANCH  15  17
ENDBRANCH  14  15
ENDBRANCH  13  14
ENDBRANCH  12  13
ENDBRANCH  11  12
ENDBRANCH  10  11
ENDBRANCH   9  10
ENDBRANCH   8   9
ENDBRANCH   7   8
ENDBRANCH   6   7
ENDBRANCH   5   6
ENDBRANCH   4   5
ENDBRANCH   2   3
ENDBRANCH   1   2
BRANCH   1  19
ATOM     19  C   UNL     1       9.310  10.202  19.009  0.00  0.00    +0.000 C 
BRANCH  19  20
ATOM     20  C   UNL     1      10.086  11.253  18.221  0.00  0.00    +0.000 C 
BRANCH  20  21
ATOM     21  C   UNL     1      10.661  12.307  19.153  0.00  0.00    +0.000 C 
BRANCH  21  22
ATOM     22  C   UNL     1      10.936  11.701  20.520  0.00  0.00    +0.000 C 
BRANCH  22  23
ATOM     23  C   UNL     1      10.196  12.479  21.593  0.00  0.00    +0.000 C 
BRANCH  23  24
ATOM     24  C   UNL     1       9.862  13.870  21.088  0.00  0.00    +0.000 C 
BRANCH  24  25
ATOM     25  C   UNL     1       9.637  14.806  22.260  0.00  0.00    +0.000 C 
BRANCH  25  26
ATOM     26  C   UNL     1      10.656  15.930  22.225  0.00  0.00    +0.000 C 
BRANCH  26  27
ATOM     27  C   UNL     1      10.960  16.308  20.788  0.00  0.00    +0.000 C 
BRANCH  27  28
ATOM     28  C   UNL     1       9.890  17.246  20.263  0.00  0.00    +0.000 C 
BRANCH  28  29
ATOM     29  C   UNL     1       9.769  17.100  18.758  0.00  0.00    +0.000 C 
BRANCH  29  30
ATOM     30  C   UNL     1       8.306  17.044  18.358  0.00  0.00    +0.000 C 
BRANCH  30  31
ATOM     31  C   UNL     1       7.541  16.148  19.316  0.00  0.00    +0.000 C 
BRANCH  31  32
ATOM     32  C   UNL     1       7.465  14.736  18.760  0.00  0.00    +0.000 C 
BRANCH  32  34
ATOM     33  C   UNL     1       5.142  14.834  17.860  0.00  0.00    +0.000 C 
ATOM     34  C   UNL     1       6.608  14.704  17.503  0.00  0.00    +0.000 C 
ENDBRANCH  32  34
ENDBRANCH  31  32
ENDBRANCH  30  31
ENDBRANCH  29  30
ENDBRANCH  28  29
ENDBRANCH  27  28
ENDBRANCH  26  27
ENDBRANCH  25  26
ENDBRANCH  24  25
ENDBRANCH  23  24
ENDBRANCH  22  23
ENDBRANCH  21  22
ENDBRANCH  20  21
ENDBRANCH  19  20
ENDBRANCH   1  19
TORSDOF 29
ENDMDL
MODEL 4
REMARK VINA RESULT:      -5.1      3.301      6.154
REMARK  Name = 
REMARK  30 active torsions:
REMARK  status: ('A' for Active; 'I' for Inactive)
REMARK    1  A    between atoms: C_1  and  C_2
REMARK    2  A    between atoms: C_2  and  C_3
REMARK    3  A    between atoms: C_3  and  C_4
REMARK    4  A    between atoms: C_4  and  C_5
REMARK    5  A    between atoms: C_5  and  C_6
REMARK    6  A    between atoms: C_6  and  C_7
REMARK    7  A    between atoms: C_7  and  C_8
REMARK    8  A    between atoms: C_8  and  C_9
REMARK    9  A    between atoms: C_9  and  C_10
REMARK   10  A    between atoms: C_10  and  C_11
REMARK   11  A    between atoms: C_11  and  C_12
REMARK   12  A    between atoms: C_12  and  C_13
REMARK   13  A    between atoms: C_13  and  C_14
REMARK   14  A    between atoms: C_14  and  C_15
REMARK   15  A    between atoms: C_15  and  C_16
REMARK   16  A    between atoms: C_16  and  C_17
REMARK   17  A    between atoms: C_17  and  C_18
REMARK   18  A    between atoms: C_18  and  C_19
REMARK   19  A    between atoms: C_20  and  C_21
REMARK   20  A    between atoms: C_21  and  C_22
REMARK   21  A    between atoms: C_22  and  C_23
REMARK   22  A    between atoms: C_23  and  C_24
REMARK   23  A    between atoms: C_24  and  C_25
REMARK   24  A    between atoms: C_25  and  C_26
REMARK   25  A    between atoms: C_26  and  C_27
REMARK   26  A    between atoms: C_27  and  C_28
REMARK   27  A    between atoms: C_28  and  C_29
REMARK   28  A    between atoms: C_29  and  C_30
REMARK   29  A    between atoms: C_30  and  C_31
REMARK   30  A    between atoms: C_31  and  O_33
REMARK                            x       y       z     vdW  Elec       q    Type
REMARK                         _______ _______ _______ _____ _____    ______ ____
ROOT
ATOM      1  C   UNL     1       1.677   8.386  18.364  0.00  0.00    +0.000 C 
ENDROOT
BRANCH   1   2
ATOM      2  C   UNL     1       2.910   8.123  17.508  0.00  0.00    +0.000 C 
BRANCH   2   3
ATOM      3  C   UNL     1       3.822   7.161  18.161  0.00  0.00    +0.000 C 
ATOM      4  C   UNL     1       4.565   6.381  18.694  0.00  0.00    +0.000 C 
BRANCH   4   5
ATOM      5  C   UNL     1       5.479   5.425  19.355  0.00  0.00    +0.000 C 
BRANCH   5   6
ATOM      6  C   UNL     1       6.931   5.704  18.987  0.00  0.00    +0.000 C 
BRANCH   6   7
ATOM      7  C   UNL     1       7.447   4.716  17.939  0.00  0.00    +0.000 C 
BRANCH   7   8
ATOM      8  C   UNL     1       6.945   5.098  16.551  0.00  0.00    +0.000 C 
BRANCH   8   9
ATOM      9  C   UNL     1       6.298   3.904  15.860  0.00  0.00    +0.000 C 
BRANCH   9  10
ATOM     10  C   UNL     1       4.792   4.065  15.831  0.00  0.00    +0.000 C 
BRANCH  10  11
ATOM     11  C   UNL     1       4.159   3.390  17.043  0.00  0.00    +0.000 C 
BRANCH  11  12
ATOM     12  C   UNL     1       2.641   3.348  16.896  0.00  0.00    +0.000 C 
BRANCH  12  13
ATOM     13  C   UNL     1       1.979   4.114  18.032  0.00  0.00    +0.000 C 
BRANCH  13  14
ATOM     14  C   UNL     1       1.199   3.199  18.963  0.00  0.00    +0.000 C 
BRANCH  14  15
ATOM     15  C   UNL     1       1.157   3.812  20.352  0.00  0.00    +0.000 C 
ATOM     16  O   UNL     1       1.385   4.985  20.597  0.00  0.00    +0.000 OA
BRANCH  15  17
ATOM     17  O   UNL     1       0.831   2.914  21.329  0.00  0.00    +0.000 OA
ATOM     18  H   UNL     1       1.114   3.136  22.234  0.00  0.00    +0.000 HD
ENDBRANCH  15  17
ENDBRANCH  14  15
ENDBRANCH  13  14
ENDBRANCH  12  13
ENDBRANCH  11  12
ENDBRANCH  10  11
ENDBRANCH   9  10
ENDBRANCH   8   9
ENDBRANCH   7   8
ENDBRANCH   6   7
ENDBRANCH   5   6
ENDBRANCH   4   5
ENDBRANCH   2   3
ENDBRANCH   1   2
BRANCH   1  19
ATOM     19  C   UNL     1       1.127   9.792  18.139  0.00  0.00    +0.000 C 
BRANCH  19  20
ATOM     20  C   UNL     1      -0.310   9.887  18.643  0.00  0.00    +0.000 C 
BRANCH  20  21
ATOM     21  C   UNL     1      -1.282   9.990  17.479  0.00  0.00    +0.000 C 
BRANCH  21  22
ATOM     22  C   UNL     1      -2.714   9.963  17.989  0.00  0.00    +0.000 C 
BRANCH  22  23
ATOM     23  C   UNL     1      -3.334  11.344  17.873  0.00  0.00    +0.000 C 
BRANCH  23  24
ATOM     24  C   UNL     1      -3.303  12.042  19.220  0.00  0.00    +0.000 C 
BRANCH  24  25
ATOM     25  C   UNL     1      -4.717  12.349  19.676  0.00  0.00    +0.000 C 
BRANCH  25  26
ATOM     26  C   UNL     1      -4.698  13.473  20.695  0.00  0.00    +0.000 C 
BRANCH  26  27
ATOM     27  C   UNL     1      -5.085  12.938  22.060  0.00  0.00    +0.000 C 
BRANCH  27  28
ATOM     28  C   UNL     1      -4.313  13.673  23.140  0.00  0.00    +0.000 C 
BRANCH  28  29
ATOM     29  C   UNL     1      -3.663  12.674  24.079  0.00  0.00    +0.000 C 
BRANCH  29  30
ATOM     30  C   UNL     1      -2.619  11.864  23.331  0.00  0.00    +0.000 C 
BRANCH  30  31
ATOM     31  C   UNL     1      -1.526  12.781  22.811  0.00  0.00    +0.000 C 
BRANCH  31  32
ATOM     32  C   UNL     1      -0.419  11.961  22.172  0.00  0.00    +0.000 C 
BRANCH  32  34
ATOM     33  C   UNL     1       0.304   9.584  22.384  0.00  0.00    +0.000 C 
ATOM     34  C   UNL     1      -0.845  10.507  22.033  0.00  0.00    +0.000 C 
ENDBRANCH  32  34
ENDBRANCH  31  32
ENDBRANCH  30  31
ENDBRANCH  29  30
ENDBRANCH  28  29
ENDBRANCH  27  28
ENDBRANCH  26  27
ENDBRANCH  25  26
ENDBRANCH  24  25
ENDBRANCH  23  24
ENDBRANCH  22  23
ENDBRANCH  21  22
ENDBRANCH  20  21
ENDBRANCH  19  20
ENDBRANCH   1  19
TORSDOF 29
ENDMDL
MODEL 5
REMARK VINA RESULT:      -5.0      5.468      9.575
REMARK  Name = 
REMARK  30 active torsions:
REMARK  status: ('A' for Active; 'I' for Inactive)
REMARK    1  A    between atoms: C_1  and  C_2
REMARK    2  A    between atoms: C_2  and  C_3
REMARK    3  A    between atoms: C_3  and  C_4
REMARK    4  A    between atoms: C_4  and  C_5
REMARK    5  A    between atoms: C_5  and  C_6
REMARK    6  A    between atoms: C_6  and  C_7
REMARK    7  A    between atoms: C_7  and  C_8
REMARK    8  A    between atoms: C_8  and  C_9
REMARK    9  A    between atoms: C_9  and  C_10
REMARK   10  A    between atoms: C_10  and  C_11
REMARK   11  A    between atoms: C_11  and  C_12
REMARK   12  A    between atoms: C_12  and  C_13
REMARK   13  A    between atoms: C_13  and  C_14
REMARK   14  A    between atoms: C_14  and  C_15
REMARK   15  A    between atoms: C_15  and  C_16
REMARK   16  A    between atoms: C_16  and  C_17
REMARK   17  A    between atoms: C_17  and  C_18
REMARK   18  A    between atoms: C_18  and  C_19
REMARK   19  A    between atoms: C_20  and  C_21
REMARK   20  A    between atoms: C_21  and  C_22
REMARK   21  A    between atoms: C_22  and  C_23
REMARK   22  A    between atoms: C_23  and  C_24
REMARK   23  A    between atoms: C_24  and  C_25
REMARK   24  A    between atoms: C_25  and  C_26
REMARK   25  A    between atoms: C_26  and  C_27
REMARK   26  A    between atoms: C_27  and  C_28
REMARK   27  A    between atoms: C_28  and  C_29
REMARK   28  A    between atoms: C_29  and  C_30
REMARK   29  A    between atoms: C_30  and  C_31
REMARK   30  A    between atoms: C_31  and  O_33
REMARK                            x       y       z     vdW  Elec       q    Type
REMARK                         _______ _______ _______ _____ _____    ______ ____
ROOT
ATOM      1  C   UNL     1       4.709   4.025  16.935  0.00  0.00    +0.000 C 
ENDROOT
BRANCH   1   2
ATOM      2  C   UNL     1       3.956   2.702  17.017  0.00  0.00    +0.000 C 
BRANCH   2   3
ATOM      3  C   UNL     1       2.996   2.699  18.140  0.00  0.00    +0.000 C 
ATOM      4  C   UNL     1       2.212   2.697  19.050  0.00  0.00    +0.000 C 
BRANCH   4   5
ATOM      5  C   UNL     1       1.244   2.695  20.167  0.00  0.00    +0.000 C 
BRANCH   5   6
ATOM      6  C   UNL     1       1.240   4.031  20.900  0.00  0.00    +0.000 C 
BRANCH   6   7
ATOM      7  C   UNL     1       2.476   4.865  20.556  0.00  0.00    +0.000 C 
BRANCH   7   8
ATOM      8  C   UNL     1       2.067   6.211  19.969  0.00  0.00    +0.000 C 
BRANCH   8   9
ATOM      9  C   UNL     1       2.378   6.271  18.479  0.00  0.00    +0.000 C 
BRANCH   9  10
ATOM     10  C   UNL     1       2.667   7.698  18.059  0.00  0.00    +0.000 C 
BRANCH  10  11
ATOM     11  C   UNL     1       1.923   8.680  18.957  0.00  0.00    +0.000 C 
BRANCH  11  12
ATOM     12  C   UNL     1       1.322   9.810  18.126  0.00  0.00    +0.000 C 
BRANCH  12  13
ATOM     13  C   UNL     1      -0.148   9.996  18.472  0.00  0.00    +0.000 C 
BRANCH  13  14
ATOM     14  C   UNL     1      -0.535  11.465  18.558  0.00  0.00    +0.000 C 
BRANCH  14  15
ATOM     15  C   UNL     1       0.673  12.278  18.990  0.00  0.00    +0.000 C 
ATOM     16  O   UNL     1       1.226  12.174  20.071  0.00  0.00    +0.000 OA
BRANCH  15  17
ATOM     17  O   UNL     1       1.099  13.159  18.036  0.00  0.00    +0.000 OA
ATOM     18  H   UNL     1       1.997  13.520  18.148  0.00  0.00    +0.000 HD
ENDBRANCH  15  17
ENDBRANCH  14  15
ENDBRANCH  13  14
ENDBRANCH  12  13
ENDBRANCH  11  12
ENDBRANCH  10  11
ENDBRANCH   9  10
ENDBRANCH   8   9
ENDBRANCH   7   8
ENDBRANCH   6   7
ENDBRANCH   5   6
ENDBRANCH   4   5
ENDBRANCH   2   3
ENDBRANCH   1   2
BRANCH   1  19
ATOM     19  C   UNL     1       5.933   3.919  16.029  0.00  0.00    +0.000 C 
BRANCH  19  20
ATOM     20  C   UNL     1       6.943   5.011  16.370  0.00  0.00    +0.000 C 
BRANCH  20  21
ATOM     21  C   UNL     1       7.522   4.792  17.757  0.00  0.00    +0.000 C 
BRANCH  21  22
ATOM     22  C   UNL     1       7.115   5.930  18.680  0.00  0.00    +0.000 C 
BRANCH  22  23
ATOM     23  C   UNL     1       8.130   7.056  18.597  0.00  0.00    +0.000 C 
BRANCH  23  24
ATOM     24  C   UNL     1       7.825   7.942  17.404  0.00  0.00    +0.000 C 
BRANCH  24  25
ATOM     25  C   UNL     1       7.772   9.394  17.838  0.00  0.00    +0.000 C 
BRANCH  25  26
ATOM     26  C   UNL     1       8.855   9.666  18.865  0.00  0.00    +0.000 C 
BRANCH  26  27
ATOM     27  C   UNL     1       9.657  10.887  18.460  0.00  0.00    +0.000 C 
BRANCH  27  28
ATOM     28  C   UNL     1      10.660  11.229  19.546  0.00  0.00    +0.000 C 
BRANCH  28  29
ATOM     29  C   UNL     1      11.706  12.183  19.000  0.00  0.00    +0.000 C 
BRANCH  29  30
ATOM     30  C   UNL     1      11.458  13.583  19.532  0.00  0.00    +0.000 C 
BRANCH  30  31
ATOM     31  C   UNL     1      11.980  14.613  18.545  0.00  0.00    +0.000 C 
BRANCH  31  32
ATOM     32  C   UNL     1      10.942  14.876  17.468  0.00  0.00    +0.000 C 
BRANCH  32  34
ATOM     33  C   UNL     1      11.684  17.241  17.734  0.00  0.00    +0.000 C 
ATOM     34  C   UNL     1      11.242  16.181  16.746  0.00  0.00    +0.000 C 
ENDBRANCH  32  34
ENDBRANCH  31  32
ENDBRANCH  30  31
ENDBRANCH  29  30
ENDBRANCH  28  29
ENDBRANCH  27  28
ENDBRANCH  26  27
ENDBRANCH  25  26
ENDBRANCH  24  25
ENDBRANCH  23  24
ENDBRANCH  22  23
ENDBRANCH  21  22
ENDBRANCH  20  21
ENDBRANCH  19  20
ENDBRANCH   1  19
TORSDOF 29
ENDMDL
MODEL 6
REMARK VINA RESULT:      -5.0      4.444      8.343
REMARK  Name = 
REMARK  30 active torsions:
REMARK  status: ('A' for Active; 'I' for Inactive)
REMARK    1  A    between atoms: C_1  and  C_2
REMARK    2  A    between atoms: C_2  and  C_3
REMARK    3  A    between atoms: C_3  and  C_4
REMARK    4  A    between atoms: C_4  and  C_5
REMARK    5  A    between atoms: C_5  and  C_6
REMARK    6  A    between atoms: C_6  and  C_7
REMARK    7  A    between atoms: C_7  and  C_8
REMARK    8  A    between atoms: C_8  and  C_9
REMARK    9  A    between atoms: C_9  and  C_10
REMARK   10  A    between atoms: C_10  and  C_11
REMARK   11  A    between atoms: C_11  and  C_12
REMARK   12  A    between atoms: C_12  and  C_13
REMARK   13  A    between atoms: C_13  and  C_14
REMARK   14  A    between atoms: C_14  and  C_15
REMARK   15  A    between atoms: C_15  and  C_16
REMARK   16  A    between atoms: C_16  and  C_17
REMARK   17  A    between atoms: C_17  and  C_18
REMARK   18  A    between atoms: C_18  and  C_19
REMARK   19  A    between atoms: C_20  and  C_21
REMARK   20  A    between atoms: C_21  and  C_22
REMARK   21  A    between atoms: C_22  and  C_23
REMARK   22  A    between atoms: C_23  and  C_24
REMARK   23  A    between atoms: C_24  and  C_25
REMARK   24  A    between atoms: C_25  and  C_26
REMARK   25  A    between atoms: C_26  and  C_27
REMARK   26  A    between atoms: C_27  and  C_28
REMARK   27  A    between atoms: C_28  and  C_29
REMARK   28  A    between atoms: C_29  and  C_30
REMARK   29  A    between atoms: C_30  and  C_31
REMARK   30  A    between atoms: C_31  and  O_33
REMARK                            x       y       z     vdW  Elec       q    Type
REMARK                         _______ _______ _______ _____ _____    ______ ____
ROOT
ATOM      1  C   UNL     1       0.378   9.042  17.509  0.00  0.00    +0.000 C 
ENDROOT
BRANCH   1   2
ATOM      2  C   UNL     1       1.797   9.471  17.865  0.00  0.00    +0.000 C 
BRANCH   2   3
ATOM      3  C   UNL     1       2.757   8.364  17.677  0.00  0.00    +0.000 C 
ATOM      4  C   UNL     1       3.540   7.466  17.521  0.00  0.00    +0.000 C 
BRANCH   4   5
ATOM      5  C   UNL     1       4.506   6.364  17.325  0.00  0.00    +0.000 C 
BRANCH   5   6
ATOM      6  C   UNL     1       5.105   5.912  18.652  0.00  0.00    +0.000 C 
BRANCH   6   7
ATOM      7  C   UNL     1       6.634   5.937  18.617  0.00  0.00    +0.000 C 
BRANCH   7   8
ATOM      8  C   UNL     1       7.131   6.362  17.240  0.00  0.00    +0.000 C 
BRANCH   8   9
ATOM      9  C   UNL     1       7.408   7.860  17.199  0.00  0.00    +0.000 C 
BRANCH   9  10
ATOM     10  C   UNL     1       8.259   8.269  18.384  0.00  0.00    +0.000 C 
BRANCH  10  11
ATOM     11  C   UNL     1       8.620   9.747  18.298  0.00  0.00    +0.000 C 
BRANCH  11  12
ATOM     12  C   UNL     1       9.589  10.125  19.414  0.00  0.00    +0.000 C 
BRANCH  12  13
ATOM     13  C   UNL     1       9.394  11.579  19.814  0.00  0.00    +0.000 C 
BRANCH  13  14
ATOM     14  C   UNL     1      10.640  12.169  20.457  0.00  0.00    +0.000 C 
BRANCH  14  15
ATOM     15  C   UNL     1      11.207  13.252  19.554  0.00  0.00    +0.000 C 
ATOM     16  O   UNL     1      12.289  13.790  19.715  0.00  0.00    +0.000 OA
BRANCH  15  17
ATOM     17  O   UNL     1      10.379  13.577  18.516  0.00  0.00    +0.000 OA
ATOM     18  H   UNL     1      10.100  12.845  17.937  0.00  0.00    +0.000 HD
ENDBRANCH  15  17
ENDBRANCH  14  15
ENDBRANCH  13  14
ENDBRANCH  12  13
ENDBRANCH  11  12
ENDBRANCH  10  11
ENDBRANCH   9  10
ENDBRANCH   8   9
ENDBRANCH   7   8
ENDBRANCH   6   7
ENDBRANCH   5   6
ENDBRANCH   4   5
ENDBRANCH   2   3
ENDBRANCH   1   2
BRANCH   1  19
ATOM     19  C   UNL     1      -0.595  10.215  17.567  0.00  0.00    +0.000 C 
BRANCH  19  20
ATOM     20  C   UNL     1      -1.445  10.140  18.832  0.00  0.00    +0.000 C 
BRANCH  20  21
ATOM     21  C   UNL     1      -1.529  11.500  19.504  0.00  0.00    +0.000 C 
BRANCH  21  22
ATOM     22  C   UNL     1      -0.364  11.683  20.464  0.00  0.00    +0.000 C 
BRANCH  22  23
ATOM     23  C   UNL     1      -0.382  10.590  21.518  0.00  0.00    +0.000 C 
BRANCH  23  24
ATOM     24  C   UNL     1       1.034  10.264  21.952  0.00  0.00    +0.000 C 
BRANCH  24  25
ATOM     25  C   UNL     1       1.165   8.776  22.218  0.00  0.00    +0.000 C 
BRANCH  25  26
ATOM     26  C   UNL     1       0.824   7.996  20.963  0.00  0.00    +0.000 C 
BRANCH  26  27
ATOM     27  C   UNL     1       1.959   7.053  20.616  0.00  0.00    +0.000 C 
BRANCH  27  28
ATOM     28  C   UNL     1       1.594   5.636  21.017  0.00  0.00    +0.000 C 
BRANCH  28  29
ATOM     29  C   UNL     1       1.536   4.750  19.786  0.00  0.00    +0.000 C 
BRANCH  29  30
ATOM     30  C   UNL     1       0.805   3.460  20.111  0.00  0.00    +0.000 C 
BRANCH  30  31
ATOM     31  C   UNL     1       1.768   2.288  20.045  0.00  0.00    +0.000 C 
BRANCH  31  32
ATOM     32  C   UNL     1       3.107   2.743  19.491  0.00  0.00    +0.000 C 
BRANCH  32  34
ATOM     33  C   UNL     1       3.762   2.853  17.088  0.00  0.00    +0.000 C 
ATOM     34  C   UNL     1       3.475   1.933  18.257  0.00  0.00    +0.000 C 
ENDBRANCH  32  34
ENDBRANCH  31  32
ENDBRANCH  30  31
ENDBRANCH  29  30
ENDBRANCH  28  29
ENDBRANCH  27  28
ENDBRANCH  26  27
ENDBRANCH  25  26
ENDBRANCH  24  25
ENDBRANCH  23  24
ENDBRANCH  22  23
ENDBRANCH  21  22
ENDBRANCH  20  21
ENDBRANCH  19  20
ENDBRANCH   1  19
TORSDOF 29
ENDMDL
MODEL 7
REMARK VINA RESULT:      -5.0      3.901     10.142
REMARK  Name = 
REMARK  30 active torsions:
REMARK  status: ('A' for Active; 'I' for Inactive)
REMARK    1  A    between atoms: C_1  and  C_2
REMARK    2  A    between atoms: C_2  and  C_3
REMARK    3  A    between atoms: C_3  and  C_4
REMARK    4  A    between atoms: C_4  and  C_5
REMARK    5  A    between atoms: C_5  and  C_6
REMARK    6  A    between atoms: C_6  and  C_7
REMARK    7  A    between atoms: C_7  and  C_8
REMARK    8  A    between atoms: C_8  and  C_9
REMARK    9  A    between atoms: C_9  and  C_10
REMARK   10  A    between atoms: C_10  and  C_11
REMARK   11  A    between atoms: C_11  and  C_12
REMARK   12  A    between atoms: C_12  and  C_13
REMARK   13  A    between atoms: C_13  and  C_14
REMARK   14  A    between atoms: C_14  and  C_15
REMARK   15  A    between atoms: C_15  and  C_16
REMARK   16  A    between atoms: C_16  and  C_17
REMARK   17  A    between atoms: C_17  and  C_18
REMARK   18  A    between atoms: C_18  and  C_19
REMARK   19  A    between atoms: C_20  and  C_21
REMARK   20  A    between atoms: C_21  and  C_22
REMARK   21  A    between atoms: C_22  and  C_23
REMARK   22  A    between atoms: C_23  and  C_24
REMARK   23  A    between atoms: C_24  and  C_25
REMARK   24  A    between atoms: C_25  and  C_26
REMARK   25  A    between atoms: C_26  and  C_27
REMARK   26  A    between atoms: C_27  and  C_28
REMARK   27  A    between atoms: C_28  and  C_29
REMARK   28  A    between atoms: C_29  and  C_30
REMARK   29  A    between atoms: C_30  and  C_31
REMARK   30  A    between atoms: C_31  and  O_33
REMARK                            x       y       z     vdW  Elec       q    Type
REMARK                         _______ _______ _______ _____ _____    ______ ____
ROOT
ATOM      1  C   UNL     1       1.168   2.270  18.655  0.00  0.00    +0.000 C 
ENDROOT
BRANCH   1   2
ATOM      2  C   UNL     1       1.187   2.468  20.166  0.00  0.00    +0.000 C 
BRANCH   2   3
ATOM      3  C   UNL     1       1.505   3.866  20.522  0.00  0.00    +0.000 C 
ATOM      4  C   UNL     1       1.760   5.005  20.809  0.00  0.00    +0.000 C 
BRANCH   4   5
ATOM      5  C   UNL     1       2.071   6.407  21.158  0.00  0.00    +0.000 C 
BRANCH   5   6
ATOM      6  C   UNL     1       1.433   7.378  20.172  0.00  0.00    +0.000 C 
BRANCH   6   7
ATOM      7  C   UNL     1       1.356   8.794  20.745  0.00  0.00    +0.000 C 
BRANCH   7   8
ATOM      8  C   UNL     1      -0.056   9.099  21.229  0.00  0.00    +0.000 C 
BRANCH   8   9
ATOM      9  C   UNL     1      -0.289  10.603  21.315  0.00  0.00    +0.000 C 
BRANCH   9  10
ATOM     10  C   UNL     1      -0.287  11.215  19.929  0.00  0.00    +0.000 C 
BRANCH  10  11
ATOM     11  C   UNL     1      -1.512  12.100  19.733  0.00  0.00    +0.000 C 
BRANCH  11  12
ATOM     12  C   UNL     1      -2.259  11.703  18.464  0.00  0.00    +0.000 C 
BRANCH  12  13
ATOM     13  C   UNL     1      -2.029  10.232  18.153  0.00  0.00    +0.000 C 
BRANCH  13  14
ATOM     14  C   UNL     1      -2.533   9.853  16.769  0.00  0.00    +0.000 C 
BRANCH  14  15
ATOM     15  C   UNL     1      -3.614  10.831  16.343  0.00  0.00    +0.000 C 
ATOM     16  O   UNL     1      -4.724  10.895  16.843  0.00  0.00    +0.000 OA
BRANCH  15  17
ATOM     17  O   UNL     1      -3.225  11.656  15.325  0.00  0.00    +0.000 OA
ATOM     18  H   UNL     1      -2.426  12.192  15.482  0.00  0.00    +0.000 HD
ENDBRANCH  15  17
ENDBRANCH  14  15
ENDBRANCH  13  14
ENDBRANCH  12  13
ENDBRANCH  11  12
ENDBRANCH  10  11
ENDBRANCH   9  10
ENDBRANCH   8   9
ENDBRANCH   7   8
ENDBRANCH   6   7
ENDBRANCH   5   6
ENDBRANCH   4   5
ENDBRANCH   2   3
ENDBRANCH   1   2
BRANCH   1  19
ATOM     19  C   UNL     1       2.486   2.699  18.016  0.00  0.00    +0.000 C 
BRANCH  19  20
ATOM     20  C   UNL     1       2.367   4.110  17.449  0.00  0.00    +0.000 C 
BRANCH  20  21
ATOM     21  C   UNL     1       3.742   4.691  17.163  0.00  0.00    +0.000 C 
BRANCH  21  22
ATOM     22  C   UNL     1       3.746   6.187  17.436  0.00  0.00    +0.000 C 
BRANCH  22  23
ATOM     23  C   UNL     1       5.002   6.575  18.195  0.00  0.00    +0.000 C 
BRANCH  23  24
ATOM     24  C   UNL     1       6.011   7.195  17.247  0.00  0.00    +0.000 C 
BRANCH  24  25
ATOM     25  C   UNL     1       7.419   6.927  17.742  0.00  0.00    +0.000 C 
BRANCH  25  26
ATOM     26  C   UNL     1       7.445   5.649  18.558  0.00  0.00    +0.000 C 
BRANCH  26  27
ATOM     27  C   UNL     1       7.695   4.460  17.650  0.00  0.00    +0.000 C 
BRANCH  27  28
ATOM     28  C   UNL     1       7.664   4.903  16.200  0.00  0.00    +0.000 C 
BRANCH  28  29
ATOM     29  C   UNL     1       6.796   3.958  15.390  0.00  0.00    +0.000 C 
BRANCH  29  30
ATOM     30  C   UNL     1       6.611   4.500  13.985  0.00  0.00    +0.000 C 
BRANCH  30  31
ATOM     31  C   UNL     1       5.232   4.132  13.464  0.00  0.00    +0.000 C 
BRANCH  31  32
ATOM     32  C   UNL     1       5.343   3.018  12.437  0.00  0.00    +0.000 C 
BRANCH  32  34
ATOM     33  C   UNL     1       3.397   3.102  10.881  0.00  0.00    +0.000 C 
ATOM     34  C   UNL     1       4.847   3.494  11.080  0.00  0.00    +0.000 C 
ENDBRANCH  32  34
ENDBRANCH  31  32
ENDBRANCH  30  31
ENDBRANCH  29  30
ENDBRANCH  28  29
ENDBRANCH  27  28
ENDBRANCH  26  27
ENDBRANCH  25  26
ENDBRANCH  24  25
ENDBRANCH  23  24
ENDBRANCH  22  23
ENDBRANCH  21  22
ENDBRANCH  20  21
ENDBRANCH  19  20
ENDBRANCH   1  19
TORSDOF 29
ENDMDL
MODEL 8
REMARK VINA RESULT:      -4.9      5.399      7.159
REMARK  Name = 
REMARK  30 active torsions:
REMARK  status: ('A' for Active; 'I' for Inactive)
REMARK    1  A    between atoms: C_1  and  C_2
REMARK    2  A    between atoms: C_2  and  C_3
REMARK    3  A    between atoms: C_3  and  C_4
REMARK    4  A    between atoms: C_4  and  C_5
REMARK    5  A    between atoms: C_5  and  C_6
REMARK    6  A    between atoms: C_6  and  C_7
REMARK    7  A    between atoms: C_7  and  C_8
REMARK    8  A    between atoms: C_8  and  C_9
REMARK    9  A    between atoms: C_9  and  C_10
REMARK   10  A    between atoms: C_10  and  C_11
REMARK   11  A    between atoms: C_11  and  C_12
REMARK   12  A    between atoms: C_12  and  C_13
REMARK   13  A    between atoms: C_13  and  C_14
REMARK   14  A    between atoms: C_14  and  C_15
REMARK   15  A    between atoms: C_15  and  C_16
REMARK   16  A    between atoms: C_16  and  C_17
REMARK   17  A    between atoms: C_17  and  C_18
REMARK   18  A    between atoms: C_18  and  C_19
REMARK   19  A    between atoms: C_20  and  C_21
REMARK   20  A    between atoms: C_21  and  C_22
REMARK   21  A    between atoms: C_22  and  C_23
REMARK   22  A    between atoms: C_23  and  C_24
REMARK   23  A    between atoms: C_24  and  C_25
REMARK   24  A    between atoms: C_25  and  C_26
REMARK   25  A    between atoms: C_26  and  C_27
REMARK   26  A    between atoms: C_27  and  C_28
REMARK   27  A    between atoms: C_28  and  C_29
REMARK   28  A    between atoms: C_29  and  C_30
REMARK   29  A    between atoms: C_30  and  C_31
REMARK   30  A    between atoms: C_31  and  O_33
REMARK                            x       y       z     vdW  Elec       q    Type
REMARK                         _______ _______ _______ _____ _____    ______ ____
ROOT
ATOM      1  C   UNL     1       2.739   4.806  17.504  0.00  0.00    +0.000 C 
ENDROOT
BRANCH   1   2
ATOM      2  C   UNL     1       3.738   3.698  17.191  0.00  0.00    +0.000 C 
BRANCH   2   3
ATOM      3  C   UNL     1       5.129   4.153  17.396  0.00  0.00    +0.000 C 
ATOM      4  C   UNL     1       6.261   4.519  17.563  0.00  0.00    +0.000 C 
BRANCH   4   5
ATOM      5  C   UNL     1       7.655   4.965  17.765  0.00  0.00    +0.000 C 
BRANCH   5   6
ATOM      6  C   UNL     1       7.717   6.207  18.648  0.00  0.00    +0.000 C 
BRANCH   6   7
ATOM      7  C   UNL     1       7.768   7.488  17.814  0.00  0.00    +0.000 C 
BRANCH   7   8
ATOM      8  C   UNL     1       8.683   8.516  18.469  0.00  0.00    +0.000 C 
BRANCH   8   9
ATOM      9  C   UNL     1       8.351   9.924  17.990  0.00  0.00    +0.000 C 
BRANCH   9  10
ATOM     10  C   UNL     1       9.176  10.945  18.745  0.00  0.00    +0.000 C 
BRANCH  10  11
ATOM     11  C   UNL     1      10.412  11.334  17.942  0.00  0.00    +0.000 C 
BRANCH  11  12
ATOM     12  C   UNL     1      11.260  12.335  18.721  0.00  0.00    +0.000 C 
BRANCH  12  13
ATOM     13  C   UNL     1      10.482  13.622  18.951  0.00  0.00    +0.000 C 
BRANCH  13  14
ATOM     14  C   UNL     1      11.058  14.443  20.094  0.00  0.00    +0.000 C 
BRANCH  14  15
ATOM     15  C   UNL     1      10.226  14.217  21.344  0.00  0.00    +0.000 C 
ATOM     16  O   UNL     1       9.467  13.278  21.509  0.00  0.00    +0.000 OA
BRANCH  15  17
ATOM     17  O   UNL     1      10.408  15.181  22.296  0.00  0.00    +0.000 OA
ATOM     18  H   UNL     1       9.792  15.935  22.274  0.00  0.00    +0.000 HD
ENDBRANCH  15  17
ENDBRANCH  14  15
ENDBRANCH  13  14
ENDBRANCH  12  13
ENDBRANCH  11  12
ENDBRANCH  10  11
ENDBRANCH   9  10
ENDBRANCH   8   9
ENDBRANCH   7   8
ENDBRANCH   6   7
ENDBRANCH   5   6
ENDBRANCH   4   5
ENDBRANCH   2   3
ENDBRANCH   1   2
BRANCH   1  19
ATOM     19  C   UNL     1       1.420   4.243  18.023  0.00  0.00    +0.000 C 
BRANCH  19  20
ATOM     20  C   UNL     1       1.628   3.552  19.368  0.00  0.00    +0.000 C 
BRANCH  20  21
ATOM     21  C   UNL     1       2.422   4.442  20.310  0.00  0.00    +0.000 C 
BRANCH  21  22
ATOM     22  C   UNL     1       1.609   5.674  20.675  0.00  0.00    +0.000 C 
BRANCH  22  23
ATOM     23  C   UNL     1       2.310   6.926  20.179  0.00  0.00    +0.000 C 
BRANCH  23  24
ATOM     24  C   UNL     1       1.361   8.108  20.232  0.00  0.00    +0.000 C 
BRANCH  24  25
ATOM     25  C   UNL     1       1.293   8.654  21.645  0.00  0.00    +0.000 C 
BRANCH  25  26
ATOM     26  C   UNL     1      -0.137   9.025  21.988  0.00  0.00    +0.000 C 
BRANCH  26  27
ATOM     27  C   UNL     1      -0.819   9.628  20.775  0.00  0.00    +0.000 C 
BRANCH  27  28
ATOM     28  C   UNL     1      -0.502  11.109  20.688  0.00  0.00    +0.000 C 
BRANCH  28  29
ATOM     29  C   UNL     1       0.044  11.439  19.311  0.00  0.00    +0.000 C 
BRANCH  29  30
ATOM     30  C   UNL     1      -0.896  10.911  18.242  0.00  0.00    +0.000 C 
BRANCH  30  31
ATOM     31  C   UNL     1      -2.149  11.767  18.185  0.00  0.00    +0.000 C 
BRANCH  31  32
ATOM     32  C   UNL     1      -3.228  11.059  17.384  0.00  0.00    +0.000 C 
BRANCH  32  34
ATOM     33  C   UNL     1      -2.864  10.135  15.097  0.00  0.00    +0.000 C 
ATOM     34  C   UNL     1      -2.629   9.917  16.577  0.00  0.00    +0.000 C 
ENDBRANCH  32  34
ENDBRANCH  31  32
ENDBRANCH  30  31
ENDBRANCH  29  30
ENDBRANCH  28  29
ENDBRANCH  27  28
ENDBRANCH  26  27
ENDBRANCH  25  26
ENDBRANCH  24  25
ENDBRANCH  23  24
ENDBRANCH  22  23
ENDBRANCH  21  22
ENDBRANCH  20  21
ENDBRANCH  19  20
ENDBRANCH   1  19
TORSDOF 29
ENDMDL
MODEL 9
REMARK VINA RESULT:      -4.9      3.500      6.992
REMARK  Name = 
REMARK  30 active torsions:
REMARK  status: ('A' for Active; 'I' for Inactive)
REMARK    1  A    between atoms: C_1  and  C_2
REMARK    2  A    between atoms: C_2  and  C_3
REMARK    3  A    between atoms: C_3  and  C_4
REMARK    4  A    between atoms: C_4  and  C_5
REMARK    5  A    between atoms: C_5  and  C_6
REMARK    6  A    between atoms: C_6  and  C_7
REMARK    7  A    between atoms: C_7  and  C_8
REMARK    8  A    between atoms: C_8  and  C_9
REMARK    9  A    between atoms: C_9  and  C_10
REMARK   10  A    between atoms: C_10  and  C_11
REMARK   11  A    between atoms: C_11  and  C_12
REMARK   12  A    between atoms: C_12  and  C_13
REMARK   13  A    between atoms: C_13  and  C_14
REMARK   14  A    between atoms: C_14  and  C_15
REMARK   15  A    between atoms: C_15  and  C_16
REMARK   16  A    between atoms: C_16  and  C_17
REMARK   17  A    between atoms: C_17  and  C_18
REMARK   18  A    between atoms: C_18  and  C_19
REMARK   19  A    between atoms: C_20  and  C_21
REMARK   20  A    between atoms: C_21  and  C_22
REMARK   21  A    between atoms: C_22  and  C_23
REMARK   22  A    between atoms: C_23  and  C_24
REMARK   23  A    between atoms: C_24  and  C_25
REMARK   24  A    between atoms: C_25  and  C_26
REMARK   25  A    between atoms: C_26  and  C_27
REMARK   26  A    between atoms: C_27  and  C_28
REMARK   27  A    between atoms: C_28  and  C_29
REMARK   28  A    between atoms: C_29  and  C_30
REMARK   29  A    between atoms: C_30  and  C_31
REMARK   30  A    between atoms: C_31  and  O_33
REMARK                            x       y       z     vdW  Elec       q    Type
REMARK                         _______ _______ _______ _____ _____    ______ ____
ROOT
ATOM      1  C   UNL     1      -0.964  10.417  18.686  0.00  0.00    +0.000 C 
ENDROOT
BRANCH   1   2
ATOM      2  C   UNL     1       0.532  10.705  18.644  0.00  0.00    +0.000 C 
BRANCH   2   3
ATOM      3  C   UNL     1       1.319   9.456  18.567  0.00  0.00    +0.000 C 
ATOM      4  C   UNL     1       1.958   8.440  18.509  0.00  0.00    +0.000 C 
BRANCH   4   5
ATOM      5  C   UNL     1       2.745   7.190  18.442  0.00  0.00    +0.000 C 
BRANCH   5   6
ATOM      6  C   UNL     1       3.761   7.236  17.307  0.00  0.00    +0.000 C 
BRANCH   6   7
ATOM      7  C   UNL     1       5.152   6.811  17.779  0.00  0.00    +0.000 C 
BRANCH   7   8
ATOM      8  C   UNL     1       5.112   5.407  18.371  0.00  0.00    +0.000 C 
BRANCH   8   9
ATOM      9  C   UNL     1       5.560   4.372  17.348  0.00  0.00    +0.000 C 
BRANCH   9  10
ATOM     10  C   UNL     1       4.359   3.669  16.751  0.00  0.00    +0.000 C 
BRANCH  10  11
ATOM     11  C   UNL     1       3.421   3.184  17.850  0.00  0.00    +0.000 C 
BRANCH  11  12
ATOM     12  C   UNL     1       2.008   3.711  17.616  0.00  0.00    +0.000 C 
BRANCH  12  13
ATOM     13  C   UNL     1       1.189   3.612  18.894  0.00  0.00    +0.000 C 
BRANCH  13  14
ATOM     14  C   UNL     1       1.797   2.638  19.891  0.00  0.00    +0.000 C 
BRANCH  14  15
ATOM     15  C   UNL     1       1.922   3.316  21.244  0.00  0.00    +0.000 C 
ATOM     16  O   UNL     1       2.362   4.441  21.415  0.00  0.00    +0.000 OA
BRANCH  15  17
ATOM     17  O   UNL     1       1.486   2.539  22.280  0.00  0.00    +0.000 OA
ATOM     18  H   UNL     1       0.804   1.877  22.069  0.00  0.00    +0.000 HD
ENDBRANCH  15  17
ENDBRANCH  14  15
ENDBRANCH  13  14
ENDBRANCH  12  13
ENDBRANCH  11  12
ENDBRANCH  10  11
ENDBRANCH   9  10
ENDBRANCH   8   9
ENDBRANCH   7   8
ENDBRANCH   6   7
ENDBRANCH   5   6
ENDBRANCH   4   5
ENDBRANCH   2   3
ENDBRANCH   1   2
BRANCH   1  19
ATOM     19  C   UNL     1      -1.440   9.730  17.409  0.00  0.00    +0.000 C 
BRANCH  19  20
ATOM     20  C   UNL     1      -2.742  10.359  16.921  0.00  0.00    +0.000 C 
BRANCH  20  21
ATOM     21  C   UNL     1      -3.766  10.412  18.044  0.00  0.00    +0.000 C 
BRANCH  21  22
ATOM     22  C   UNL     1      -4.090  11.857  18.388  0.00  0.00    +0.000 C 
BRANCH  22  23
ATOM     23  C   UNL     1      -5.202  11.909  19.420  0.00  0.00    +0.000 C 
BRANCH  23  24
ATOM     24  C   UNL     1      -6.187  13.008  19.067  0.00  0.00    +0.000 C 
BRANCH  24  25
ATOM     25  C   UNL     1      -5.793  14.298  19.761  0.00  0.00    +0.000 C 
BRANCH  25  26
ATOM     26  C   UNL     1      -5.086  13.987  21.066  0.00  0.00    +0.000 C 
BRANCH  26  27
ATOM     27  C   UNL     1      -3.748  14.699  21.111  0.00  0.00    +0.000 C 
BRANCH  27  28
ATOM     28  C   UNL     1      -3.361  14.980  22.551  0.00  0.00    +0.000 C 
BRANCH  28  29
ATOM     29  C   UNL     1      -2.160  14.137  22.936  0.00  0.00    +0.000 C 
BRANCH  29  30
ATOM     30  C   UNL     1      -2.618  12.770  23.411  0.00  0.00    +0.000 C 
BRANCH  30  31
ATOM     31  C   UNL     1      -2.156  11.701  22.436  0.00  0.00    +0.000 C 
BRANCH  31  32
ATOM     32  C   UNL     1      -0.690  11.380  22.670  0.00  0.00    +0.000 C 
BRANCH  32  34
ATOM     33  C   UNL     1      -0.275   9.027  21.954  0.00  0.00    +0.000 C 
ATOM     34  C   UNL     1      -0.529   9.940  23.137  0.00  0.00    +0.000 C 
ENDBRANCH  32  34
ENDBRANCH  31  32
ENDBRANCH  30  31
ENDBRANCH  29  30
ENDBRANCH  28  29
ENDBRANCH  27  28
ENDBRANCH  26  27
ENDBRANCH  25  26
ENDBRANCH  24  25
ENDBRANCH  23  24
ENDBRANCH  22  23
ENDBRANCH  21  22
ENDBRANCH  20  21
ENDBRANCH  19  20
ENDBRANCH   1  19
TORSDOF 29
ENDMDL
