MODEL 1
REMARK VINA RESULT:      -7.2      0.000      0.000
REMARK  Name = 
REMARK  6 active torsions:
REMARK  status: ('A' for Active; 'I' for Inactive)
REMARK    1  A    between atoms: O_1  and  C_2
REMARK    2  A    between atoms: C_5  and  C_6
REMARK    3  A    between atoms: C_8  and  C_9
REMARK    4  A    between atoms: C_12  and  O_13
REMARK    5  A    between atoms: C_16  and  C_17
REMARK    6  A    between atoms: C_20  and  O_21
REMARK                            x       y       z     vdW  Elec       q    Type
REMARK                         _______ _______ _______ _____ _____    ______ ____
ROOT
ATOM      1  C   UNL     1       2.205   8.026  18.272  0.00  0.00    +0.000 C 
ATOM      2  N   UNL     1       1.396   7.006  18.110  0.00  0.00    +0.000 NA
ATOM      3  C   UNL     1       2.293   5.871  17.705  0.00  0.00    +0.000 C 
ATOM      4  C   UNL     1       3.600   6.561  17.200  0.00  0.00    +0.000 C 
ATOM      5  N   UNL     1       3.525   7.820  17.929  0.00  0.00    +0.000 N 
ATOM      6  H   UNL     1       4.075   8.587  17.576  0.00  0.00    +0.000 HD
ENDROOT
BRANCH   1  10
ATOM      7  C   UNL     1       0.823  11.704  19.947  0.00  0.00    +0.000 A 
ATOM      8  C   UNL     1       0.573  10.507  20.609  0.00  0.00    +0.000 A 
ATOM      9  C   UNL     1       1.011   9.310  20.040  0.00  0.00    +0.000 A 
ATOM     10  C   UNL     1       1.699   9.310  18.821  0.00  0.00    +0.000 A 
ATOM     11  C   UNL     1       1.951  10.525  18.170  0.00  0.00    +0.000 A 
ATOM     12  C   UNL     1       1.505  11.721  18.735  0.00  0.00    +0.000 A 
BRANCH   7  13
ATOM     13  O   UNL     1       0.418  12.898  20.464  0.00  0.00    +0.000 OA
ATOM     14  H   UNL     1       1.192  13.479  20.543  0.00  0.00    +0.000 HD
ENDBRANCH   7  13
ENDBRANCH   1  10
BRANCH   3  15
ATOM     15  C   UNL     1       2.438   4.900  18.872  0.00  0.00    +0.000 A 
ATOM     16  C   UNL     1       2.751   3.553  18.640  0.00  0.00    +0.000 A 
ATOM     17  C   UNL     1       2.856   2.654  19.706  0.00  0.00    +0.000 A 
ATOM     18  C   UNL     1       2.650   3.101  21.007  0.00  0.00    +0.000 A 
ATOM     19  C   UNL     1       2.358   4.433  21.263  0.00  0.00    +0.000 A 
ATOM     20  C   UNL     1       2.249   5.326  20.200  0.00  0.00    +0.000 A 
BRANCH  18  21
ATOM     21  O   UNL     1       2.719   2.253  22.072  0.00  0.00    +0.000 OA
ATOM     22  H   UNL     1       3.654   2.065  22.251  0.00  0.00    +0.000 HD
ENDBRANCH  18  21
ENDBRANCH   3  15
BRANCH   4  23
ATOM     23  C   UNL     1       4.890   5.797  17.389  0.00  0.00    +0.000 A 
ATOM     24  C   UNL     1       5.620   5.978  18.579  0.00  0.00    +0.000 A 
ATOM     25  C   UNL     1       6.871   5.381  18.753  0.00  0.00    +0.000 A 
ATOM     26  C   UNL     1       7.384   4.572  17.746  0.00  0.00    +0.000 A 
ATOM     27  C   UNL     1       6.661   4.337  16.586  0.00  0.00    +0.000 A 
ATOM     28  C   UNL     1       5.418   4.947  16.406  0.00  0.00    +0.000 A 
BRANCH  26  29
ATOM     29  O   UNL     1       8.613   3.993  17.860  0.00  0.00    +0.000 OA
ATOM     30  H   UNL     1       9.185   4.589  18.369  0.00  0.00    +0.000 HD
ENDBRANCH  26  29
ENDBRANCH   4  23
TORSDOF 6
ENDMDL
MODEL 2
REMARK VINA RESULT:      -7.1      0.091      1.344
REMARK  Name = 
REMARK  6 active torsions:
REMARK  status: ('A' for Active; 'I' for Inactive)
REMARK    1  A    between atoms: O_1  and  C_2
REMARK    2  A    between atoms: C_5  and  C_6
REMARK    3  A    between atoms: C_8  and  C_9
REMARK    4  A    between atoms: C_12  and  O_13
REMARK    5  A    between atoms: C_16  and  C_17
REMARK    6  A    between atoms: C_20  and  O_21
REMARK                            x       y       z     vdW  Elec       q    Type
REMARK                         _______ _______ _______ _____ _____    ______ ____
ROOT
ATOM      1  C   UNL     1       2.194   8.041  18.320  0.00  0.00    +0.000 C 
ATOM      2  N   UNL     1       1.378   7.029  18.142  0.00  0.00    +0.000 NA
ATOM      3  C   UNL     1       2.268   5.895  17.719  0.00  0.00    +0.000 C 
ATOM      4  C   UNL     1       3.579   6.585  17.223  0.00  0.00    +0.000 C 
ATOM      5  N   UNL     1       3.512   7.833  17.973  0.00  0.00    +0.000 N 
ATOM      6  H   UNL     1       4.066   8.602  17.631  0.00  0.00    +0.000 HD
ENDROOT
BRANCH   1  10
ATOM      7  C   UNL     1       0.686  11.730  19.858  0.00  0.00    +0.000 A 
ATOM      8  C   UNL     1       1.406  11.720  18.668  0.00  0.00    +0.000 A 
ATOM      9  C   UNL     1       1.912  10.511  18.188  0.00  0.00    +0.000 A 
ATOM     10  C   UNL     1       1.695   9.319  18.890  0.00  0.00    +0.000 A 
ATOM     11  C   UNL     1       0.961   9.344  20.083  0.00  0.00    +0.000 A 
ATOM     12  C   UNL     1       0.463  10.555  20.567  0.00  0.00    +0.000 A 
BRANCH   7  13
ATOM     13  O   UNL     1       0.171  12.884  20.366  0.00  0.00    +0.000 OA
ATOM     14  H   UNL     1      -0.119  12.719  21.277  0.00  0.00    +0.000 HD
ENDBRANCH   7  13
ENDBRANCH   1  10
BRANCH   3  15
ATOM     15  C   UNL     1       2.408   4.905  18.869  0.00  0.00    +0.000 A 
ATOM     16  C   UNL     1       2.196   5.318  20.193  0.00  0.00    +0.000 A 
ATOM     17  C   UNL     1       2.352   4.419  21.252  0.00  0.00    +0.000 A 
ATOM     18  C   UNL     1       2.719   3.102  20.990  0.00  0.00    +0.000 A 
ATOM     19  C   UNL     1       2.915   2.665  19.688  0.00  0.00    +0.000 A 
ATOM     20  C   UNL     1       2.764   3.563  18.634  0.00  0.00    +0.000 A 
BRANCH  18  21
ATOM     21  O   UNL     1       2.905   2.201  21.994  0.00  0.00    +0.000 OA
ATOM     22  H   UNL     1       2.601   1.333  21.684  0.00  0.00    +0.000 HD
ENDBRANCH  18  21
ENDBRANCH   3  15
BRANCH   4  23
ATOM     23  C   UNL     1       4.864   5.811  17.399  0.00  0.00    +0.000 A 
ATOM     24  C   UNL     1       5.596   5.969  18.591  0.00  0.00    +0.000 A 
ATOM     25  C   UNL     1       6.844   5.361  18.753  0.00  0.00    +0.000 A 
ATOM     26  C   UNL     1       7.351   4.565  17.733  0.00  0.00    +0.000 A 
ATOM     27  C   UNL     1       6.627   4.354  16.569  0.00  0.00    +0.000 A 
ATOM     28  C   UNL     1       5.387   4.974  16.401  0.00  0.00    +0.000 A 
BRANCH  26  29
ATOM     29  O   UNL     1       8.577   3.978  17.836  0.00  0.00    +0.000 OA
ATOM     30  H   UNL     1       8.483   3.164  18.357  0.00  0.00    +0.000 HD
ENDBRANCH  26  29
ENDBRANCH   4  23
TORSDOF 6
ENDMDL
MODEL 3
REMARK VINA RESULT:      -7.1      2.450      6.860
REMARK  Name = 
REMARK  6 active torsions:
REMARK  status: ('A' for Active; 'I' for Inactive)
REMARK    1  A    between atoms: O_1  and  C_2
REMARK    2  A    between atoms: C_5  and  C_6
REMARK    3  A    between atoms: C_8  and  C_9
REMARK    4  A    between atoms: C_12  and  O_13
REMARK    5  A    between atoms: C_16  and  C_17
REMARK    6  A    between atoms: C_20  and  O_21
REMARK                            x       y       z     vdW  Elec       q    Type
REMARK                         _______ _______ _______ _____ _____    ______ ____
ROOT
ATOM      1  C   UNL     1       5.195   5.386  16.448  0.00  0.00    +0.000 C 
ATOM      2  N   UNL     1       5.348   4.646  17.520  0.00  0.00    +0.000 NA
ATOM      3  C   UNL     1       4.559   5.354  18.585  0.00  0.00    +0.000 C 
ATOM      4  C   UNL     1       4.391   6.812  18.049  0.00  0.00    +0.000 C 
ATOM      5  N   UNL     1       4.517   6.575  16.617  0.00  0.00    +0.000 N 
ATOM      6  H   UNL     1       4.748   7.369  16.041  0.00  0.00    +0.000 HD
ENDROOT
BRANCH   1  10
ATOM      7  C   UNL     1       6.781   4.004  12.730  0.00  0.00    +0.000 A 
ATOM      8  C   UNL     1       7.543   4.843  13.537  0.00  0.00    +0.000 A 
ATOM      9  C   UNL     1       7.004   5.305  14.739  0.00  0.00    +0.000 A 
ATOM     10  C   UNL     1       5.715   4.927  15.134  0.00  0.00    +0.000 A 
ATOM     11  C   UNL     1       4.964   4.075  14.315  0.00  0.00    +0.000 A 
ATOM     12  C   UNL     1       5.499   3.620  13.108  0.00  0.00    +0.000 A 
BRANCH   7  13
ATOM     13  O   UNL     1       7.264   3.525  11.550  0.00  0.00    +0.000 OA
ATOM     14  H   UNL     1       6.630   3.738  10.847  0.00  0.00    +0.000 HD
ENDBRANCH   7  13
ENDBRANCH   1  10
BRANCH   3  15
ATOM     15  C   UNL     1       3.279   4.576  18.868  0.00  0.00    +0.000 A 
ATOM     16  C   UNL     1       2.966   4.173  20.175  0.00  0.00    +0.000 A 
ATOM     17  C   UNL     1       1.808   3.435  20.433  0.00  0.00    +0.000 A 
ATOM     18  C   UNL     1       0.956   3.100  19.385  0.00  0.00    +0.000 A 
ATOM     19  C   UNL     1       1.234   3.504  18.087  0.00  0.00    +0.000 A 
ATOM     20  C   UNL     1       2.392   4.235  17.830  0.00  0.00    +0.000 A 
BRANCH  18  21
ATOM     21  O   UNL     1      -0.170   2.361  19.590  0.00  0.00    +0.000 OA
ATOM     22  H   UNL     1      -0.539   2.602  20.455  0.00  0.00    +0.000 HD
ENDBRANCH  18  21
ENDBRANCH   3  15
BRANCH   4  23
ATOM     23  C   UNL     1       3.137   7.548  18.460  0.00  0.00    +0.000 A 
ATOM     24  C   UNL     1       2.527   8.421  17.540  0.00  0.00    +0.000 A 
ATOM     25  C   UNL     1       1.433   9.205  17.910  0.00  0.00    +0.000 A 
ATOM     26  C   UNL     1       0.923   9.096  19.198  0.00  0.00    +0.000 A 
ATOM     27  C   UNL     1       1.475   8.207  20.109  0.00  0.00    +0.000 A 
ATOM     28  C   UNL     1       2.579   7.435  19.743  0.00  0.00    +0.000 A 
BRANCH  26  29
ATOM     29  O   UNL     1      -0.125   9.865  19.613  0.00  0.00    +0.000 OA
ATOM     30  H   UNL     1      -0.323   9.639  20.536  0.00  0.00    +0.000 HD
ENDBRANCH  26  29
ENDBRANCH   4  23
TORSDOF 6
ENDMDL
MODEL 4
REMARK VINA RESULT:      -7.0      0.279      1.367
REMARK  Name = 
REMARK  6 active torsions:
REMARK  status: ('A' for Active; 'I' for Inactive)
REMARK    1  A    between atoms: O_1  and  C_2
REMARK    2  A    between atoms: C_5  and  C_6
REMARK    3  A    between atoms: C_8  and  C_9
REMARK    4  A    between atoms: C_12  and  O_13
REMARK    5  A    between atoms: C_16  and  C_17
REMARK    6  A    between atoms: C_20  and  O_21
REMARK                            x       y       z     vdW  Elec       q    Type
REMARK                         _______ _______ _______ _____ _____    ______ ____
ROOT
ATOM      1  C   UNL     1       2.205   8.173  18.258  0.00  0.00    +0.000 C 
ATOM      2  N   UNL     1       1.451   7.118  18.058  0.00  0.00    +0.000 NA
ATOM      3  C   UNL     1       2.407   6.045  17.623  0.00  0.00    +0.000 C 
ATOM      4  C   UNL     1       3.679   6.817  17.149  0.00  0.00    +0.000 C 
ATOM      5  N   UNL     1       3.535   8.046  17.918  0.00  0.00    +0.000 N 
ATOM      6  H   UNL     1       4.047   8.852  17.593  0.00  0.00    +0.000 HD
ENDROOT
BRANCH   1  10
ATOM      7  C   UNL     1       0.487  11.751  19.837  0.00  0.00    +0.000 A 
ATOM      8  C   UNL     1       1.324  11.817  18.729  0.00  0.00    +0.000 A 
ATOM      9  C   UNL     1       1.896  10.643  18.236  0.00  0.00    +0.000 A 
ATOM     10  C   UNL     1       1.629   9.411  18.844  0.00  0.00    +0.000 A 
ATOM     11  C   UNL     1       0.777   9.359  19.955  0.00  0.00    +0.000 A 
ATOM     12  C   UNL     1       0.212  10.534  20.452  0.00  0.00    +0.000 A 
BRANCH   7  13
ATOM     13  O   UNL     1      -0.098  12.868  20.353  0.00  0.00    +0.000 OA
ATOM     14  H   UNL     1      -1.041  12.857  20.125  0.00  0.00    +0.000 HD
ENDBRANCH   7  13
ENDBRANCH   1  10
BRANCH   3  15
ATOM     15  C   UNL     1       2.596   5.045  18.759  0.00  0.00    +0.000 A 
ATOM     16  C   UNL     1       3.016   3.734  18.489  0.00  0.00    +0.000 A 
ATOM     17  C   UNL     1       3.163   2.808  19.526  0.00  0.00    +0.000 A 
ATOM     18  C   UNL     1       2.892   3.191  20.836  0.00  0.00    +0.000 A 
ATOM     19  C   UNL     1       2.494   4.487  21.129  0.00  0.00    +0.000 A 
ATOM     20  C   UNL     1       2.344   5.407  20.095  0.00  0.00    +0.000 A 
BRANCH  18  21
ATOM     21  O   UNL     1       2.998   2.312  21.871  0.00  0.00    +0.000 OA
ATOM     22  H   UNL     1       2.843   2.796  22.698  0.00  0.00    +0.000 HD
ENDBRANCH  18  21
ENDBRANCH   3  15
BRANCH   4  23
ATOM     23  C   UNL     1       5.006   6.116  17.323  0.00  0.00    +0.000 A 
ATOM     24  C   UNL     1       5.493   5.311  16.275  0.00  0.00    +0.000 A 
ATOM     25  C   UNL     1       6.658   4.556  16.431  0.00  0.00    +0.000 A 
ATOM     26  C   UNL     1       7.359   4.627  17.629  0.00  0.00    +0.000 A 
ATOM     27  C   UNL     1       6.927   5.450  18.658  0.00  0.00    +0.000 A 
ATOM     28  C   UNL     1       5.754   6.193  18.507  0.00  0.00    +0.000 A 
BRANCH  26  29
ATOM     29  O   UNL     1       8.484   3.884  17.836  0.00  0.00    +0.000 OA
ATOM     30  H   UNL     1       8.901   3.714  16.976  0.00  0.00    +0.000 HD
ENDBRANCH  26  29
ENDBRANCH   4  23
TORSDOF 6
ENDMDL
MODEL 5
REMARK VINA RESULT:      -7.0      2.469      6.784
REMARK  Name = 
REMARK  6 active torsions:
REMARK  status: ('A' for Active; 'I' for Inactive)
REMARK    1  A    between atoms: O_1  and  C_2
REMARK    2  A    between atoms: C_5  and  C_6
REMARK    3  A    between atoms: C_8  and  C_9
REMARK    4  A    between atoms: C_12  and  O_13
REMARK    5  A    between atoms: C_16  and  C_17
REMARK    6  A    between atoms: C_20  and  O_21
REMARK                            x       y       z     vdW  Elec       q    Type
REMARK                         _______ _______ _______ _____ _____    ______ ____
ROOT
ATOM      1  C   UNL     1       5.304   5.319  16.508  0.00  0.00    +0.000 C 
ATOM      2  N   UNL     1       5.438   4.580  17.583  0.00  0.00    +0.000 NA
ATOM      3  C   UNL     1       4.625   5.286  18.632  0.00  0.00    +0.000 C 
ATOM      4  C   UNL     1       4.464   6.743  18.092  0.00  0.00    +0.000 C 
ATOM      5  N   UNL     1       4.619   6.506  16.663  0.00  0.00    +0.000 N 
ATOM      6  H   UNL     1       4.860   7.301  16.092  0.00  0.00    +0.000 HD
ENDROOT
BRANCH   1  10
ATOM      7  C   UNL     1       6.791   4.064  12.705  0.00  0.00    +0.000 A 
ATOM      8  C   UNL     1       5.534   3.644  13.129  0.00  0.00    +0.000 A 
ATOM      9  C   UNL     1       5.070   4.044  14.383  0.00  0.00    +0.000 A 
ATOM     10  C   UNL     1       5.853   4.862  15.206  0.00  0.00    +0.000 A 
ATOM     11  C   UNL     1       7.113   5.283  14.762  0.00  0.00    +0.000 A 
ATOM     12  C   UNL     1       7.581   4.877  13.511  0.00  0.00    +0.000 A 
BRANCH   7  13
ATOM     13  O   UNL     1       7.287   3.703  11.489  0.00  0.00    +0.000 OA
ATOM     14  H   UNL     1       6.570   3.752  10.836  0.00  0.00    +0.000 HD
ENDBRANCH   7  13
ENDBRANCH   1  10
BRANCH   3  15
ATOM     15  C   UNL     1       3.342   4.504  18.889  0.00  0.00    +0.000 A 
ATOM     16  C   UNL     1       2.485   4.176  17.828  0.00  0.00    +0.000 A 
ATOM     17  C   UNL     1       1.293   3.485  18.065  0.00  0.00    +0.000 A 
ATOM     18  C   UNL     1       0.957   3.116  19.364  0.00  0.00    +0.000 A 
ATOM     19  C   UNL     1       1.798   3.412  20.427  0.00  0.00    +0.000 A 
ATOM     20  C   UNL     1       2.982   4.106  20.190  0.00  0.00    +0.000 A 
BRANCH  18  21
ATOM     21  O   UNL     1      -0.207   2.464  19.641  0.00  0.00    +0.000 OA
ATOM     22  H   UNL     1      -0.619   2.889  20.410  0.00  0.00    +0.000 HD
ENDBRANCH  18  21
ENDBRANCH   3  15
BRANCH   4  23
ATOM     23  C   UNL     1       3.199   7.475  18.477  0.00  0.00    +0.000 A 
ATOM     24  C   UNL     1       2.599   8.336  17.540  0.00  0.00    +0.000 A 
ATOM     25  C   UNL     1       1.494   9.117  17.886  0.00  0.00    +0.000 A 
ATOM     26  C   UNL     1       0.965   9.017  19.167  0.00  0.00    +0.000 A 
ATOM     27  C   UNL     1       1.508   8.139  20.094  0.00  0.00    +0.000 A 
ATOM     28  C   UNL     1       2.622   7.370  19.752  0.00  0.00    +0.000 A 
BRANCH  26  29
ATOM     29  O   UNL     1      -0.094   9.783  19.559  0.00  0.00    +0.000 OA
ATOM     30  H   UNL     1      -0.763   9.761  18.856  0.00  0.00    +0.000 HD
ENDBRANCH  26  29
ENDBRANCH   4  23
TORSDOF 6
ENDMDL
MODEL 6
REMARK VINA RESULT:      -7.0      0.327      1.376
REMARK  Name = 
REMARK  6 active torsions:
REMARK  status: ('A' for Active; 'I' for Inactive)
REMARK    1  A    between atoms: O_1  and  C_2
REMARK    2  A    between atoms: C_5  and  C_6
REMARK    3  A    between atoms: C_8  and  C_9
REMARK    4  A    between atoms: C_12  and  O_13
REMARK    5  A    between atoms: C_16  and  C_17
REMARK    6  A    between atoms: C_20  and  O_21
REMARK                            x       y       z     vdW  Elec       q    Type
REMARK                         _______ _______ _______ _____ _____    ______ ____
ROOT
ATOM      1  C   UNL     1       2.175   8.052  18.317  0.00  0.00    +0.000 C 
ATOM      2  N   UNL     1       1.442   6.991  18.081  0.00  0.00    +0.000 NA
ATOM      3  C   UNL     1       2.420   5.947  17.621  0.00  0.00    +0.000 C 
ATOM      4  C   UNL     1       3.681   6.757  17.177  0.00  0.00    +0.000 C 
ATOM      5  N   UNL     1       3.510   7.960  17.981  0.00  0.00    +0.000 N 
ATOM      6  H   UNL     1       4.008   8.784  17.683  0.00  0.00    +0.000 HD
ENDROOT
BRANCH   1  10
ATOM      7  C   UNL     1       0.532  11.525  20.184  0.00  0.00    +0.000 A 
ATOM      8  C   UNL     1       0.496  10.302  20.846  0.00  0.00    +0.000 A 
ATOM      9  C   UNL     1       1.017   9.171  20.216  0.00  0.00    +0.000 A 
ATOM     10  C   UNL     1       1.574   9.262  18.935  0.00  0.00    +0.000 A 
ATOM     11  C   UNL     1       1.610  10.502  18.284  0.00  0.00    +0.000 A 
ATOM     12  C   UNL     1       1.081  11.632  18.911  0.00  0.00    +0.000 A 
BRANCH   7  13
ATOM     13  O   UNL     1       0.039  12.657  20.759  0.00  0.00    +0.000 OA
ATOM     14  H   UNL     1      -0.916  12.698  20.591  0.00  0.00    +0.000 HD
ENDBRANCH   7  13
ENDBRANCH   1  10
BRANCH   3  15
ATOM     15  C   UNL     1       2.622   4.919  18.729  0.00  0.00    +0.000 A 
ATOM     16  C   UNL     1       2.353   5.251  20.065  0.00  0.00    +0.000 A 
ATOM     17  C   UNL     1       2.564   4.319  21.085  0.00  0.00    +0.000 A 
ATOM     18  C   UNL     1       3.042   3.051  20.771  0.00  0.00    +0.000 A 
ATOM     19  C   UNL     1       3.297   2.693  19.456  0.00  0.00    +0.000 A 
ATOM     20  C   UNL     1       3.091   3.624  18.441  0.00  0.00    +0.000 A 
BRANCH  18  21
ATOM     21  O   UNL     1       3.285   2.122  21.738  0.00  0.00    +0.000 OA
ATOM     22  H   UNL     1       4.243   2.090  21.896  0.00  0.00    +0.000 HD
ENDBRANCH  18  21
ENDBRANCH   3  15
BRANCH   4  23
ATOM     23  C   UNL     1       5.019   6.075  17.339  0.00  0.00    +0.000 A 
ATOM     24  C   UNL     1       5.519   5.297  16.277  0.00  0.00    +0.000 A 
ATOM     25  C   UNL     1       6.696   4.559  16.419  0.00  0.00    +0.000 A 
ATOM     26  C   UNL     1       7.397   4.621  17.618  0.00  0.00    +0.000 A 
ATOM     27  C   UNL     1       6.952   5.418  18.662  0.00  0.00    +0.000 A 
ATOM     28  C   UNL     1       5.766   6.144  18.524  0.00  0.00    +0.000 A 
BRANCH  26  29
ATOM     29  O   UNL     1       8.534   3.894  17.812  0.00  0.00    +0.000 OA
ATOM     30  H   UNL     1       8.764   3.457  16.976  0.00  0.00    +0.000 HD
ENDBRANCH  26  29
ENDBRANCH   4  23
TORSDOF 6
ENDMDL
MODEL 7
REMARK VINA RESULT:      -6.8      1.418      1.871
REMARK  Name = 
REMARK  6 active torsions:
REMARK  status: ('A' for Active; 'I' for Inactive)
REMARK    1  A    between atoms: O_1  and  C_2
REMARK    2  A    between atoms: C_5  and  C_6
REMARK    3  A    between atoms: C_8  and  C_9
REMARK    4  A    between atoms: C_12  and  O_13
REMARK    5  A    between atoms: C_16  and  C_17
REMARK    6  A    between atoms: C_20  and  O_21
REMARK                            x       y       z     vdW  Elec       q    Type
REMARK                         _______ _______ _______ _____ _____    ______ ____
ROOT
ATOM      1  C   UNL     1       2.050   7.898  19.076  0.00  0.00    +0.000 C 
ATOM      2  N   UNL     1       1.293   7.199  18.263  0.00  0.00    +0.000 NA
ATOM      3  C   UNL     1       2.257   6.348  17.486  0.00  0.00    +0.000 C 
ATOM      4  C   UNL     1       3.638   7.058  17.657  0.00  0.00    +0.000 C 
ATOM      5  N   UNL     1       3.412   7.761  18.913  0.00  0.00    +0.000 N 
ATOM      6  H   UNL     1       4.021   8.537  19.118  0.00  0.00    +0.000 HD
ENDROOT
BRANCH   1  10
ATOM      7  C   UNL     1       0.182  10.365  22.021  0.00  0.00    +0.000 A 
ATOM      8  C   UNL     1       0.196  10.769  20.690  0.00  0.00    +0.000 A 
ATOM      9  C   UNL     1       0.829   9.963  19.741  0.00  0.00    +0.000 A 
ATOM     10  C   UNL     1       1.439   8.761  20.119  0.00  0.00    +0.000 A 
ATOM     11  C   UNL     1       1.409   8.365  21.462  0.00  0.00    +0.000 A 
ATOM     12  C   UNL     1       0.783   9.174  22.412  0.00  0.00    +0.000 A 
BRANCH   7  13
ATOM     13  O   UNL     1      -0.425  11.115  22.982  0.00  0.00    +0.000 OA
ATOM     14  H   UNL     1      -0.215  10.734  23.850  0.00  0.00    +0.000 HD
ENDBRANCH   7  13
ENDBRANCH   1  10
BRANCH   3  15
ATOM     15  C   UNL     1       2.163   4.906  17.972  0.00  0.00    +0.000 A 
ATOM     16  C   UNL     1       2.546   3.847  17.135  0.00  0.00    +0.000 A 
ATOM     17  C   UNL     1       2.434   2.523  17.568  0.00  0.00    +0.000 A 
ATOM     18  C   UNL     1       1.941   2.253  18.841  0.00  0.00    +0.000 A 
ATOM     19  C   UNL     1       1.575   3.284  19.694  0.00  0.00    +0.000 A 
ATOM     20  C   UNL     1       1.682   4.603  19.260  0.00  0.00    +0.000 A 
BRANCH  18  21
ATOM     21  O   UNL     1       1.793   0.976  19.291  0.00  0.00    +0.000 OA
ATOM     22  H   UNL     1       2.616   0.493  19.114  0.00  0.00    +0.000 HD
ENDBRANCH  18  21
ENDBRANCH   3  15
BRANCH   4  23
ATOM     23  C   UNL     1       4.864   6.175  17.639  0.00  0.00    +0.000 A 
ATOM     24  C   UNL     1       5.367   5.684  18.858  0.00  0.00    +0.000 A 
ATOM     25  C   UNL     1       6.559   4.957  18.903  0.00  0.00    +0.000 A 
ATOM     26  C   UNL     1       7.239   4.691  17.720  0.00  0.00    +0.000 A 
ATOM     27  C   UNL     1       6.737   5.121  16.500  0.00  0.00    +0.000 A 
ATOM     28  C   UNL     1       5.554   5.861  16.458  0.00  0.00    +0.000 A 
BRANCH  26  29
ATOM     29  O   UNL     1       8.421   4.012  17.719  0.00  0.00    +0.000 OA
ATOM     30  H   UNL     1       8.235   3.075  17.545  0.00  0.00    +0.000 HD
ENDBRANCH  26  29
ENDBRANCH   4  23
TORSDOF 6
ENDMDL
MODEL 8
REMARK VINA RESULT:      -6.7      1.439      1.909
REMARK  Name = 
REMARK  6 active torsions:
REMARK  status: ('A' for Active; 'I' for Inactive)
REMARK    1  A    between atoms: O_1  and  C_2
REMARK    2  A    between atoms: C_5  and  C_6
REMARK    3  A    between atoms: C_8  and  C_9
REMARK    4  A    between atoms: C_12  and  O_13
REMARK    5  A    between atoms: C_16  and  C_17
REMARK    6  A    between atoms: C_20  and  O_21
REMARK                            x       y       z     vdW  Elec       q    Type
REMARK                         _______ _______ _______ _____ _____    ______ ____
ROOT
ATOM      1  C   UNL     1       1.956   7.983  19.069  0.00  0.00    +0.000 C 
ATOM      2  N   UNL     1       1.261   7.252  18.231  0.00  0.00    +0.000 NA
ATOM      3  C   UNL     1       2.290   6.461  17.473  0.00  0.00    +0.000 C 
ATOM      4  C   UNL     1       3.625   7.243  17.686  0.00  0.00    +0.000 C 
ATOM      5  N   UNL     1       3.328   7.922  18.941  0.00  0.00    +0.000 N 
ATOM      6  H   UNL     1       3.888   8.728  19.169  0.00  0.00    +0.000 HD
ENDROOT
BRANCH   1  10
ATOM      7  C   UNL     1       0.098  10.362  22.091  0.00  0.00    +0.000 A 
ATOM      8  C   UNL     1       0.766   9.195  22.444  0.00  0.00    +0.000 A 
ATOM      9  C   UNL     1       1.351   8.415  21.444  0.00  0.00    +0.000 A 
ATOM     10  C   UNL     1       1.271   8.802  20.102  0.00  0.00    +0.000 A 
ATOM     11  C   UNL     1       0.602   9.984  19.762  0.00  0.00    +0.000 A 
ATOM     12  C   UNL     1       0.010  10.760  20.761  0.00  0.00    +0.000 A 
BRANCH   7  13
ATOM     13  O   UNL     1      -0.486  11.158  23.030  0.00  0.00    +0.000 OA
ATOM     14  H   UNL     1      -0.944  11.884  22.578  0.00  0.00    +0.000 HD
ENDBRANCH   7  13
ENDBRANCH   1  10
BRANCH   3  15
ATOM     15  C   UNL     1       2.263   5.012  17.945  0.00  0.00    +0.000 A 
ATOM     16  C   UNL     1       2.660   3.977  17.086  0.00  0.00    +0.000 A 
ATOM     17  C   UNL     1       2.609   2.645  17.507  0.00  0.00    +0.000 A 
ATOM     18  C   UNL     1       2.162   2.344  18.790  0.00  0.00    +0.000 A 
ATOM     19  C   UNL     1       1.782   3.351  19.664  0.00  0.00    +0.000 A 
ATOM     20  C   UNL     1       1.829   4.678  19.242  0.00  0.00    +0.000 A 
BRANCH  18  21
ATOM     21  O   UNL     1       2.073   1.057  19.230  0.00  0.00    +0.000 OA
ATOM     22  H   UNL     1       2.706   0.940  19.957  0.00  0.00    +0.000 HD
ENDBRANCH  18  21
ENDBRANCH   3  15
BRANCH   4  23
ATOM     23  C   UNL     1       4.898   6.429  17.694  0.00  0.00    +0.000 A 
ATOM     24  C   UNL     1       5.590   6.236  16.484  0.00  0.00    +0.000 A 
ATOM     25  C   UNL     1       6.707   5.401  16.421  0.00  0.00    +0.000 A 
ATOM     26  C   UNL     1       7.157   4.778  17.579  0.00  0.00    +0.000 A 
ATOM     27  C   UNL     1       6.522   4.991  18.794  0.00  0.00    +0.000 A 
ATOM     28  C   UNL     1       5.396   5.814  18.853  0.00  0.00    +0.000 A 
BRANCH  26  29
ATOM     29  O   UNL     1       8.226   3.930  17.559  0.00  0.00    +0.000 OA
ATOM     30  H   UNL     1       7.893   3.019  17.536  0.00  0.00    +0.000 HD
ENDBRANCH  26  29
ENDBRANCH   4  23
TORSDOF 6
ENDMDL
MODEL 9
REMARK VINA RESULT:      -6.4      2.639      6.878
REMARK  Name = 
REMARK  6 active torsions:
REMARK  status: ('A' for Active; 'I' for Inactive)
REMARK    1  A    between atoms: O_1  and  C_2
REMARK    2  A    between atoms: C_5  and  C_6
REMARK    3  A    between atoms: C_8  and  C_9
REMARK    4  A    between atoms: C_12  and  O_13
REMARK    5  A    between atoms: C_16  and  C_17
REMARK    6  A    between atoms: C_20  and  O_21
REMARK                            x       y       z     vdW  Elec       q    Type
REMARK                         _______ _______ _______ _____ _____    ______ ____
ROOT
ATOM      1  C   UNL     1       5.375   5.218  16.218  0.00  0.00    +0.000 C 
ATOM      2  N   UNL     1       5.502   4.437  17.264  0.00  0.00    +0.000 NA
ATOM      3  C   UNL     1       4.777   5.157  18.365  0.00  0.00    +0.000 C 
ATOM      4  C   UNL     1       4.688   6.638  17.877  0.00  0.00    +0.000 C 
ATOM      5  N   UNL     1       4.774   6.439  16.436  0.00  0.00    +0.000 N 
ATOM      6  H   UNL     1       5.043   7.236  15.880  0.00  0.00    +0.000 HD
ENDROOT
BRANCH   1  10
ATOM      7  C   UNL     1       6.818   3.871  12.430  0.00  0.00    +0.000 A 
ATOM      8  C   UNL     1       7.592   4.735  13.196  0.00  0.00    +0.000 A 
ATOM      9  C   UNL     1       7.099   5.185  14.422  0.00  0.00    +0.000 A 
ATOM     10  C   UNL     1       5.844   4.770  14.881  0.00  0.00    +0.000 A 
ATOM     11  C   UNL     1       5.079   3.892  14.102  0.00  0.00    +0.000 A 
ATOM     12  C   UNL     1       5.568   3.449  12.872  0.00  0.00    +0.000 A 
BRANCH   7  13
ATOM     13  O   UNL     1       7.256   3.402  11.228  0.00  0.00    +0.000 OA
ATOM     14  H   UNL     1       6.993   4.030  10.537  0.00  0.00    +0.000 HD
ENDBRANCH   7  13
ENDBRANCH   1  10
BRANCH   3  15
ATOM     15  C   UNL     1       3.457   4.449  18.649  0.00  0.00    +0.000 A 
ATOM     16  C   UNL     1       3.192   3.924  19.923  0.00  0.00    +0.000 A 
ATOM     17  C   UNL     1       1.995   3.249  20.178  0.00  0.00    +0.000 A 
ATOM     18  C   UNL     1       1.057   3.099  19.161  0.00  0.00    +0.000 A 
ATOM     19  C   UNL     1       1.289   3.626  17.899  0.00  0.00    +0.000 A 
ATOM     20  C   UNL     1       2.484   4.294  17.644  0.00  0.00    +0.000 A 
BRANCH  18  21
ATOM     21  O   UNL     1      -0.110   2.426  19.361  0.00  0.00    +0.000 OA
ATOM     22  H   UNL     1      -0.675   2.963  19.941  0.00  0.00    +0.000 HD
ENDBRANCH  18  21
ENDBRANCH   3  15
BRANCH   4  23
ATOM     23  C   UNL     1       3.488   7.434  18.335  0.00  0.00    +0.000 A 
ATOM     24  C   UNL     1       2.990   7.229  19.635  0.00  0.00    +0.000 A 
ATOM     25  C   UNL     1       1.820   7.859  20.064  0.00  0.00    +0.000 A 
ATOM     26  C   UNL     1       1.157   8.724  19.201  0.00  0.00    +0.000 A 
ATOM     27  C   UNL     1       1.654   8.980  17.932  0.00  0.00    +0.000 A 
ATOM     28  C   UNL     1       2.816   8.339  17.498  0.00  0.00    +0.000 A 
BRANCH  26  29
ATOM     29  O   UNL     1      -0.005   9.336  19.567  0.00  0.00    +0.000 OA
ATOM     30  H   UNL     1      -0.463   9.627  18.762  0.00  0.00    +0.000 HD
ENDBRANCH  26  29
ENDBRANCH   4  23
TORSDOF 6
ENDMDL
