MODEL 1
REMARK VINA RESULT:      -7.4      0.000      0.000
REMARK  Name = 
REMARK  8 active torsions:
REMARK  status: ('A' for Active; 'I' for Inactive)
REMARK    1  A    between atoms: C_1  and  C_2
REMARK    2  A    between atoms: C_2  and  O_3
REMARK    3  A    between atoms: O_3  and  C_4
REMARK    4  A    between atoms: C_4  and  C_6
REMARK    5  A    between atoms: C_11  and  C_12
REMARK    6  A    between atoms: N_13  and  C_14
REMARK    7  A    between atoms: C_14  and  C_15
REMARK    8  A    between atoms: C_19  and  C_20
REMARK                            x       y       z     vdW  Elec       q    Type
REMARK                         _______ _______ _______ _____ _____    ______ ____
ROOT
ATOM      1  C   UNL     1       6.590   5.697  17.905  0.00  0.00    +0.000 A 
ATOM      2  N   UNL     1       7.221   4.818  18.707  0.00  0.00    +0.000 NA
ATOM      3  O   UNL     1       6.256   4.344  19.586  0.00  0.00    +0.000 OA
ATOM      4  C   UNL     1       5.053   4.917  19.301  0.00  0.00    +0.000 A 
ATOM      5  N   UNL     1       3.896   4.639  19.937  0.00  0.00    +0.000 NA
ATOM      6  C   UNL     1       2.864   5.303  19.500  0.00  0.00    +0.000 A 
ATOM      7  C   UNL     1       1.541   5.017  20.160  0.00  0.00    +0.000 C 
ATOM      8  N   UNL     1       2.911   6.247  18.467  0.00  0.00    +0.000 N 
ATOM      9  C   UNL     1       4.096   6.485  17.748  0.00  0.00    +0.000 A 
ATOM     10  O   UNL     1       4.151   7.195  16.752  0.00  0.00    +0.000 OA
ATOM     11  C   UNL     1       5.230   5.780  18.258  0.00  0.00    +0.000 A 
ENDROOT
BRANCH   1  12
ATOM     12  C   UNL     1       7.264   6.381  16.810  0.00  0.00    +0.000 C 
ATOM     13  O   UNL     1       7.463   7.589  16.786  0.00  0.00    +0.000 OA
BRANCH  12  14
ATOM     14  O   UNL     1       7.540   5.540  15.769  0.00  0.00    +0.000 OA
BRANCH  14  16
ATOM     15  C   UNL     1       6.242   3.868  14.661  0.00  0.00    +0.000 C 
ATOM     16  C   UNL     1       6.464   5.361  14.839  0.00  0.00    +0.000 C 
ENDBRANCH  14  16
ENDBRANCH  12  14
ENDBRANCH   1  12
BRANCH   8  17
ATOM     17  C   UNL     1       1.769   7.075  18.086  0.00  0.00    +0.000 C 
BRANCH  17  18
ATOM     18  C   UNL     1       1.618   8.389  18.833  0.00  0.00    +0.000 A 
ATOM     19  C   UNL     1       1.703   9.584  18.096  0.00  0.00    +0.000 A 
ATOM     20  C   UNL     1       1.457  10.821  18.697  0.00  0.00    +0.000 A 
ATOM     21  C   UNL     1       1.113  10.883  20.046  0.00  0.00    +0.000 A 
ATOM     22  C   UNL     1       1.039   9.709  20.799  0.00  0.00    +0.000 A 
ATOM     23  C   UNL     1       1.318   8.471  20.201  0.00  0.00    +0.000 A 
BRANCH  22  24
ATOM     24  C   UNL     1       0.626   9.758  22.171  0.00  0.00    +0.000 C 
ATOM     25  N   UNL     1       0.304   9.816  23.284  0.00  0.00    +0.000 NA
ENDBRANCH  22  24
ENDBRANCH  17  18
ENDBRANCH   8  17
TORSDOF 6
ENDMDL
MODEL 2
REMARK VINA RESULT:      -7.4      1.162      1.994
REMARK  Name = 
REMARK  8 active torsions:
REMARK  status: ('A' for Active; 'I' for Inactive)
REMARK    1  A    between atoms: C_1  and  C_2
REMARK    2  A    between atoms: C_2  and  O_3
REMARK    3  A    between atoms: O_3  and  C_4
REMARK    4  A    between atoms: C_4  and  C_6
REMARK    5  A    between atoms: C_11  and  C_12
REMARK    6  A    between atoms: N_13  and  C_14
REMARK    7  A    between atoms: C_14  and  C_15
REMARK    8  A    between atoms: C_19  and  C_20
REMARK                            x       y       z     vdW  Elec       q    Type
REMARK                         _______ _______ _______ _____ _____    ______ ____
ROOT
ATOM      1  C   UNL     1       6.658   5.834  18.312  0.00  0.00    +0.000 A 
ATOM      2  N   UNL     1       7.206   4.831  19.023  0.00  0.00    +0.000 NA
ATOM      3  O   UNL     1       6.145   4.161  19.616  0.00  0.00    +0.000 OA
ATOM      4  C   UNL     1       4.969   4.743  19.248  0.00  0.00    +0.000 A 
ATOM      5  N   UNL     1       3.745   4.308  19.613  0.00  0.00    +0.000 NA
ATOM      6  C   UNL     1       2.757   5.015  19.143  0.00  0.00    +0.000 A 
ATOM      7  C   UNL     1       1.366   4.562  19.501  0.00  0.00    +0.000 C 
ATOM      8  N   UNL     1       2.909   6.149  18.336  0.00  0.00    +0.000 N 
ATOM      9  C   UNL     1       4.177   6.563  17.889  0.00  0.00    +0.000 A 
ATOM     10  O   UNL     1       4.346   7.461  17.074  0.00  0.00    +0.000 OA
ATOM     11  C   UNL     1       5.256   5.804  18.437  0.00  0.00    +0.000 A 
ENDROOT
BRANCH   1  12
ATOM     12  C   UNL     1       7.454   6.745  17.501  0.00  0.00    +0.000 C 
ATOM     13  O   UNL     1       7.568   6.647  16.285  0.00  0.00    +0.000 OA
BRANCH  12  14
ATOM     14  O   UNL     1       8.147   7.643  18.263  0.00  0.00    +0.000 OA
BRANCH  14  16
ATOM     15  C   UNL     1       8.890   9.858  18.762  0.00  0.00    +0.000 C 
ATOM     16  C   UNL     1       8.084   8.998  17.802  0.00  0.00    +0.000 C 
ENDBRANCH  14  16
ENDBRANCH  12  14
ENDBRANCH   1  12
BRANCH   8  17
ATOM     17  C   UNL     1       1.793   7.003  17.935  0.00  0.00    +0.000 C 
BRANCH  17  18
ATOM     18  C   UNL     1       1.631   8.299  18.711  0.00  0.00    +0.000 A 
ATOM     19  C   UNL     1       1.595   9.504  17.987  0.00  0.00    +0.000 A 
ATOM     20  C   UNL     1       1.331  10.720  18.623  0.00  0.00    +0.000 A 
ATOM     21  C   UNL     1       1.089  10.749  19.995  0.00  0.00    +0.000 A 
ATOM     22  C   UNL     1       1.136   9.564  20.735  0.00  0.00    +0.000 A 
ATOM     23  C   UNL     1       1.433   8.350  20.098  0.00  0.00    +0.000 A 
BRANCH  22  24
ATOM     24  C   UNL     1       0.828   9.577  22.135  0.00  0.00    +0.000 C 
ATOM     25  N   UNL     1       0.594   9.571  23.271  0.00  0.00    +0.000 NA
ENDBRANCH  22  24
ENDBRANCH  17  18
ENDBRANCH   8  17
TORSDOF 6
ENDMDL
MODEL 3
REMARK VINA RESULT:      -7.2      2.766      4.989
REMARK  Name = 
REMARK  8 active torsions:
REMARK  status: ('A' for Active; 'I' for Inactive)
REMARK    1  A    between atoms: C_1  and  C_2
REMARK    2  A    between atoms: C_2  and  O_3
REMARK    3  A    between atoms: O_3  and  C_4
REMARK    4  A    between atoms: C_4  and  C_6
REMARK    5  A    between atoms: C_11  and  C_12
REMARK    6  A    between atoms: N_13  and  C_14
REMARK    7  A    between atoms: C_14  and  C_15
REMARK    8  A    between atoms: C_19  and  C_20
REMARK                            x       y       z     vdW  Elec       q    Type
REMARK                         _______ _______ _______ _____ _____    ______ ____
ROOT
ATOM      1  C   UNL     1       6.679   4.359  13.441  0.00  0.00    +0.000 A 
ATOM      2  N   UNL     1       7.639   5.206  13.026  0.00  0.00    +0.000 NA
ATOM      3  O   UNL     1       8.063   5.886  14.160  0.00  0.00    +0.000 OA
ATOM      4  C   UNL     1       7.380   5.435  15.249  0.00  0.00    +0.000 A 
ATOM      5  N   UNL     1       7.583   5.854  16.516  0.00  0.00    +0.000 NA
ATOM      6  C   UNL     1       6.818   5.286  17.403  0.00  0.00    +0.000 A 
ATOM      7  C   UNL     1       7.016   5.700  18.838  0.00  0.00    +0.000 C 
ATOM      8  N   UNL     1       5.841   4.327  17.108  0.00  0.00    +0.000 N 
ATOM      9  C   UNL     1       5.676   3.830  15.803  0.00  0.00    +0.000 A 
ATOM     10  O   UNL     1       4.935   2.897  15.525  0.00  0.00    +0.000 OA
ATOM     11  C   UNL     1       6.494   4.483  14.831  0.00  0.00    +0.000 A 
ENDROOT
BRANCH   1  12
ATOM     12  C   UNL     1       6.012   3.429  12.539  0.00  0.00    +0.000 C 
ATOM     13  O   UNL     1       6.578   2.490  11.994  0.00  0.00    +0.000 OA
BRANCH  12  14
ATOM     14  O   UNL     1       4.721   3.796  12.284  0.00  0.00    +0.000 OA
BRANCH  14  16
ATOM     15  C   UNL     1       3.372   3.949  10.319  0.00  0.00    +0.000 C 
ATOM     16  C   UNL     1       4.055   3.003  11.292  0.00  0.00    +0.000 C 
ENDBRANCH  14  16
ENDBRANCH  12  14
ENDBRANCH   1  12
BRANCH   8  17
ATOM     17  C   UNL     1       4.904   3.805  18.102  0.00  0.00    +0.000 C 
BRANCH  17  18
ATOM     18  C   UNL     1       3.861   4.784  18.614  0.00  0.00    +0.000 A 
ATOM     19  C   UNL     1       3.264   4.522  19.861  0.00  0.00    +0.000 A 
ATOM     20  C   UNL     1       2.386   5.439  20.445  0.00  0.00    +0.000 A 
ATOM     21  C   UNL     1       2.098   6.638  19.797  0.00  0.00    +0.000 A 
ATOM     22  C   UNL     1       2.669   6.909  18.551  0.00  0.00    +0.000 A 
ATOM     23  C   UNL     1       3.524   5.973  17.951  0.00  0.00    +0.000 A 
BRANCH  22  24
ATOM     24  C   UNL     1       2.426   8.166  17.905  0.00  0.00    +0.000 C 
ATOM     25  N   UNL     1       2.243   9.192  17.396  0.00  0.00    +0.000 NA
ENDBRANCH  22  24
ENDBRANCH  17  18
ENDBRANCH   8  17
TORSDOF 6
ENDMDL
MODEL 4
REMARK VINA RESULT:      -7.0      1.809      2.653
REMARK  Name = 
REMARK  8 active torsions:
REMARK  status: ('A' for Active; 'I' for Inactive)
REMARK    1  A    between atoms: C_1  and  C_2
REMARK    2  A    between atoms: C_2  and  O_3
REMARK    3  A    between atoms: O_3  and  C_4
REMARK    4  A    between atoms: C_4  and  C_6
REMARK    5  A    between atoms: C_11  and  C_12
REMARK    6  A    between atoms: N_13  and  C_14
REMARK    7  A    between atoms: C_14  and  C_15
REMARK    8  A    between atoms: C_19  and  C_20
REMARK                            x       y       z     vdW  Elec       q    Type
REMARK                         _______ _______ _______ _____ _____    ______ ____
ROOT
ATOM      1  C   UNL     1       6.598   4.625  17.319  0.00  0.00    +0.000 A 
ATOM      2  N   UNL     1       6.713   3.951  16.159  0.00  0.00    +0.000 NA
ATOM      3  O   UNL     1       5.433   3.521  15.840  0.00  0.00    +0.000 OA
ATOM      4  C   UNL     1       4.553   3.951  16.787  0.00  0.00    +0.000 A 
ATOM      5  N   UNL     1       3.220   3.745  16.753  0.00  0.00    +0.000 NA
ATOM      6  C   UNL     1       2.568   4.247  17.763  0.00  0.00    +0.000 A 
ATOM      7  C   UNL     1       1.073   4.066  17.766  0.00  0.00    +0.000 C 
ATOM      8  N   UNL     1       3.165   4.938  18.825  0.00  0.00    +0.000 N 
ATOM      9  C   UNL     1       4.542   5.223  18.829  0.00  0.00    +0.000 A 
ATOM     10  O   UNL     1       5.081   5.939  19.662  0.00  0.00    +0.000 OA
ATOM     11  C   UNL     1       5.254   4.638  17.736  0.00  0.00    +0.000 A 
ENDROOT
BRANCH   1  12
ATOM     12  C   UNL     1       7.732   5.275  17.962  0.00  0.00    +0.000 C 
ATOM     13  O   UNL     1       8.352   4.786  18.898  0.00  0.00    +0.000 OA
BRANCH  12  14
ATOM     14  O   UNL     1       7.944   6.536  17.481  0.00  0.00    +0.000 OA
BRANCH  14  16
ATOM     15  C   UNL     1       8.113   8.898  17.794  0.00  0.00    +0.000 C 
ATOM     16  C   UNL     1       8.103   7.545  18.486  0.00  0.00    +0.000 C 
ENDBRANCH  14  16
ENDBRANCH  12  14
ENDBRANCH   1  12
BRANCH   8  17
ATOM     17  C   UNL     1       2.431   5.372  20.012  0.00  0.00    +0.000 C 
BRANCH  17  18
ATOM     18  C   UNL     1       2.035   6.839  20.052  0.00  0.00    +0.000 A 
ATOM     19  C   UNL     1       2.038   7.559  18.844  0.00  0.00    +0.000 A 
ATOM     20  C   UNL     1       1.573   8.875  18.789  0.00  0.00    +0.000 A 
ATOM     21  C   UNL     1       1.089   9.491  19.941  0.00  0.00    +0.000 A 
ATOM     22  C   UNL     1       1.094   8.798  21.154  0.00  0.00    +0.000 A 
ATOM     23  C   UNL     1       1.591   7.488  21.213  0.00  0.00    +0.000 A 
BRANCH  22  24
ATOM     24  C   UNL     1       0.542   9.403  22.331  0.00  0.00    +0.000 C 
ATOM     25  N   UNL     1       0.104   9.911  23.278  0.00  0.00    +0.000 NA
ENDBRANCH  22  24
ENDBRANCH  17  18
ENDBRANCH   8  17
TORSDOF 6
ENDMDL
MODEL 5
REMARK VINA RESULT:      -7.0      2.525      4.556
REMARK  Name = 
REMARK  8 active torsions:
REMARK  status: ('A' for Active; 'I' for Inactive)
REMARK    1  A    between atoms: C_1  and  C_2
REMARK    2  A    between atoms: C_2  and  O_3
REMARK    3  A    between atoms: O_3  and  C_4
REMARK    4  A    between atoms: C_4  and  C_6
REMARK    5  A    between atoms: C_11  and  C_12
REMARK    6  A    between atoms: N_13  and  C_14
REMARK    7  A    between atoms: C_14  and  C_15
REMARK    8  A    between atoms: C_19  and  C_20
REMARK                            x       y       z     vdW  Elec       q    Type
REMARK                         _______ _______ _______ _____ _____    ______ ____
ROOT
ATOM      1  C   UNL     1       6.478   4.494  14.089  0.00  0.00    +0.000 A 
ATOM      2  N   UNL     1       7.560   5.196  13.706  0.00  0.00    +0.000 NA
ATOM      3  O   UNL     1       8.088   5.745  14.867  0.00  0.00    +0.000 OA
ATOM      4  C   UNL     1       7.343   5.357  15.939  0.00  0.00    +0.000 A 
ATOM      5  N   UNL     1       7.612   5.677  17.223  0.00  0.00    +0.000 NA
ATOM      6  C   UNL     1       6.767   5.196  18.089  0.00  0.00    +0.000 A 
ATOM      7  C   UNL     1       7.031   5.504  19.540  0.00  0.00    +0.000 C 
ATOM      8  N   UNL     1       5.650   4.420  17.758  0.00  0.00    +0.000 N 
ATOM      9  C   UNL     1       5.406   4.018  16.432  0.00  0.00    +0.000 A 
ATOM     10  O   UNL     1       4.525   3.229  16.117  0.00  0.00    +0.000 OA
ATOM     11  C   UNL     1       6.317   4.579  15.485  0.00  0.00    +0.000 A 
ENDROOT
BRANCH   1  12
ATOM     12  C   UNL     1       5.670   3.726  13.151  0.00  0.00    +0.000 C 
ATOM     13  O   UNL     1       4.490   3.962  12.922  0.00  0.00    +0.000 OA
BRANCH  12  14
ATOM     14  O   UNL     1       6.345   2.650  12.649  0.00  0.00    +0.000 OA
BRANCH  14  16
ATOM     15  C   UNL     1       6.779   1.164  10.830  0.00  0.00    +0.000 C 
ATOM     16  C   UNL     1       5.734   2.034  11.509  0.00  0.00    +0.000 C 
ENDBRANCH  14  16
ENDBRANCH  12  14
ENDBRANCH   1  12
BRANCH   8  17
ATOM     17  C   UNL     1       4.643   4.007  18.734  0.00  0.00    +0.000 C 
BRANCH  17  18
ATOM     18  C   UNL     1       3.578   5.037  19.071  0.00  0.00    +0.000 A 
ATOM     19  C   UNL     1       2.824   4.850  20.244  0.00  0.00    +0.000 A 
ATOM     20  C   UNL     1       1.913   5.817  20.676  0.00  0.00    +0.000 A 
ATOM     21  C   UNL     1       1.746   6.992  19.945  0.00  0.00    +0.000 A 
ATOM     22  C   UNL     1       2.473   7.188  18.769  0.00  0.00    +0.000 A 
ATOM     23  C   UNL     1       3.364   6.202  18.320  0.00  0.00    +0.000 A 
BRANCH  22  24
ATOM     24  C   UNL     1       2.353   8.420  18.044  0.00  0.00    +0.000 C 
ATOM     25  N   UNL     1       2.240   9.423  17.473  0.00  0.00    +0.000 NA
ENDBRANCH  22  24
ENDBRANCH  17  18
ENDBRANCH   8  17
TORSDOF 6
ENDMDL
MODEL 6
REMARK VINA RESULT:      -6.7      4.379      6.299
REMARK  Name = 
REMARK  8 active torsions:
REMARK  status: ('A' for Active; 'I' for Inactive)
REMARK    1  A    between atoms: C_1  and  C_2
REMARK    2  A    between atoms: C_2  and  O_3
REMARK    3  A    between atoms: O_3  and  C_4
REMARK    4  A    between atoms: C_4  and  C_6
REMARK    5  A    between atoms: C_11  and  C_12
REMARK    6  A    between atoms: N_13  and  C_14
REMARK    7  A    between atoms: C_14  and  C_15
REMARK    8  A    between atoms: C_19  and  C_20
REMARK                            x       y       z     vdW  Elec       q    Type
REMARK                         _______ _______ _______ _____ _____    ______ ____
ROOT
ATOM      1  C   UNL     1       6.406   4.048  12.919  0.00  0.00    +0.000 A 
ATOM      2  N   UNL     1       7.649   4.359  12.506  0.00  0.00    +0.000 NA
ATOM      3  O   UNL     1       8.205   5.130  13.517  0.00  0.00    +0.000 OA
ATOM      4  C   UNL     1       7.313   5.263  14.537  0.00  0.00    +0.000 A 
ATOM      5  N   UNL     1       7.555   5.915  15.695  0.00  0.00    +0.000 NA
ATOM      6  C   UNL     1       6.559   5.916  16.534  0.00  0.00    +0.000 A 
ATOM      7  C   UNL     1       6.781   6.610  17.852  0.00  0.00    +0.000 C 
ATOM      8  N   UNL     1       5.317   5.317  16.289  0.00  0.00    +0.000 N 
ATOM      9  C   UNL     1       5.083   4.571  15.119  0.00  0.00    +0.000 A 
ATOM     10  O   UNL     1       4.067   3.917  14.927  0.00  0.00    +0.000 OA
ATOM     11  C   UNL     1       6.168   4.605  14.190  0.00  0.00    +0.000 A 
ENDROOT
BRANCH   1  12
ATOM     12  C   UNL     1       5.511   3.201  12.142  0.00  0.00    +0.000 C 
ATOM     13  O   UNL     1       5.745   2.027  11.882  0.00  0.00    +0.000 OA
BRANCH  12  14
ATOM     14  O   UNL     1       4.446   3.897  11.644  0.00  0.00    +0.000 OA
BRANCH  14  16
ATOM     15  C   UNL     1       3.009   4.090   9.746  0.00  0.00    +0.000 C 
ATOM     16  C   UNL     1       3.583   3.141  10.785  0.00  0.00    +0.000 C 
ENDBRANCH  14  16
ENDBRANCH  12  14
ENDBRANCH   1  12
BRANCH   8  17
ATOM     17  C   UNL     1       4.172   5.448  17.188  0.00  0.00    +0.000 C 
BRANCH  17  18
ATOM     18  C   UNL     1       3.733   4.180  17.900  0.00  0.00    +0.000 A 
ATOM     19  C   UNL     1       2.614   3.492  17.397  0.00  0.00    +0.000 A 
ATOM     20  C   UNL     1       2.227   2.259  17.928  0.00  0.00    +0.000 A 
ATOM     21  C   UNL     1       2.959   1.689  18.967  0.00  0.00    +0.000 A 
ATOM     22  C   UNL     1       4.064   2.364  19.491  0.00  0.00    +0.000 A 
ATOM     23  C   UNL     1       4.431   3.616  18.978  0.00  0.00    +0.000 A 
BRANCH  22  24
ATOM     24  C   UNL     1       4.858   1.756  20.519  0.00  0.00    +0.000 C 
ATOM     25  N   UNL     1       5.507   1.249  21.336  0.00  0.00    +0.000 NA
ENDBRANCH  22  24
ENDBRANCH  17  18
ENDBRANCH   8  17
TORSDOF 6
ENDMDL
MODEL 7
REMARK VINA RESULT:      -6.7      3.409      7.709
REMARK  Name = 
REMARK  8 active torsions:
REMARK  status: ('A' for Active; 'I' for Inactive)
REMARK    1  A    between atoms: C_1  and  C_2
REMARK    2  A    between atoms: C_2  and  O_3
REMARK    3  A    between atoms: O_3  and  C_4
REMARK    4  A    between atoms: C_4  and  C_6
REMARK    5  A    between atoms: C_11  and  C_12
REMARK    6  A    between atoms: N_13  and  C_14
REMARK    7  A    between atoms: C_14  and  C_15
REMARK    8  A    between atoms: C_19  and  C_20
REMARK                            x       y       z     vdW  Elec       q    Type
REMARK                         _______ _______ _______ _____ _____    ______ ____
ROOT
ATOM      1  C   UNL     1       2.464   4.660  18.750  0.00  0.00    +0.000 A 
ATOM      2  N   UNL     1       1.978   5.718  19.426  0.00  0.00    +0.000 NA
ATOM      3  O   UNL     1       2.924   6.725  19.288  0.00  0.00    +0.000 OA
ATOM      4  C   UNL     1       3.957   6.283  18.519  0.00  0.00    +0.000 A 
ATOM      5  N   UNL     1       5.021   7.028  18.152  0.00  0.00    +0.000 NA
ATOM      6  C   UNL     1       5.891   6.403  17.412  0.00  0.00    +0.000 A 
ATOM      7  C   UNL     1       7.089   7.194  16.955  0.00  0.00    +0.000 C 
ATOM      8  N   UNL     1       5.779   5.064  17.019  0.00  0.00    +0.000 N 
ATOM      9  C   UNL     1       4.638   4.304  17.332  0.00  0.00    +0.000 A 
ATOM     10  O   UNL     1       4.434   3.179  16.894  0.00  0.00    +0.000 OA
ATOM     11  C   UNL     1       3.706   4.986  18.173  0.00  0.00    +0.000 A 
ENDROOT
BRANCH   1  12
ATOM     12  C   UNL     1       1.729   3.408  18.622  0.00  0.00    +0.000 C 
ATOM     13  O   UNL     1       0.833   3.230  17.807  0.00  0.00    +0.000 OA
BRANCH  12  14
ATOM     14  O   UNL     1       2.076   2.506  19.587  0.00  0.00    +0.000 OA
BRANCH  14  16
ATOM     15  C   UNL     1       2.185   2.932  21.935  0.00  0.00    +0.000 C 
ATOM     16  C   UNL     1       1.277   2.559  20.776  0.00  0.00    +0.000 C 
ENDBRANCH  14  16
ENDBRANCH  12  14
ENDBRANCH   1  12
BRANCH   8  17
ATOM     17  C   UNL     1       6.833   4.348  16.303  0.00  0.00    +0.000 C 
BRANCH  17  18
ATOM     18  C   UNL     1       6.810   4.466  14.789  0.00  0.00    +0.000 A 
ATOM     19  C   UNL     1       7.873   5.140  14.160  0.00  0.00    +0.000 A 
ATOM     20  C   UNL     1       7.976   5.183  12.768  0.00  0.00    +0.000 A 
ATOM     21  C   UNL     1       7.023   4.544  11.979  0.00  0.00    +0.000 A 
ATOM     22  C   UNL     1       5.951   3.882  12.583  0.00  0.00    +0.000 A 
ATOM     23  C   UNL     1       5.831   3.868  13.981  0.00  0.00    +0.000 A 
BRANCH  22  24
ATOM     24  C   UNL     1       4.999   3.171  11.781  0.00  0.00    +0.000 C 
ATOM     25  N   UNL     1       4.245   2.583  11.124  0.00  0.00    +0.000 NA
ENDBRANCH  22  24
ENDBRANCH  17  18
ENDBRANCH   8  17
TORSDOF 6
ENDMDL
MODEL 8
REMARK VINA RESULT:      -6.6      1.685      2.640
REMARK  Name = 
REMARK  8 active torsions:
REMARK  status: ('A' for Active; 'I' for Inactive)
REMARK    1  A    between atoms: C_1  and  C_2
REMARK    2  A    between atoms: C_2  and  O_3
REMARK    3  A    between atoms: O_3  and  C_4
REMARK    4  A    between atoms: C_4  and  C_6
REMARK    5  A    between atoms: C_11  and  C_12
REMARK    6  A    between atoms: N_13  and  C_14
REMARK    7  A    between atoms: C_14  and  C_15
REMARK    8  A    between atoms: C_19  and  C_20
REMARK                            x       y       z     vdW  Elec       q    Type
REMARK                         _______ _______ _______ _____ _____    ______ ____
ROOT
ATOM      1  C   UNL     1       6.764   5.835  18.311  0.00  0.00    +0.000 A 
ATOM      2  N   UNL     1       7.320   4.796  18.962  0.00  0.00    +0.000 NA
ATOM      3  O   UNL     1       6.262   4.068  19.490  0.00  0.00    +0.000 OA
ATOM      4  C   UNL     1       5.082   4.652  19.141  0.00  0.00    +0.000 A 
ATOM      5  N   UNL     1       3.860   4.171  19.452  0.00  0.00    +0.000 NA
ATOM      6  C   UNL     1       2.866   4.889  19.014  0.00  0.00    +0.000 A 
ATOM      7  C   UNL     1       1.479   4.388  19.314  0.00  0.00    +0.000 C 
ATOM      8  N   UNL     1       3.010   6.078  18.288  0.00  0.00    +0.000 N 
ATOM      9  C   UNL     1       4.277   6.545  17.893  0.00  0.00    +0.000 A 
ATOM     10  O   UNL     1       4.442   7.498  17.144  0.00  0.00    +0.000 OA
ATOM     11  C   UNL     1       5.362   5.770  18.409  0.00  0.00    +0.000 A 
ENDROOT
BRANCH   1  12
ATOM     12  C   UNL     1       7.556   6.813  17.578  0.00  0.00    +0.000 C 
ATOM     13  O   UNL     1       7.724   6.778  16.365  0.00  0.00    +0.000 OA
BRANCH  12  14
ATOM     14  O   UNL     1       8.180   7.699  18.410  0.00  0.00    +0.000 OA
BRANCH  14  16
ATOM     15  C   UNL     1       9.034   9.875  18.904  0.00  0.00    +0.000 C 
ATOM     16  C   UNL     1       8.164   9.060  17.961  0.00  0.00    +0.000 C 
ENDBRANCH  14  16
ENDBRANCH  12  14
ENDBRANCH   1  12
BRANCH   8  17
ATOM     17  C   UNL     1       1.884   6.936  17.925  0.00  0.00    +0.000 C 
BRANCH  17  18
ATOM     18  C   UNL     1       1.534   8.034  18.915  0.00  0.00    +0.000 A 
ATOM     19  C   UNL     1       1.614   7.737  20.288  0.00  0.00    +0.000 A 
ATOM     20  C   UNL     1       1.422   8.730  21.252  0.00  0.00    +0.000 A 
ATOM     21  C   UNL     1       1.154  10.039  20.859  0.00  0.00    +0.000 A 
ATOM     22  C   UNL     1       1.054  10.351  19.501  0.00  0.00    +0.000 A 
ATOM     23  C   UNL     1       1.216   9.346  18.536  0.00  0.00    +0.000 A 
BRANCH  22  24
ATOM     24  C   UNL     1       0.839  11.706  19.087  0.00  0.00    +0.000 C 
ATOM     25  N   UNL     1       0.643  12.800  18.753  0.00  0.00    +0.000 NA
ENDBRANCH  22  24
ENDBRANCH  17  18
ENDBRANCH   8  17
TORSDOF 6
ENDMDL
MODEL 9
REMARK VINA RESULT:      -6.6      3.096      5.527
REMARK  Name = 
REMARK  8 active torsions:
REMARK  status: ('A' for Active; 'I' for Inactive)
REMARK    1  A    between atoms: C_1  and  C_2
REMARK    2  A    between atoms: C_2  and  O_3
REMARK    3  A    between atoms: O_3  and  C_4
REMARK    4  A    between atoms: C_4  and  C_6
REMARK    5  A    between atoms: C_11  and  C_12
REMARK    6  A    between atoms: N_13  and  C_14
REMARK    7  A    between atoms: C_14  and  C_15
REMARK    8  A    between atoms: C_19  and  C_20
REMARK                            x       y       z     vdW  Elec       q    Type
REMARK                         _______ _______ _______ _____ _____    ______ ____
ROOT
ATOM      1  C   UNL     1       6.564   4.029  12.750  0.00  0.00    +0.000 A 
ATOM      2  N   UNL     1       7.452   4.827  12.128  0.00  0.00    +0.000 NA
ATOM      3  O   UNL     1       8.000   5.631  13.118  0.00  0.00    +0.000 OA
ATOM      4  C   UNL     1       7.463   5.303  14.326  0.00  0.00    +0.000 A 
ATOM      5  N   UNL     1       7.813   5.862  15.504  0.00  0.00    +0.000 NA
ATOM      6  C   UNL     1       7.171   5.396  16.537  0.00  0.00    +0.000 A 
ATOM      7  C   UNL     1       7.537   5.969  17.881  0.00  0.00    +0.000 C 
ATOM      8  N   UNL     1       6.182   4.407  16.473  0.00  0.00    +0.000 N 
ATOM      9  C   UNL     1       5.866   3.766  15.262  0.00  0.00    +0.000 A 
ATOM     10  O   UNL     1       5.112   2.806  15.183  0.00  0.00    +0.000 OA
ATOM     11  C   UNL     1       6.549   4.308  14.129  0.00  0.00    +0.000 A 
ENDROOT
BRANCH   1  12
ATOM     12  C   UNL     1       5.807   3.002  12.046  0.00  0.00    +0.000 C 
ATOM     13  O   UNL     1       4.610   3.091  11.802  0.00  0.00    +0.000 OA
BRANCH  12  14
ATOM     14  O   UNL     1       6.557   1.888  11.798  0.00  0.00    +0.000 OA
BRANCH  14  16
ATOM     15  C   UNL     1       6.215  -0.446  11.419  0.00  0.00    +0.000 C 
ATOM     16  C   UNL     1       5.965   0.955  10.886  0.00  0.00    +0.000 C 
ENDBRANCH  14  16
ENDBRANCH  12  14
ENDBRANCH   1  12
BRANCH   8  17
ATOM     17  C   UNL     1       5.383   3.998  17.627  0.00  0.00    +0.000 C 
BRANCH  17  18
ATOM     18  C   UNL     1       3.998   4.613  17.731  0.00  0.00    +0.000 A 
ATOM     19  C   UNL     1       2.903   3.752  17.927  0.00  0.00    +0.000 A 
ATOM     20  C   UNL     1       1.619   4.256  18.149  0.00  0.00    +0.000 A 
ATOM     21  C   UNL     1       1.410   5.633  18.188  0.00  0.00    +0.000 A 
ATOM     22  C   UNL     1       2.481   6.506  17.979  0.00  0.00    +0.000 A 
ATOM     23  C   UNL     1       3.763   5.996  17.724  0.00  0.00    +0.000 A 
BRANCH  22  24
ATOM     24  C   UNL     1       2.286   7.923  18.078  0.00  0.00    +0.000 C 
ATOM     25  N   UNL     1       2.123   9.070  18.137  0.00  0.00    +0.000 NA
ENDBRANCH  22  24
ENDBRANCH  17  18
ENDBRANCH   8  17
TORSDOF 6
ENDMDL
