MODEL 1
REMARK VINA RESULT:      -8.5      0.000      0.000
REMARK  Name = 
REMARK  7 active torsions:
REMARK  status: ('A' for Active; 'I' for Inactive)
REMARK    1  A    between atoms: C_1  and  C_2
REMARK    2  A    between atoms: C_2  and  O_3
REMARK    3  A    between atoms: O_3  and  C_4
REMARK    4  A    between atoms: C_4  and  C_6
REMARK    5  A    between atoms: C_11  and  N_12
REMARK    6  A    between atoms: C_13  and  C_15
REMARK    7  A    between atoms: N_17  and  C_18
REMARK                            x       y       z     vdW  Elec       q    Type
REMARK                         _______ _______ _______ _____ _____    ______ ____
ROOT
ATOM      1  C   UNL     1      -0.062   8.910  21.783  0.00  0.00    +0.000 C 
ATOM      2  O   UNL     1      -0.855   7.992  21.603  0.00  0.00    +0.000 OA
ATOM      3  N   UNL     1       1.200   9.066  21.177  0.00  0.00    +0.000 N 
ATOM      4  H   UNL     1       1.771   9.825  21.545  0.00  0.00    +0.000 HD
ENDROOT
BRANCH   3   5
ATOM      5  C   UNL     1       1.678   8.385  20.007  0.00  0.00    +0.000 A 
ATOM      6  C   UNL     1       1.491   8.928  18.728  0.00  0.00    +0.000 A 
ATOM      7  C   UNL     1       2.303   8.534  17.650  0.00  0.00    +0.000 A 
ATOM      8  C   UNL     1       3.206   7.496  17.810  0.00  0.00    +0.000 A 
ATOM      9  N   UNL     1       4.420   7.404  17.081  0.00  0.00    +0.000 NA
ATOM     10  C   UNL     1       4.978   6.233  17.133  0.00  0.00    +0.000 A 
ATOM     11  N   UNL     1       4.268   5.135  17.493  0.00  0.00    +0.000 N 
ATOM     12  C   UNL     1       3.530   5.275  18.662  0.00  0.00    +0.000 A 
ATOM     13  O   UNL     1       3.243   4.352  19.413  0.00  0.00    +0.000 OA
ATOM     14  C   UNL     1       3.068   6.686  18.935  0.00  0.00    +0.000 A 
ATOM     15  C   UNL     1       2.430   7.189  20.092  0.00  0.00    +0.000 A 
ATOM     16  C   UNL     1       4.149   4.044  16.520  0.00  0.00    +0.000 C 
ATOM     17  C   UNL     1       5.148   4.101  15.340  0.00  0.00    +0.000 C 
ATOM     18  C   UNL     1       6.592   3.852  15.736  0.00  0.00    +0.000 C 
ATOM     19  C   UNL     1       7.201   4.788  16.772  0.00  0.00    +0.000 C 
ATOM     20  C   UNL     1       6.477   6.044  17.260  0.00  0.00    +0.000 C 
ENDBRANCH   3   5
BRANCH   1  22
ATOM     21  N   UNL     1      -1.277  11.018  22.283  0.00  0.00    +0.000 N 
ATOM     22  C   UNL     1      -0.455  10.006  22.820  0.00  0.00    +0.000 C 
ATOM     23  O   UNL     1      -0.026   9.920  23.959  0.00  0.00    +0.000 OA
ATOM     24  H   UNL     1      -1.533  10.888  21.300  0.00  0.00    +0.000 HD
BRANCH  21  30
ATOM     25  C   UNL     1      -1.195  13.458  22.862  0.00  0.00    +0.000 A 
ATOM     26  C   UNL     1      -1.793  14.593  23.477  0.00  0.00    +0.000 A 
ATOM     27  C   UNL     1      -3.003  14.488  24.146  0.00  0.00    +0.000 A 
ATOM     28  C   UNL     1      -3.625  13.258  24.232  0.00  0.00    +0.000 A 
ATOM     29  C   UNL     1      -3.033  12.113  23.632  0.00  0.00    +0.000 A 
ATOM     30  C   UNL     1      -1.827  12.183  22.922  0.00  0.00    +0.000 A 
BRANCH  25  31
ATOM     31  C   UNL     1       0.047  13.804  22.119  0.00  0.00    +0.000 C 
ATOM     32  O   UNL     1       0.905  14.567  22.538  0.00  0.00    +0.000 OA
BRANCH  31  33
ATOM     33  O   UNL     1       0.024  13.261  20.882  0.00  0.00    +0.000 OA
BRANCH  33  35
ATOM     34  C   UNL     1       1.231  12.608  18.938  0.00  0.00    +0.000 C 
ATOM     35  C   UNL     1       1.279  12.719  20.453  0.00  0.00    +0.000 C 
ENDBRANCH  33  35
ENDBRANCH  31  33
ENDBRANCH  25  31
ENDBRANCH  21  30
ENDBRANCH   1  22
TORSDOF 6
ENDMDL
MODEL 2
REMARK VINA RESULT:      -8.3      6.792      9.069
REMARK  Name = 
REMARK  7 active torsions:
REMARK  status: ('A' for Active; 'I' for Inactive)
REMARK    1  A    between atoms: C_1  and  C_2
REMARK    2  A    between atoms: C_2  and  O_3
REMARK    3  A    between atoms: O_3  and  C_4
REMARK    4  A    between atoms: C_4  and  C_6
REMARK    5  A    between atoms: C_11  and  N_12
REMARK    6  A    between atoms: C_13  and  C_15
REMARK    7  A    between atoms: N_17  and  C_18
REMARK                            x       y       z     vdW  Elec       q    Type
REMARK                         _______ _______ _______ _____ _____    ______ ____
ROOT
ATOM      1  C   UNL     1       8.859   9.910  18.552  0.00  0.00    +0.000 C 
ATOM      2  O   UNL     1       9.241   9.605  19.677  0.00  0.00    +0.000 OA
ATOM      3  N   UNL     1       8.275   9.055  17.598  0.00  0.00    +0.000 N 
ATOM      4  H   UNL     1       8.139   9.458  16.674  0.00  0.00    +0.000 HD
ENDROOT
BRANCH   3   5
ATOM      5  C   UNL     1       7.712   7.756  17.843  0.00  0.00    +0.000 A 
ATOM      6  C   UNL     1       8.262   6.900  18.806  0.00  0.00    +0.000 A 
ATOM      7  C   UNL     1       7.502   5.857  19.365  0.00  0.00    +0.000 A 
ATOM      8  C   UNL     1       6.242   5.577  18.863  0.00  0.00    +0.000 A 
ATOM      9  N   UNL     1       5.197   5.026  19.650  0.00  0.00    +0.000 NA
ATOM     10  C   UNL     1       4.209   4.551  18.956  0.00  0.00    +0.000 A 
ATOM     11  N   UNL     1       4.358   4.248  17.642  0.00  0.00    +0.000 N 
ATOM     12  C   UNL     1       4.937   5.252  16.874  0.00  0.00    +0.000 A 
ATOM     13  O   UNL     1       4.725   5.417  15.680  0.00  0.00    +0.000 OA
ATOM     14  C   UNL     1       5.895   6.136  17.635  0.00  0.00    +0.000 A 
ATOM     15  C   UNL     1       6.533   7.318  17.193  0.00  0.00    +0.000 A 
ATOM     16  C   UNL     1       4.143   2.858  17.229  0.00  0.00    +0.000 C 
ATOM     17  C   UNL     1       3.410   1.968  18.261  0.00  0.00    +0.000 C 
ATOM     18  C   UNL     1       1.953   2.336  18.475  0.00  0.00    +0.000 C 
ATOM     19  C   UNL     1       1.654   3.755  18.942  0.00  0.00    +0.000 C 
ATOM     20  C   UNL     1       2.760   4.721  19.370  0.00  0.00    +0.000 C 
ENDBRANCH   3   5
BRANCH   1  22
ATOM     21  N   UNL     1      10.299  11.934  18.529  0.00  0.00    +0.000 N 
ATOM     22  C   UNL     1       9.074  11.385  18.096  0.00  0.00    +0.000 C 
ATOM     23  O   UNL     1       8.201  11.934  17.445  0.00  0.00    +0.000 OA
ATOM     24  H   UNL     1      10.896  11.291  19.056  0.00  0.00    +0.000 HD
BRANCH  21  30
ATOM     25  C   UNL     1      10.491  14.362  19.134  0.00  0.00    +0.000 A 
ATOM     26  C   UNL     1      11.075  15.639  18.909  0.00  0.00    +0.000 A 
ATOM     27  C   UNL     1      11.996  15.834  17.891  0.00  0.00    +0.000 A 
ATOM     28  C   UNL     1      12.333  14.775  17.072  0.00  0.00    +0.000 A 
ATOM     29  C   UNL     1      11.748  13.495  17.278  0.00  0.00    +0.000 A 
ATOM     30  C   UNL     1      10.837  13.251  18.314  0.00  0.00    +0.000 A 
BRANCH  25  31
ATOM     31  C   UNL     1       9.605  14.346  20.330  0.00  0.00    +0.000 C 
ATOM     32  O   UNL     1       8.678  15.122  20.505  0.00  0.00    +0.000 OA
BRANCH  31  33
ATOM     33  O   UNL     1      10.050  13.447  21.235  0.00  0.00    +0.000 OA
BRANCH  33  35
ATOM     34  C   UNL     1       8.539  11.869  22.177  0.00  0.00    +0.000 C 
ATOM     35  C   UNL     1       9.168  13.242  22.346  0.00  0.00    +0.000 C 
ENDBRANCH  33  35
ENDBRANCH  31  33
ENDBRANCH  25  31
ENDBRANCH  21  30
ENDBRANCH   1  22
TORSDOF 6
ENDMDL
MODEL 3
REMARK VINA RESULT:      -8.3      2.135     10.346
REMARK  Name = 
REMARK  7 active torsions:
REMARK  status: ('A' for Active; 'I' for Inactive)
REMARK    1  A    between atoms: C_1  and  C_2
REMARK    2  A    between atoms: C_2  and  O_3
REMARK    3  A    between atoms: O_3  and  C_4
REMARK    4  A    between atoms: C_4  and  C_6
REMARK    5  A    between atoms: C_11  and  N_12
REMARK    6  A    between atoms: C_13  and  C_15
REMARK    7  A    between atoms: N_17  and  C_18
REMARK                            x       y       z     vdW  Elec       q    Type
REMARK                         _______ _______ _______ _____ _____    ______ ____
ROOT
ATOM      1  C   UNL     1       2.079   7.927  18.478  0.00  0.00    +0.000 C 
ATOM      2  O   UNL     1       1.802   8.830  17.697  0.00  0.00    +0.000 OA
ATOM      3  N   UNL     1       1.791   7.887  19.857  0.00  0.00    +0.000 N 
ATOM      4  H   UNL     1       2.210   7.113  20.368  0.00  0.00    +0.000 HD
ENDROOT
BRANCH   3   5
ATOM      5  C   UNL     1       0.850   8.713  20.560  0.00  0.00    +0.000 A 
ATOM      6  C   UNL     1       0.469   8.416  21.876  0.00  0.00    +0.000 A 
ATOM      7  C   UNL     1      -0.074   9.407  22.711  0.00  0.00    +0.000 A 
ATOM      8  C   UNL     1      -0.372  10.657  22.196  0.00  0.00    +0.000 A 
ATOM      9  N   UNL     1      -0.339  11.845  22.972  0.00  0.00    +0.000 NA
ATOM     10  C   UNL     1      -0.935  12.855  22.415  0.00  0.00    +0.000 A 
ATOM     11  N   UNL     1      -1.830  12.674  21.412  0.00  0.00    +0.000 N 
ATOM     12  C   UNL     1      -1.391  11.853  20.380  0.00  0.00    +0.000 A 
ATOM     13  O   UNL     1      -1.770  11.939  19.219  0.00  0.00    +0.000 OA
ATOM     14  C   UNL     1      -0.403  10.796  20.810  0.00  0.00    +0.000 A 
ATOM     15  C   UNL     1       0.334   9.905  19.997  0.00  0.00    +0.000 A 
ATOM     16  C   UNL     1      -3.206  13.130  21.629  0.00  0.00    +0.000 C 
ATOM     17  C   UNL     1      -3.401  14.099  22.820  0.00  0.00    +0.000 C 
ATOM     18  C   UNL     1      -2.771  15.465  22.619  0.00  0.00    +0.000 C 
ATOM     19  C   UNL     1      -1.271  15.510  22.356  0.00  0.00    +0.000 C 
ATOM     20  C   UNL     1      -0.386  14.267  22.479  0.00  0.00    +0.000 C 
ENDBRANCH   3   5
BRANCH   1  22
ATOM     21  N   UNL     1       4.177   7.030  17.498  0.00  0.00    +0.000 N 
ATOM     22  C   UNL     1       2.870   6.707  17.917  0.00  0.00    +0.000 C 
ATOM     23  O   UNL     1       2.318   5.620  17.867  0.00  0.00    +0.000 OA
ATOM     24  H   UNL     1       4.446   8.007  17.643  0.00  0.00    +0.000 HD
BRANCH  21  30
ATOM     25  C   UNL     1       6.079   5.408  17.724  0.00  0.00    +0.000 A 
ATOM     26  C   UNL     1       7.040   4.553  17.116  0.00  0.00    +0.000 A 
ATOM     27  C   UNL     1       7.131   4.449  15.736  0.00  0.00    +0.000 A 
ATOM     28  C   UNL     1       6.289   5.203  14.943  0.00  0.00    +0.000 A 
ATOM     29  C   UNL     1       5.332   6.070  15.537  0.00  0.00    +0.000 A 
ATOM     30  C   UNL     1       5.188   6.182  16.926  0.00  0.00    +0.000 A 
BRANCH  25  31
ATOM     31  C   UNL     1       6.083   5.301  19.208  0.00  0.00    +0.000 C 
ATOM     32  O   UNL     1       7.071   5.486  19.905  0.00  0.00    +0.000 OA
BRANCH  31  33
ATOM     33  O   UNL     1       4.889   4.853  19.652  0.00  0.00    +0.000 OA
BRANCH  33  35
ATOM     34  C   UNL     1       3.342   3.097  20.084  0.00  0.00    +0.000 C 
ATOM     35  C   UNL     1       4.660   3.457  19.419  0.00  0.00    +0.000 C 
ENDBRANCH  33  35
ENDBRANCH  31  33
ENDBRANCH  25  31
ENDBRANCH  21  30
ENDBRANCH   1  22
TORSDOF 6
ENDMDL
MODEL 4
REMARK VINA RESULT:      -8.2      6.110      8.699
REMARK  Name = 
REMARK  7 active torsions:
REMARK  status: ('A' for Active; 'I' for Inactive)
REMARK    1  A    between atoms: C_1  and  C_2
REMARK    2  A    between atoms: C_2  and  O_3
REMARK    3  A    between atoms: O_3  and  C_4
REMARK    4  A    between atoms: C_4  and  C_6
REMARK    5  A    between atoms: C_11  and  N_12
REMARK    6  A    between atoms: C_13  and  C_15
REMARK    7  A    between atoms: N_17  and  C_18
REMARK                            x       y       z     vdW  Elec       q    Type
REMARK                         _______ _______ _______ _____ _____    ______ ____
ROOT
ATOM      1  C   UNL     1       8.341   8.824  18.219  0.00  0.00    +0.000 C 
ATOM      2  O   UNL     1       8.904   8.096  19.029  0.00  0.00    +0.000 OA
ATOM      3  N   UNL     1       7.361   8.444  17.281  0.00  0.00    +0.000 N 
ATOM      4  H   UNL     1       7.101   9.160  16.606  0.00  0.00    +0.000 HD
ENDROOT
BRANCH   3   5
ATOM      5  C   UNL     1       6.589   7.232  17.292  0.00  0.00    +0.000 A 
ATOM      6  C   UNL     1       7.169   6.004  16.947  0.00  0.00    +0.000 A 
ATOM      7  C   UNL     1       6.592   4.791  17.364  0.00  0.00    +0.000 A 
ATOM      8  C   UNL     1       5.363   4.795  18.001  0.00  0.00    +0.000 A 
ATOM      9  N   UNL     1       4.978   3.812  18.951  0.00  0.00    +0.000 NA
ATOM     10  C   UNL     1       3.705   3.797  19.205  0.00  0.00    +0.000 A 
ATOM     11  N   UNL     1       2.814   4.367  18.356  0.00  0.00    +0.000 N 
ATOM     12  C   UNL     1       3.126   5.665  17.969  0.00  0.00    +0.000 A 
ATOM     13  O   UNL     1       2.298   6.509  17.653  0.00  0.00    +0.000 OA
ATOM     14  C   UNL     1       4.605   5.962  17.940  0.00  0.00    +0.000 A 
ATOM     15  C   UNL     1       5.244   7.206  17.731  0.00  0.00    +0.000 A 
ATOM     16  C   UNL     1       1.793   3.505  17.752  0.00  0.00    +0.000 C 
ATOM     17  C   UNL     1       1.607   2.127  18.430  0.00  0.00    +0.000 C 
ATOM     18  C   UNL     1       1.008   2.194  19.822  0.00  0.00    +0.000 C 
ATOM     19  C   UNL     1       1.758   3.013  20.865  0.00  0.00    +0.000 C 
ATOM     20  C   UNL     1       3.151   3.587  20.601  0.00  0.00    +0.000 C 
ENDBRANCH   3   5
BRANCH   1  22
ATOM     21  N   UNL     1       9.841  10.622  19.046  0.00  0.00    +0.000 N 
ATOM     22  C   UNL     1       8.773  10.321  18.175  0.00  0.00    +0.000 C 
ATOM     23  O   UNL     1       8.173  11.087  17.441  0.00  0.00    +0.000 OA
ATOM     24  H   UNL     1      10.211   9.822  19.566  0.00  0.00    +0.000 HD
BRANCH  21  30
ATOM     25  C   UNL     1      10.048  12.802  20.271  0.00  0.00    +0.000 A 
ATOM     26  C   UNL     1      10.750  14.018  20.501  0.00  0.00    +0.000 A 
ATOM     27  C   UNL     1      11.888  14.333  19.774  0.00  0.00    +0.000 A 
ATOM     28  C   UNL     1      12.332  13.462  18.800  0.00  0.00    +0.000 A 
ATOM     29  C   UNL     1      11.634  12.248  18.552  0.00  0.00    +0.000 A 
ATOM     30  C   UNL     1      10.498  11.879  19.285  0.00  0.00    +0.000 A 
BRANCH  25  31
ATOM     31  C   UNL     1       8.916  12.614  21.219  0.00  0.00    +0.000 C 
ATOM     32  O   UNL     1       8.739  11.602  21.881  0.00  0.00    +0.000 OA
BRANCH  31  33
ATOM     33  O   UNL     1       8.059  13.655  21.143  0.00  0.00    +0.000 OA
BRANCH  33  35
ATOM     34  C   UNL     1       8.365  14.908  23.143  0.00  0.00    +0.000 C 
ATOM     35  C   UNL     1       7.424  13.987  22.384  0.00  0.00    +0.000 C 
ENDBRANCH  33  35
ENDBRANCH  31  33
ENDBRANCH  25  31
ENDBRANCH  21  30
ENDBRANCH   1  22
TORSDOF 6
ENDMDL
MODEL 5
REMARK VINA RESULT:      -8.2      3.007     10.405
REMARK  Name = 
REMARK  7 active torsions:
REMARK  status: ('A' for Active; 'I' for Inactive)
REMARK    1  A    between atoms: C_1  and  C_2
REMARK    2  A    between atoms: C_2  and  O_3
REMARK    3  A    between atoms: O_3  and  C_4
REMARK    4  A    between atoms: C_4  and  C_6
REMARK    5  A    between atoms: C_11  and  N_12
REMARK    6  A    between atoms: C_13  and  C_15
REMARK    7  A    between atoms: N_17  and  C_18
REMARK                            x       y       z     vdW  Elec       q    Type
REMARK                         _______ _______ _______ _____ _____    ______ ____
ROOT
ATOM      1  C   UNL     1       1.894   8.668  18.464  0.00  0.00    +0.000 C 
ATOM      2  O   UNL     1       2.296   9.039  17.367  0.00  0.00    +0.000 OA
ATOM      3  N   UNL     1       1.182   9.436  19.406  0.00  0.00    +0.000 N 
ATOM      4  H   UNL     1       1.043   8.997  20.314  0.00  0.00    +0.000 HD
ENDROOT
BRANCH   3   5
ATOM      5  C   UNL     1       0.503  10.678  19.160  0.00  0.00    +0.000 A 
ATOM      6  C   UNL     1      -0.874  10.709  18.900  0.00  0.00    +0.000 A 
ATOM      7  C   UNL     1      -1.619  11.886  19.094  0.00  0.00    +0.000 A 
ATOM      8  C   UNL     1      -0.971  13.068  19.409  0.00  0.00    +0.000 A 
ATOM      9  N   UNL     1      -1.569  14.100  20.180  0.00  0.00    +0.000 NA
ATOM     10  C   UNL     1      -0.945  15.236  20.114  0.00  0.00    +0.000 A 
ATOM     11  N   UNL     1      -0.077  15.500  19.106  0.00  0.00    +0.000 N 
ATOM     12  C   UNL     1       0.873  14.511  18.880  0.00  0.00    +0.000 A 
ATOM     13  O   UNL     1       1.988  14.717  18.418  0.00  0.00    +0.000 OA
ATOM     14  C   UNL     1       0.410  13.118  19.230  0.00  0.00    +0.000 A 
ATOM     15  C   UNL     1       1.166  11.925  19.254  0.00  0.00    +0.000 A 
ATOM     16  C   UNL     1      -0.374  16.633  18.223  0.00  0.00    +0.000 C 
ATOM     17  C   UNL     1      -1.435  17.625  18.756  0.00  0.00    +0.000 C 
ATOM     18  C   UNL     1      -0.982  18.430  19.961  0.00  0.00    +0.000 C 
ATOM     19  C   UNL     1      -0.558  17.651  21.200  0.00  0.00    +0.000 C 
ATOM     20  C   UNL     1      -0.756  16.139  21.318  0.00  0.00    +0.000 C 
ENDBRANCH   3   5
BRANCH   1  22
ATOM     21  N   UNL     1       2.261   6.296  17.827  0.00  0.00    +0.000 N 
ATOM     22  C   UNL     1       2.234   7.210  18.900  0.00  0.00    +0.000 C 
ATOM     23  O   UNL     1       2.424   6.977  20.082  0.00  0.00    +0.000 OA
ATOM     24  H   UNL     1       2.086   6.707  16.906  0.00  0.00    +0.000 HD
BRANCH  21  30
ATOM     25  C   UNL     1       3.800   4.339  17.509  0.00  0.00    +0.000 A 
ATOM     26  C   UNL     1       4.028   2.936  17.571  0.00  0.00    +0.000 A 
ATOM     27  C   UNL     1       3.021   2.065  17.954  0.00  0.00    +0.000 A 
ATOM     28  C   UNL     1       1.772   2.567  18.260  0.00  0.00    +0.000 A 
ATOM     29  C   UNL     1       1.526   3.966  18.192  0.00  0.00    +0.000 A 
ATOM     30  C   UNL     1       2.525   4.882  17.838  0.00  0.00    +0.000 A 
BRANCH  25  31
ATOM     31  C   UNL     1       5.034   5.100  17.170  0.00  0.00    +0.000 C 
ATOM     32  O   UNL     1       5.086   6.318  17.091  0.00  0.00    +0.000 OA
BRANCH  31  33
ATOM     33  O   UNL     1       6.035   4.254  16.844  0.00  0.00    +0.000 OA
BRANCH  33  35
ATOM     34  C   UNL     1       6.011   4.115  14.468  0.00  0.00    +0.000 C 
ATOM     35  C   UNL     1       6.772   4.637  15.676  0.00  0.00    +0.000 C 
ENDBRANCH  33  35
ENDBRANCH  31  33
ENDBRANCH  25  31
ENDBRANCH  21  30
ENDBRANCH   1  22
TORSDOF 6
ENDMDL
MODEL 6
REMARK VINA RESULT:      -8.2      6.576      8.992
REMARK  Name = 
REMARK  7 active torsions:
REMARK  status: ('A' for Active; 'I' for Inactive)
REMARK    1  A    between atoms: C_1  and  C_2
REMARK    2  A    between atoms: C_2  and  O_3
REMARK    3  A    between atoms: O_3  and  C_4
REMARK    4  A    between atoms: C_4  and  C_6
REMARK    5  A    between atoms: C_11  and  N_12
REMARK    6  A    between atoms: C_13  and  C_15
REMARK    7  A    between atoms: N_17  and  C_18
REMARK                            x       y       z     vdW  Elec       q    Type
REMARK                         _______ _______ _______ _____ _____    ______ ____
ROOT
ATOM      1  C   UNL     1       8.837   9.905  18.533  0.00  0.00    +0.000 C 
ATOM      2  O   UNL     1       9.223   9.597  19.656  0.00  0.00    +0.000 OA
ATOM      3  N   UNL     1       8.249   9.051  17.579  0.00  0.00    +0.000 N 
ATOM      4  H   UNL     1       8.110   9.457  16.656  0.00  0.00    +0.000 HD
ENDROOT
BRANCH   3   5
ATOM      5  C   UNL     1       7.687   7.752  17.824  0.00  0.00    +0.000 A 
ATOM      6  C   UNL     1       8.237   6.897  18.788  0.00  0.00    +0.000 A 
ATOM      7  C   UNL     1       7.476   5.854  19.345  0.00  0.00    +0.000 A 
ATOM      8  C   UNL     1       6.218   5.572  18.841  0.00  0.00    +0.000 A 
ATOM      9  N   UNL     1       5.172   5.020  19.627  0.00  0.00    +0.000 NA
ATOM     10  C   UNL     1       4.186   4.544  18.932  0.00  0.00    +0.000 A 
ATOM     11  N   UNL     1       4.337   4.241  17.618  0.00  0.00    +0.000 N 
ATOM     12  C   UNL     1       4.916   5.245  16.851  0.00  0.00    +0.000 A 
ATOM     13  O   UNL     1       4.706   5.410  15.656  0.00  0.00    +0.000 OA
ATOM     14  C   UNL     1       5.872   6.130  17.613  0.00  0.00    +0.000 A 
ATOM     15  C   UNL     1       6.510   7.312  17.172  0.00  0.00    +0.000 A 
ATOM     16  C   UNL     1       4.124   2.850  17.205  0.00  0.00    +0.000 C 
ATOM     17  C   UNL     1       3.390   1.960  18.236  0.00  0.00    +0.000 C 
ATOM     18  C   UNL     1       1.933   2.327  18.447  0.00  0.00    +0.000 C 
ATOM     19  C   UNL     1       1.631   3.745  18.913  0.00  0.00    +0.000 C 
ATOM     20  C   UNL     1       2.736   4.713  19.343  0.00  0.00    +0.000 C 
ENDBRANCH   3   5
BRANCH   1  22
ATOM     21  N   UNL     1      10.279  11.927  18.506  0.00  0.00    +0.000 N 
ATOM     22  C   UNL     1       9.050  11.381  18.079  0.00  0.00    +0.000 C 
ATOM     23  O   UNL     1       8.173  11.932  17.435  0.00  0.00    +0.000 OA
ATOM     24  H   UNL     1      10.878  11.283  19.028  0.00  0.00    +0.000 HD
BRANCH  21  30
ATOM     25  C   UNL     1      10.590  14.320  19.195  0.00  0.00    +0.000 A 
ATOM     26  C   UNL     1      11.172  15.597  18.963  0.00  0.00    +0.000 A 
ATOM     27  C   UNL     1      11.973  15.826  17.856  0.00  0.00    +0.000 A 
ATOM     28  C   UNL     1      12.192  14.802  16.955  0.00  0.00    +0.000 A 
ATOM     29  C   UNL     1      11.607  13.524  17.168  0.00  0.00    +0.000 A 
ATOM     30  C   UNL     1      10.816  13.244  18.290  0.00  0.00    +0.000 A 
BRANCH  25  31
ATOM     31  C   UNL     1       9.848  14.261  20.484  0.00  0.00    +0.000 C 
ATOM     32  O   UNL     1      10.043  13.419  21.349  0.00  0.00    +0.000 OA
BRANCH  31  33
ATOM     33  O   UNL     1       8.858  15.180  20.501  0.00  0.00    +0.000 OA
BRANCH  33  35
ATOM     34  C   UNL     1       7.101  14.977  18.909  0.00  0.00    +0.000 C 
ATOM     35  C   UNL     1       7.545  14.634  20.322  0.00  0.00    +0.000 C 
ENDBRANCH  33  35
ENDBRANCH  31  33
ENDBRANCH  25  31
ENDBRANCH  21  30
ENDBRANCH   1  22
TORSDOF 6
ENDMDL
MODEL 7
REMARK VINA RESULT:      -8.1      1.727      2.567
REMARK  Name = 
REMARK  7 active torsions:
REMARK  status: ('A' for Active; 'I' for Inactive)
REMARK    1  A    between atoms: C_1  and  C_2
REMARK    2  A    between atoms: C_2  and  O_3
REMARK    3  A    between atoms: O_3  and  C_4
REMARK    4  A    between atoms: C_4  and  C_6
REMARK    5  A    between atoms: C_11  and  N_12
REMARK    6  A    between atoms: C_13  and  C_15
REMARK    7  A    between atoms: N_17  and  C_18
REMARK                            x       y       z     vdW  Elec       q    Type
REMARK                         _______ _______ _______ _____ _____    ______ ____
ROOT
ATOM      1  C   UNL     1      -0.398  10.468  21.000  0.00  0.00    +0.000 C 
ATOM      2  O   UNL     1      -1.051  10.793  20.015  0.00  0.00    +0.000 OA
ATOM      3  N   UNL     1       0.523   9.405  21.089  0.00  0.00    +0.000 N 
ATOM      4  H   UNL     1       0.875   9.208  22.023  0.00  0.00    +0.000 HD
ENDROOT
BRANCH   3   5
ATOM      5  C   UNL     1       1.128   8.703  19.991  0.00  0.00    +0.000 A 
ATOM      6  C   UNL     1       1.046   9.199  18.683  0.00  0.00    +0.000 A 
ATOM      7  C   UNL     1       1.967   8.796  17.699  0.00  0.00    +0.000 A 
ATOM      8  C   UNL     1       2.879   7.792  17.978  0.00  0.00    +0.000 A 
ATOM      9  N   UNL     1       4.159   7.715  17.368  0.00  0.00    +0.000 NA
ATOM     10  C   UNL     1       4.741   6.564  17.512  0.00  0.00    +0.000 A 
ATOM     11  N   UNL     1       4.032   5.456  17.842  0.00  0.00    +0.000 N 
ATOM     12  C   UNL     1       3.183   5.610  18.932  0.00  0.00    +0.000 A 
ATOM     13  O   UNL     1       2.854   4.703  19.685  0.00  0.00    +0.000 OA
ATOM     14  C   UNL     1       2.659   7.014  19.113  0.00  0.00    +0.000 A 
ATOM     15  C   UNL     1       1.901   7.534  20.187  0.00  0.00    +0.000 A 
ATOM     16  C   UNL     1       4.035   4.333  16.900  0.00  0.00    +0.000 C 
ATOM     17  C   UNL     1       5.139   4.383  15.817  0.00  0.00    +0.000 C 
ATOM     18  C   UNL     1       6.545   4.192  16.353  0.00  0.00    +0.000 C 
ATOM     19  C   UNL     1       7.029   5.178  17.409  0.00  0.00    +0.000 C 
ATOM     20  C   UNL     1       6.227   6.426  17.784  0.00  0.00    +0.000 C 
ENDBRANCH   3   5
BRANCH   1  22
ATOM     21  N   UNL     1      -1.243  12.525  22.105  0.00  0.00    +0.000 N 
ATOM     22  C   UNL     1      -0.629  11.273  22.315  0.00  0.00    +0.000 C 
ATOM     23  O   UNL     1      -0.263  10.791  23.373  0.00  0.00    +0.000 OA
ATOM     24  H   UNL     1      -1.482  12.730  21.131  0.00  0.00    +0.000 HD
BRANCH  21  30
ATOM     25  C   UNL     1      -2.844  13.527  23.757  0.00  0.00    +0.000 A 
ATOM     26  C   UNL     1      -3.143  14.527  24.723  0.00  0.00    +0.000 A 
ATOM     27  C   UNL     1      -2.235  15.533  25.014  0.00  0.00    +0.000 A 
ATOM     28  C   UNL     1      -1.031  15.573  24.340  0.00  0.00    +0.000 A 
ATOM     29  C   UNL     1      -0.724  14.587  23.363  0.00  0.00    +0.000 A 
ATOM     30  C   UNL     1      -1.602  13.538  23.062  0.00  0.00    +0.000 A 
BRANCH  25  31
ATOM     31  C   UNL     1      -3.909  12.491  23.665  0.00  0.00    +0.000 C 
ATOM     32  O   UNL     1      -4.397  11.924  24.632  0.00  0.00    +0.000 OA
BRANCH  31  33
ATOM     33  O   UNL     1      -4.159  12.184  22.373  0.00  0.00    +0.000 OA
BRANCH  33  35
ATOM     34  C   UNL     1      -4.554  13.261  20.288  0.00  0.00    +0.000 C 
ATOM     35  C   UNL     1      -5.051  13.092  21.715  0.00  0.00    +0.000 C 
ENDBRANCH  33  35
ENDBRANCH  31  33
ENDBRANCH  25  31
ENDBRANCH  21  30
ENDBRANCH   1  22
TORSDOF 6
ENDMDL
MODEL 8
REMARK VINA RESULT:      -8.1      2.454      9.917
REMARK  Name = 
REMARK  7 active torsions:
REMARK  status: ('A' for Active; 'I' for Inactive)
REMARK    1  A    between atoms: C_1  and  C_2
REMARK    2  A    between atoms: C_2  and  O_3
REMARK    3  A    between atoms: O_3  and  C_4
REMARK    4  A    between atoms: C_4  and  C_6
REMARK    5  A    between atoms: C_11  and  N_12
REMARK    6  A    between atoms: C_13  and  C_15
REMARK    7  A    between atoms: N_17  and  C_18
REMARK                            x       y       z     vdW  Elec       q    Type
REMARK                         _______ _______ _______ _____ _____    ______ ____
ROOT
ATOM      1  C   UNL     1       2.317   5.976  19.764  0.00  0.00    +0.000 C 
ATOM      2  O   UNL     1       1.609   5.447  20.614  0.00  0.00    +0.000 OA
ATOM      3  N   UNL     1       2.207   7.292  19.274  0.00  0.00    +0.000 N 
ATOM      4  H   UNL     1       2.803   7.514  18.479  0.00  0.00    +0.000 HD
ENDROOT
BRANCH   3   5
ATOM      5  C   UNL     1       1.479   8.373  19.878  0.00  0.00    +0.000 A 
ATOM      6  C   UNL     1       1.382   8.489  21.272  0.00  0.00    +0.000 A 
ATOM      7  C   UNL     1       1.077   9.722  21.874  0.00  0.00    +0.000 A 
ATOM      8  C   UNL     1       0.729  10.807  21.088  0.00  0.00    +0.000 A 
ATOM      9  N   UNL     1       0.982  12.152  21.464  0.00  0.00    +0.000 NA
ATOM     10  C   UNL     1       0.324  13.026  20.767  0.00  0.00    +0.000 A 
ATOM     11  N   UNL     1      -0.775  12.672  20.056  0.00  0.00    +0.000 N 
ATOM     12  C   UNL     1      -0.608  11.558  19.241  0.00  0.00    +0.000 A 
ATOM     13  O   UNL     1      -1.228  11.363  18.203  0.00  0.00    +0.000 OA
ATOM     14  C   UNL     1       0.403  10.563  19.755  0.00  0.00    +0.000 A 
ATOM     15  C   UNL     1       0.905   9.412  19.107  0.00  0.00    +0.000 A 
ATOM     16  C   UNL     1      -2.050  13.311  20.398  0.00  0.00    +0.000 C 
ATOM     17  C   UNL     1      -1.937  14.583  21.271  0.00  0.00    +0.000 C 
ATOM     18  C   UNL     1      -1.309  15.769  20.563  0.00  0.00    +0.000 C 
ATOM     19  C   UNL     1       0.099  15.584  20.009  0.00  0.00    +0.000 C 
ATOM     20  C   UNL     1       0.934  14.338  20.310  0.00  0.00    +0.000 C 
ENDBRANCH   3   5
BRANCH   1  22
ATOM     21  N   UNL     1       4.024   5.701  17.982  0.00  0.00    +0.000 N 
ATOM     22  C   UNL     1       3.435   5.104  19.115  0.00  0.00    +0.000 C 
ATOM     23  O   UNL     1       3.691   4.016  19.603  0.00  0.00    +0.000 OA
ATOM     24  H   UNL     1       3.668   6.632  17.751  0.00  0.00    +0.000 HD
BRANCH  21  30
ATOM     25  C   UNL     1       6.445   5.266  17.481  0.00  0.00    +0.000 A 
ATOM     26  C   UNL     1       7.441   4.725  16.622  0.00  0.00    +0.000 A 
ATOM     27  C   UNL     1       7.098   4.122  15.422  0.00  0.00    +0.000 A 
ATOM     28  C   UNL     1       5.770   4.065  15.048  0.00  0.00    +0.000 A 
ATOM     29  C   UNL     1       4.765   4.611  15.892  0.00  0.00    +0.000 A 
ATOM     30  C   UNL     1       5.067   5.202  17.126  0.00  0.00    +0.000 A 
BRANCH  25  31
ATOM     31  C   UNL     1       7.014   5.779  18.757  0.00  0.00    +0.000 C 
ATOM     32  O   UNL     1       6.619   5.448  19.865  0.00  0.00    +0.000 OA
BRANCH  31  33
ATOM     33  O   UNL     1       7.928   6.743  18.511  0.00  0.00    +0.000 OA
BRANCH  33  35
ATOM     34  C   UNL     1       8.311   9.040  18.020  0.00  0.00    +0.000 C 
ATOM     35  C   UNL     1       7.437   7.833  17.721  0.00  0.00    +0.000 C 
ENDBRANCH  33  35
ENDBRANCH  31  33
ENDBRANCH  25  31
ENDBRANCH  21  30
ENDBRANCH   1  22
TORSDOF 6
ENDMDL
MODEL 9
REMARK VINA RESULT:      -8.1      2.920     10.228
REMARK  Name = 
REMARK  7 active torsions:
REMARK  status: ('A' for Active; 'I' for Inactive)
REMARK    1  A    between atoms: C_1  and  C_2
REMARK    2  A    between atoms: C_2  and  O_3
REMARK    3  A    between atoms: O_3  and  C_4
REMARK    4  A    between atoms: C_4  and  C_6
REMARK    5  A    between atoms: C_11  and  N_12
REMARK    6  A    between atoms: C_13  and  C_15
REMARK    7  A    between atoms: N_17  and  C_18
REMARK                            x       y       z     vdW  Elec       q    Type
REMARK                         _______ _______ _______ _____ _____    ______ ____
ROOT
ATOM      1  C   UNL     1       1.934   8.570  18.541  0.00  0.00    +0.000 C 
ATOM      2  O   UNL     1       2.336   8.920  17.437  0.00  0.00    +0.000 OA
ATOM      3  N   UNL     1       1.230   9.360  19.471  0.00  0.00    +0.000 N 
ATOM      4  H   UNL     1       1.089   8.937  20.386  0.00  0.00    +0.000 HD
ENDROOT
BRANCH   3   5
ATOM      5  C   UNL     1       0.560  10.602  19.206  0.00  0.00    +0.000 A 
ATOM      6  C   UNL     1      -0.799  10.632  18.865  0.00  0.00    +0.000 A 
ATOM      7  C   UNL     1      -1.561  11.801  19.034  0.00  0.00    +0.000 A 
ATOM      8  C   UNL     1      -0.940  12.981  19.407  0.00  0.00    +0.000 A 
ATOM      9  N   UNL     1      -1.589  13.997  20.158  0.00  0.00    +0.000 NA
ATOM     10  C   UNL     1      -0.969  15.136  20.148  0.00  0.00    +0.000 A 
ATOM     11  N   UNL     1      -0.044  15.422  19.198  0.00  0.00    +0.000 N 
ATOM     12  C   UNL     1       0.924  14.442  19.012  0.00  0.00    +0.000 A 
ATOM     13  O   UNL     1       2.063  14.661  18.621  0.00  0.00    +0.000 OA
ATOM     14  C   UNL     1       0.449  13.041  19.311  0.00  0.00    +0.000 A 
ATOM     15  C   UNL     1       1.209  11.850  19.360  0.00  0.00    +0.000 A 
ATOM     16  C   UNL     1      -0.294  16.568  18.318  0.00  0.00    +0.000 C 
ATOM     17  C   UNL     1      -1.390  17.546  18.804  0.00  0.00    +0.000 C 
ATOM     18  C   UNL     1      -1.015  18.332  20.046  0.00  0.00    +0.000 C 
ATOM     19  C   UNL     1      -0.661  17.535  21.295  0.00  0.00    +0.000 C 
ATOM     20  C   UNL     1      -0.857  16.019  21.376  0.00  0.00    +0.000 C 
ENDBRANCH   3   5
BRANCH   1  22
ATOM     21  N   UNL     1       2.590   6.253  17.935  0.00  0.00    +0.000 N 
ATOM     22  C   UNL     1       2.264   7.117  19.000  0.00  0.00    +0.000 C 
ATOM     23  O   UNL     1       2.201   6.846  20.188  0.00  0.00    +0.000 OA
ATOM     24  H   UNL     1       2.597   6.692  17.011  0.00  0.00    +0.000 HD
BRANCH  21  30
ATOM     25  C   UNL     1       4.255   4.404  18.261  0.00  0.00    +0.000 A 
ATOM     26  C   UNL     1       4.546   3.012  18.318  0.00  0.00    +0.000 A 
ATOM     27  C   UNL     1       3.559   2.066  18.092  0.00  0.00    +0.000 A 
ATOM     28  C   UNL     1       2.279   2.483  17.786  0.00  0.00    +0.000 A 
ATOM     29  C   UNL     1       1.976   3.871  17.715  0.00  0.00    +0.000 A 
ATOM     30  C   UNL     1       2.938   4.857  17.966  0.00  0.00    +0.000 A 
BRANCH  25  31
ATOM     31  C   UNL     1       5.427   5.244  18.627  0.00  0.00    +0.000 C 
ATOM     32  O   UNL     1       5.996   5.191  19.707  0.00  0.00    +0.000 OA
BRANCH  31  33
ATOM     33  O   UNL     1       5.683   6.146  17.655  0.00  0.00    +0.000 OA
BRANCH  33  35
ATOM     34  C   UNL     1       7.549   7.620  17.552  0.00  0.00    +0.000 C 
ATOM     35  C   UNL     1       7.059   6.211  17.259  0.00  0.00    +0.000 C 
ENDBRANCH  33  35
ENDBRANCH  31  33
ENDBRANCH  25  31
ENDBRANCH  21  30
ENDBRANCH   1  22
TORSDOF 6
ENDMDL
