MODEL 1
REMARK VINA RESULT:      -7.8      0.000      0.000
REMARK  Name = 
REMARK  4 active torsions:
REMARK  status: ('A' for Active; 'I' for Inactive)
REMARK    1  A    between atoms: C_2  and  C_10
REMARK    2  A    between atoms: N_3  and  C_4
REMARK    3  A    between atoms: C_4  and  C_5
REMARK    4  A    between atoms: N_17  and  C_18
REMARK                            x       y       z     vdW  Elec       q    Type
REMARK                         _______ _______ _______ _____ _____    ______ ____
ROOT
ATOM      1  C   UNL     1       2.262   4.550  19.808  0.00  0.00    +0.000 C 
ATOM      2  C   UNL     1       1.683   4.351  21.225  0.00  0.00    +0.000 C 
ATOM      3  C   UNL     1       2.013   2.912  21.573  0.00  0.00    +0.000 C 
ATOM      4  C   UNL     1       3.267   2.614  20.773  0.00  0.00    +0.000 C 
ATOM      5  N   UNL     1       3.506   3.760  19.908  0.00  0.00    +0.000 N 
ATOM      6  C   UNL     1       4.579   3.633  19.056  0.00  0.00    +0.000 C 
ATOM      7  O   UNL     1       5.311   2.645  19.107  0.00  0.00    +0.000 OA
ATOM      8  N   UNL     1       4.833   4.648  18.178  0.00  0.00    +0.000 N 
ATOM      9  H   UNL     1       4.508   5.567  18.482  0.00  0.00    +0.000 HD
ENDROOT
BRANCH   8  10
ATOM     10  C   UNL     1       6.031   4.608  17.321  0.00  0.00    +0.000 C 
ATOM     11  C   UNL     1       5.981   5.646  16.198  0.00  0.00    +0.000 C 
ATOM     12  C   UNL     1       6.013   7.064  16.757  0.00  0.00    +0.000 C 
ATOM     13  C   UNL     1       7.282   7.301  17.571  0.00  0.00    +0.000 C 
ATOM     14  C   UNL     1       7.524   6.221  18.627  0.00  0.00    +0.000 C 
ATOM     15  C   UNL     1       7.350   4.796  18.094  0.00  0.00    +0.000 C 
ENDBRANCH   8  10
BRANCH   1  17
ATOM     16  O   UNL     1       2.731   6.529  18.456  0.00  0.00    +0.000 OA
ATOM     17  C   UNL     1       2.302   6.054  19.510  0.00  0.00    +0.000 C 
ATOM     18  N   UNL     1       1.756   6.850  20.509  0.00  0.00    +0.000 N 
ATOM     19  H   UNL     1       1.589   6.459  21.427  0.00  0.00    +0.000 HD
BRANCH  18  20
ATOM     20  C   UNL     1       1.794   8.296  20.445  0.00  0.00    +0.000 C 
BRANCH  20  21
ATOM     21  C   UNL     1       1.150   8.971  21.662  0.00  0.00    +0.000 C 
ATOM     22  C   UNL     1      -0.271   8.562  22.019  0.00  0.00    +0.000 C 
ATOM     23  C   UNL     1      -0.689   9.726  22.883  0.00  0.00    +0.000 C 
ATOM     24  C   UNL     1      -0.040  10.904  22.181  0.00  0.00    +0.000 C 
ATOM     25  O   UNL     1       1.094  10.399  21.458  0.00  0.00    +0.000 OA
ENDBRANCH  20  21
ENDBRANCH  18  20
ENDBRANCH   1  17
TORSDOF 4
ENDMDL
MODEL 2
REMARK VINA RESULT:      -7.5      1.154      1.425
REMARK  Name = 
REMARK  4 active torsions:
REMARK  status: ('A' for Active; 'I' for Inactive)
REMARK    1  A    between atoms: C_2  and  C_10
REMARK    2  A    between atoms: N_3  and  C_4
REMARK    3  A    between atoms: C_4  and  C_5
REMARK    4  A    between atoms: N_17  and  C_18
REMARK                            x       y       z     vdW  Elec       q    Type
REMARK                         _______ _______ _______ _____ _____    ______ ____
ROOT
ATOM      1  C   UNL     1       2.285   4.670  19.742  0.00  0.00    +0.000 C 
ATOM      2  C   UNL     1       1.629   4.493  21.128  0.00  0.00    +0.000 C 
ATOM      3  C   UNL     1       1.876   3.039  21.484  0.00  0.00    +0.000 C 
ATOM      4  C   UNL     1       3.154   2.687  20.745  0.00  0.00    +0.000 C 
ATOM      5  N   UNL     1       3.486   3.824  19.899  0.00  0.00    +0.000 N 
ATOM      6  C   UNL     1       4.593   3.651  19.100  0.00  0.00    +0.000 C 
ATOM      7  O   UNL     1       5.276   2.631  19.182  0.00  0.00    +0.000 OA
ATOM      8  N   UNL     1       4.935   4.657  18.240  0.00  0.00    +0.000 N 
ATOM      9  H   UNL     1       4.637   5.588  18.533  0.00  0.00    +0.000 HD
ENDROOT
BRANCH   8  10
ATOM     10  C   UNL     1       6.171   4.565  17.443  0.00  0.00    +0.000 C 
ATOM     11  C   UNL     1       6.167   5.522  16.248  0.00  0.00    +0.000 C 
ATOM     12  C   UNL     1       6.168   6.975  16.706  0.00  0.00    +0.000 C 
ATOM     13  C   UNL     1       7.398   7.278  17.558  0.00  0.00    +0.000 C 
ATOM     14  C   UNL     1       7.597   6.277  18.697  0.00  0.00    +0.000 C 
ATOM     15  C   UNL     1       7.452   4.817  18.259  0.00  0.00    +0.000 C 
ENDBRANCH   8  10
BRANCH   1  17
ATOM     16  O   UNL     1       2.921   6.630  18.431  0.00  0.00    +0.000 OA
ATOM     17  C   UNL     1       2.407   6.171  19.455  0.00  0.00    +0.000 C 
ATOM     18  N   UNL     1       1.835   6.987  20.422  0.00  0.00    +0.000 N 
ATOM     19  H   UNL     1       1.596   6.602  21.327  0.00  0.00    +0.000 HD
BRANCH  18  20
ATOM     20  C   UNL     1       1.939   8.431  20.368  0.00  0.00    +0.000 C 
BRANCH  20  21
ATOM     21  C   UNL     1       0.680   9.105  19.810  0.00  0.00    +0.000 C 
ATOM     22  C   UNL     1       0.781   9.749  18.436  0.00  0.00    +0.000 C 
ATOM     23  C   UNL     1      -0.413  10.670  18.469  0.00  0.00    +0.000 C 
ATOM     24  C   UNL     1      -0.407  11.162  19.904  0.00  0.00    +0.000 C 
ATOM     25  O   UNL     1       0.257  10.164  20.696  0.00  0.00    +0.000 OA
ENDBRANCH  20  21
ENDBRANCH  18  20
ENDBRANCH   1  17
TORSDOF 4
ENDMDL
MODEL 3
REMARK VINA RESULT:      -7.4      0.787      1.224
REMARK  Name = 
REMARK  4 active torsions:
REMARK  status: ('A' for Active; 'I' for Inactive)
REMARK    1  A    between atoms: C_2  and  C_10
REMARK    2  A    between atoms: N_3  and  C_4
REMARK    3  A    between atoms: C_4  and  C_5
REMARK    4  A    between atoms: N_17  and  C_18
REMARK                            x       y       z     vdW  Elec       q    Type
REMARK                         _______ _______ _______ _____ _____    ______ ____
ROOT
ATOM      1  C   UNL     1       2.077   4.435  19.659  0.00  0.00    +0.000 C 
ATOM      2  C   UNL     1       1.226   4.256  20.934  0.00  0.00    +0.000 C 
ATOM      3  C   UNL     1       1.522   2.842  21.395  0.00  0.00    +0.000 C 
ATOM      4  C   UNL     1       2.923   2.568  20.881  0.00  0.00    +0.000 C 
ATOM      5  N   UNL     1       3.298   3.696  20.041  0.00  0.00    +0.000 N 
ATOM      6  C   UNL     1       4.527   3.585  19.433  0.00  0.00    +0.000 C 
ATOM      7  O   UNL     1       5.264   2.629  19.669  0.00  0.00    +0.000 OA
ATOM      8  N   UNL     1       4.924   4.583  18.588  0.00  0.00    +0.000 N 
ATOM      9  H   UNL     1       4.515   5.497  18.785  0.00  0.00    +0.000 HD
ENDROOT
BRANCH   8  10
ATOM     10  C   UNL     1       6.274   4.564  17.996  0.00  0.00    +0.000 C 
ATOM     11  C   UNL     1       6.258   4.173  16.517  0.00  0.00    +0.000 C 
ATOM     12  C   UNL     1       5.538   5.223  15.679  0.00  0.00    +0.000 C 
ATOM     13  C   UNL     1       6.216   6.584  15.807  0.00  0.00    +0.000 C 
ATOM     14  C   UNL     1       6.436   7.007  17.261  0.00  0.00    +0.000 C 
ATOM     15  C   UNL     1       7.029   5.899  18.136  0.00  0.00    +0.000 C 
ENDBRANCH   8  10
BRANCH   1  17
ATOM     16  O   UNL     1       2.415   6.365  18.202  0.00  0.00    +0.000 OA
ATOM     17  C   UNL     1       2.130   5.929  19.321  0.00  0.00    +0.000 C 
ATOM     18  N   UNL     1       1.772   6.767  20.369  0.00  0.00    +0.000 N 
ATOM     19  H   UNL     1       1.730   6.402  21.312  0.00  0.00    +0.000 HD
BRANCH  18  20
ATOM     20  C   UNL     1       1.856   8.209  20.263  0.00  0.00    +0.000 C 
BRANCH  20  21
ATOM     21  C   UNL     1       0.676   8.932  20.923  0.00  0.00    +0.000 C 
ATOM     22  C   UNL     1       0.715  10.452  20.955  0.00  0.00    +0.000 C 
ATOM     23  C   UNL     1      -0.284  10.735  22.049  0.00  0.00    +0.000 C 
ATOM     24  C   UNL     1      -0.011   9.619  23.039  0.00  0.00    +0.000 C 
ATOM     25  O   UNL     1       0.561   8.525  22.304  0.00  0.00    +0.000 OA
ENDBRANCH  20  21
ENDBRANCH  18  20
ENDBRANCH   1  17
TORSDOF 4
ENDMDL
MODEL 4
REMARK VINA RESULT:      -7.4      1.086      1.278
REMARK  Name = 
REMARK  4 active torsions:
REMARK  status: ('A' for Active; 'I' for Inactive)
REMARK    1  A    between atoms: C_2  and  C_10
REMARK    2  A    between atoms: N_3  and  C_4
REMARK    3  A    between atoms: C_4  and  C_5
REMARK    4  A    between atoms: N_17  and  C_18
REMARK                            x       y       z     vdW  Elec       q    Type
REMARK                         _______ _______ _______ _____ _____    ______ ____
ROOT
ATOM      1  C   UNL     1       1.831   4.691  19.424  0.00  0.00    +0.000 C 
ATOM      2  C   UNL     1       1.218   4.114  20.718  0.00  0.00    +0.000 C 
ATOM      3  C   UNL     1       1.162   2.617  20.479  0.00  0.00    +0.000 C 
ATOM      4  C   UNL     1       2.297   2.352  19.507  0.00  0.00    +0.000 C 
ATOM      5  N   UNL     1       2.826   3.648  19.104  0.00  0.00    +0.000 N 
ATOM      6  C   UNL     1       3.831   3.599  18.165  0.00  0.00    +0.000 C 
ATOM      7  O   UNL     1       4.281   2.521  17.778  0.00  0.00    +0.000 OA
ATOM      8  N   UNL     1       4.341   4.779  17.700  0.00  0.00    +0.000 N 
ATOM      9  H   UNL     1       4.265   5.562  18.351  0.00  0.00    +0.000 HD
ENDROOT
BRANCH   8  10
ATOM     10  C   UNL     1       5.488   4.780  16.776  0.00  0.00    +0.000 C 
ATOM     11  C   UNL     1       5.630   6.105  16.024  0.00  0.00    +0.000 C 
ATOM     12  C   UNL     1       5.964   7.246  16.977  0.00  0.00    +0.000 C 
ATOM     13  C   UNL     1       7.270   6.974  17.718  0.00  0.00    +0.000 C 
ATOM     14  C   UNL     1       7.306   5.595  18.379  0.00  0.00    +0.000 C 
ATOM     15  C   UNL     1       6.832   4.465  17.460  0.00  0.00    +0.000 C 
ENDBRANCH   8  10
BRANCH   1  17
ATOM     16  O   UNL     1       3.083   6.745  19.007  0.00  0.00    +0.000 OA
ATOM     17  C   UNL     1       2.260   6.137  19.696  0.00  0.00    +0.000 C 
ATOM     18  N   UNL     1       1.599   6.740  20.759  0.00  0.00    +0.000 N 
ATOM     19  H   UNL     1       1.080   6.170  21.415  0.00  0.00    +0.000 HD
BRANCH  18  20
ATOM     20  C   UNL     1       1.943   8.068  21.223  0.00  0.00    +0.000 C 
BRANCH  20  21
ATOM     21  C   UNL     1       0.849   9.105  20.944  0.00  0.00    +0.000 C 
ATOM     22  C   UNL     1       0.735   9.640  19.525  0.00  0.00    +0.000 C 
ATOM     23  C   UNL     1      -0.051  10.906  19.764  0.00  0.00    +0.000 C 
ATOM     24  C   UNL     1       0.530  11.409  21.072  0.00  0.00    +0.000 C 
ATOM     25  O   UNL     1       1.054  10.270  21.774  0.00  0.00    +0.000 OA
ENDBRANCH  20  21
ENDBRANCH  18  20
ENDBRANCH   1  17
TORSDOF 4
ENDMDL
MODEL 5
REMARK VINA RESULT:      -7.3      1.524      1.874
REMARK  Name = 
REMARK  4 active torsions:
REMARK  status: ('A' for Active; 'I' for Inactive)
REMARK    1  A    between atoms: C_2  and  C_10
REMARK    2  A    between atoms: N_3  and  C_4
REMARK    3  A    between atoms: C_4  and  C_5
REMARK    4  A    between atoms: N_17  and  C_18
REMARK                            x       y       z     vdW  Elec       q    Type
REMARK                         _______ _______ _______ _____ _____    ______ ____
ROOT
ATOM      1  C   UNL     1       1.882   3.589  19.239  0.00  0.00    +0.000 C 
ATOM      2  C   UNL     1       0.966   3.735  20.472  0.00  0.00    +0.000 C 
ATOM      3  C   UNL     1       1.484   2.703  21.456  0.00  0.00    +0.000 C 
ATOM      4  C   UNL     1       2.953   2.558  21.105  0.00  0.00    +0.000 C 
ATOM      5  N   UNL     1       3.181   3.331  19.892  0.00  0.00    +0.000 N 
ATOM      6  C   UNL     1       4.460   3.259  19.389  0.00  0.00    +0.000 C 
ATOM      7  O   UNL     1       5.341   2.647  19.991  0.00  0.00    +0.000 OA
ATOM      8  N   UNL     1       4.735   3.917  18.224  0.00  0.00    +0.000 N 
ATOM      9  H   UNL     1       4.142   4.727  18.041  0.00  0.00    +0.000 HD
ENDROOT
BRANCH   8  10
ATOM     10  C   UNL     1       6.113   3.960  17.701  0.00  0.00    +0.000 C 
ATOM     11  C   UNL     1       6.156   4.022  16.173  0.00  0.00    +0.000 C 
ATOM     12  C   UNL     1       5.559   5.326  15.657  0.00  0.00    +0.000 C 
ATOM     13  C   UNL     1       6.320   6.529  16.206  0.00  0.00    +0.000 C 
ATOM     14  C   UNL     1       6.483   6.490  17.727  0.00  0.00    +0.000 C 
ATOM     15  C   UNL     1       6.947   5.130  18.256  0.00  0.00    +0.000 C 
ENDBRANCH   8  10
BRANCH   1  17
ATOM     16  O   UNL     1       1.051   4.784  17.278  0.00  0.00    +0.000 OA
ATOM     17  C   UNL     1       1.679   4.813  18.339  0.00  0.00    +0.000 C 
ATOM     18  N   UNL     1       2.215   5.990  18.845  0.00  0.00    +0.000 N 
ATOM     19  H   UNL     1       2.879   5.953  19.608  0.00  0.00    +0.000 HD
BRANCH  18  20
ATOM     20  C   UNL     1       2.204   7.226  18.090  0.00  0.00    +0.000 C 
BRANCH  20  21
ATOM     21  C   UNL     1       1.952   8.463  18.961  0.00  0.00    +0.000 C 
ATOM     22  C   UNL     1       1.421   8.232  20.367  0.00  0.00    +0.000 C 
ATOM     23  C   UNL     1       0.865   9.599  20.684  0.00  0.00    +0.000 C 
ATOM     24  C   UNL     1       0.273  10.028  19.356  0.00  0.00    +0.000 C 
ATOM     25  O   UNL     1       0.980   9.321  18.324  0.00  0.00    +0.000 OA
ENDBRANCH  20  21
ENDBRANCH  18  20
ENDBRANCH   1  17
TORSDOF 4
ENDMDL
MODEL 6
REMARK VINA RESULT:      -7.2      1.842      4.624
REMARK  Name = 
REMARK  4 active torsions:
REMARK  status: ('A' for Active; 'I' for Inactive)
REMARK    1  A    between atoms: C_2  and  C_10
REMARK    2  A    between atoms: N_3  and  C_4
REMARK    3  A    between atoms: C_4  and  C_5
REMARK    4  A    between atoms: N_17  and  C_18
REMARK                            x       y       z     vdW  Elec       q    Type
REMARK                         _______ _______ _______ _____ _____    ______ ____
ROOT
ATOM      1  C   UNL     1       4.914   6.604  18.063  0.00  0.00    +0.000 C 
ATOM      2  C   UNL     1       5.678   7.057  16.800  0.00  0.00    +0.000 C 
ATOM      3  C   UNL     1       7.030   6.377  16.908  0.00  0.00    +0.000 C 
ATOM      4  C   UNL     1       6.753   5.124  17.717  0.00  0.00    +0.000 C 
ATOM      5  N   UNL     1       5.372   5.204  18.172  0.00  0.00    +0.000 N 
ATOM      6  C   UNL     1       4.965   4.170  18.983  0.00  0.00    +0.000 C 
ATOM      7  O   UNL     1       5.713   3.221  19.217  0.00  0.00    +0.000 OA
ATOM      8  N   UNL     1       3.697   4.205  19.490  0.00  0.00    +0.000 N 
ATOM      9  H   UNL     1       3.026   4.727  18.926  0.00  0.00    +0.000 HD
ENDROOT
BRANCH   8  10
ATOM     10  C   UNL     1       3.178   3.070  20.275  0.00  0.00    +0.000 C 
ATOM     11  C   UNL     1       2.052   3.484  21.225  0.00  0.00    +0.000 C 
ATOM     12  C   UNL     1       0.823   3.949  20.452  0.00  0.00    +0.000 C 
ATOM     13  C   UNL     1       0.299   2.842  19.542  0.00  0.00    +0.000 C 
ATOM     14  C   UNL     1       1.387   2.235  18.653  0.00  0.00    +0.000 C 
ATOM     15  C   UNL     1       2.676   1.900  19.409  0.00  0.00    +0.000 C 
ENDBRANCH   8  10
BRANCH   1  17
ATOM     16  O   UNL     1       2.547   6.084  17.761  0.00  0.00    +0.000 OA
ATOM     17  C   UNL     1       3.430   6.938  17.874  0.00  0.00    +0.000 C 
ATOM     18  N   UNL     1       3.142   8.297  17.898  0.00  0.00    +0.000 N 
ATOM     19  H   UNL     1       3.890   8.971  17.801  0.00  0.00    +0.000 HD
BRANCH  18  20
ATOM     20  C   UNL     1       1.810   8.804  17.640  0.00  0.00    +0.000 C 
BRANCH  20  21
ATOM     21  C   UNL     1       1.272   9.689  18.771  0.00  0.00    +0.000 C 
ATOM     22  C   UNL     1       1.047   9.036  20.125  0.00  0.00    +0.000 C 
ATOM     23  C   UNL     1       0.108  10.030  20.764  0.00  0.00    +0.000 C 
ATOM     24  C   UNL     1      -0.769  10.446  19.599  0.00  0.00    +0.000 C 
ATOM     25  O   UNL     1      -0.010  10.239  18.396  0.00  0.00    +0.000 OA
ENDBRANCH  20  21
ENDBRANCH  18  20
ENDBRANCH   1  17
TORSDOF 4
ENDMDL
MODEL 7
REMARK VINA RESULT:      -7.2      1.493      1.687
REMARK  Name = 
REMARK  4 active torsions:
REMARK  status: ('A' for Active; 'I' for Inactive)
REMARK    1  A    between atoms: C_2  and  C_10
REMARK    2  A    between atoms: N_3  and  C_4
REMARK    3  A    between atoms: C_4  and  C_5
REMARK    4  A    between atoms: N_17  and  C_18
REMARK                            x       y       z     vdW  Elec       q    Type
REMARK                         _______ _______ _______ _____ _____    ______ ____
ROOT
ATOM      1  C   UNL     1       1.818   4.651  19.524  0.00  0.00    +0.000 C 
ATOM      2  C   UNL     1       1.271   3.969  20.797  0.00  0.00    +0.000 C 
ATOM      3  C   UNL     1       1.091   2.515  20.403  0.00  0.00    +0.000 C 
ATOM      4  C   UNL     1       2.123   2.294  19.313  0.00  0.00    +0.000 C 
ATOM      5  N   UNL     1       2.708   3.592  19.008  0.00  0.00    +0.000 N 
ATOM      6  C   UNL     1       3.629   3.589  17.985  0.00  0.00    +0.000 C 
ATOM      7  O   UNL     1       3.969   2.537  17.446  0.00  0.00    +0.000 OA
ATOM      8  N   UNL     1       4.182   4.781  17.608  0.00  0.00    +0.000 N 
ATOM      9  H   UNL     1       4.214   5.488  18.344  0.00  0.00    +0.000 HD
ENDROOT
BRANCH   8  10
ATOM     10  C   UNL     1       5.249   4.817  16.593  0.00  0.00    +0.000 C 
ATOM     11  C   UNL     1       5.408   6.202  15.962  0.00  0.00    +0.000 C 
ATOM     12  C   UNL     1       5.884   7.223  16.988  0.00  0.00    +0.000 C 
ATOM     13  C   UNL     1       7.227   6.813  17.585  0.00  0.00    +0.000 C 
ATOM     14  C   UNL     1       7.235   5.373  18.104  0.00  0.00    +0.000 C 
ATOM     15  C   UNL     1       6.623   4.368  17.125  0.00  0.00    +0.000 C 
ENDBRANCH   8  10
BRANCH   1  17
ATOM     16  O   UNL     1       3.494   6.425  19.602  0.00  0.00    +0.000 OA
ATOM     17  C   UNL     1       2.368   6.028  19.914  0.00  0.00    +0.000 C 
ATOM     18  N   UNL     1       1.469   6.829  20.605  0.00  0.00    +0.000 N 
ATOM     19  H   UNL     1       0.637   6.418  21.008  0.00  0.00    +0.000 HD
BRANCH  18  20
ATOM     20  C   UNL     1       1.845   8.123  21.137  0.00  0.00    +0.000 C 
BRANCH  20  21
ATOM     21  C   UNL     1       1.199   9.294  20.387  0.00  0.00    +0.000 C 
ATOM     22  C   UNL     1      -0.305   9.469  20.525  0.00  0.00    +0.000 C 
ATOM     23  C   UNL     1      -0.597  10.341  19.329  0.00  0.00    +0.000 C 
ATOM     24  C   UNL     1       0.341   9.779  18.278  0.00  0.00    +0.000 C 
ATOM     25  O   UNL     1       1.438   9.161  18.969  0.00  0.00    +0.000 OA
ENDBRANCH  20  21
ENDBRANCH  18  20
ENDBRANCH   1  17
TORSDOF 4
ENDMDL
MODEL 8
REMARK VINA RESULT:      -7.1      1.738      2.021
REMARK  Name = 
REMARK  4 active torsions:
REMARK  status: ('A' for Active; 'I' for Inactive)
REMARK    1  A    between atoms: C_2  and  C_10
REMARK    2  A    between atoms: N_3  and  C_4
REMARK    3  A    between atoms: C_4  and  C_5
REMARK    4  A    between atoms: N_17  and  C_18
REMARK                            x       y       z     vdW  Elec       q    Type
REMARK                         _______ _______ _______ _____ _____    ______ ____
ROOT
ATOM      1  C   UNL     1       1.866   4.550  18.807  0.00  0.00    +0.000 C 
ATOM      2  C   UNL     1       1.014   4.008  19.973  0.00  0.00    +0.000 C 
ATOM      3  C   UNL     1       0.896   2.520  19.701  0.00  0.00    +0.000 C 
ATOM      4  C   UNL     1       2.153   2.184  18.920  0.00  0.00    +0.000 C 
ATOM      5  N   UNL     1       2.828   3.442  18.633  0.00  0.00    +0.000 N 
ATOM      6  C   UNL     1       3.966   3.331  17.868  0.00  0.00    +0.000 C 
ATOM      7  O   UNL     1       4.399   2.227  17.539  0.00  0.00    +0.000 OA
ATOM      8  N   UNL     1       4.623   4.475  17.514  0.00  0.00    +0.000 N 
ATOM      9  H   UNL     1       4.497   5.257  18.158  0.00  0.00    +0.000 HD
ENDROOT
BRANCH   8  10
ATOM     10  C   UNL     1       5.904   4.403  16.787  0.00  0.00    +0.000 C 
ATOM     11  C   UNL     1       6.049   5.517  15.748  0.00  0.00    +0.000 C 
ATOM     12  C   UNL     1       6.116   6.886  16.414  0.00  0.00    +0.000 C 
ATOM     13  C   UNL     1       7.300   6.969  17.373  0.00  0.00    +0.000 C 
ATOM     14  C   UNL     1       7.350   5.803  18.364  0.00  0.00    +0.000 C 
ATOM     15  C   UNL     1       7.138   4.436  17.708  0.00  0.00    +0.000 C 
ENDBRANCH   8  10
BRANCH   1  17
ATOM     16  O   UNL     1       2.770   6.269  20.288  0.00  0.00    +0.000 OA
ATOM     17  C   UNL     1       2.343   5.961  19.172  0.00  0.00    +0.000 C 
ATOM     18  N   UNL     1       2.311   6.866  18.120  0.00  0.00    +0.000 N 
ATOM     19  H   UNL     1       1.787   6.645  17.283  0.00  0.00    +0.000 HD
BRANCH  18  20
ATOM     20  C   UNL     1       2.633   8.266  18.301  0.00  0.00    +0.000 C 
BRANCH  20  21
ATOM     21  C   UNL     1       1.401   9.137  18.577  0.00  0.00    +0.000 C 
ATOM     22  C   UNL     1       1.512  10.623  18.274  0.00  0.00    +0.000 C 
ATOM     23  C   UNL     1       0.368  11.163  19.096  0.00  0.00    +0.000 C 
ATOM     24  C   UNL     1       0.424  10.301  20.342  0.00  0.00    +0.000 C 
ATOM     25  O   UNL     1       1.049   9.060  19.975  0.00  0.00    +0.000 OA
ENDBRANCH  20  21
ENDBRANCH  18  20
ENDBRANCH   1  17
TORSDOF 4
ENDMDL
MODEL 9
REMARK VINA RESULT:      -7.0      1.540      1.700
REMARK  Name = 
REMARK  4 active torsions:
REMARK  status: ('A' for Active; 'I' for Inactive)
REMARK    1  A    between atoms: C_2  and  C_10
REMARK    2  A    between atoms: N_3  and  C_4
REMARK    3  A    between atoms: C_4  and  C_5
REMARK    4  A    between atoms: N_17  and  C_18
REMARK                            x       y       z     vdW  Elec       q    Type
REMARK                         _______ _______ _______ _____ _____    ______ ____
ROOT
ATOM      1  C   UNL     1       2.208   4.616  18.343  0.00  0.00    +0.000 C 
ATOM      2  C   UNL     1       1.217   3.836  19.233  0.00  0.00    +0.000 C 
ATOM      3  C   UNL     1       1.119   2.467  18.587  0.00  0.00    +0.000 C 
ATOM      4  C   UNL     1       2.458   2.286  17.895  0.00  0.00    +0.000 C 
ATOM      5  N   UNL     1       3.173   3.548  18.010  0.00  0.00    +0.000 N 
ATOM      6  C   UNL     1       4.394   3.585  17.376  0.00  0.00    +0.000 C 
ATOM      7  O   UNL     1       4.853   2.580  16.834  0.00  0.00    +0.000 OA
ATOM      8  N   UNL     1       5.100   4.755  17.396  0.00  0.00    +0.000 N 
ATOM      9  H   UNL     1       4.904   5.357  18.196  0.00  0.00    +0.000 HD
ENDROOT
BRANCH   8  10
ATOM     10  C   UNL     1       6.457   4.814  16.825  0.00  0.00    +0.000 C 
ATOM     11  C   UNL     1       6.746   6.154  16.145  0.00  0.00    +0.000 C 
ATOM     12  C   UNL     1       6.755   7.294  17.156  0.00  0.00    +0.000 C 
ATOM     13  C   UNL     1       7.816   7.064  18.229  0.00  0.00    +0.000 C 
ATOM     14  C   UNL     1       7.725   5.678  18.871  0.00  0.00    +0.000 C 
ATOM     15  C   UNL     1       7.572   4.543  17.854  0.00  0.00    +0.000 C 
ENDBRANCH   8  10
BRANCH   1  17
ATOM     16  O   UNL     1       3.585   5.891  19.907  0.00  0.00    +0.000 OA
ATOM     17  C   UNL     1       2.651   5.873  19.101  0.00  0.00    +0.000 C 
ATOM     18  N   UNL     1       1.946   7.022  18.764  0.00  0.00    +0.000 N 
ATOM     19  H   UNL     1       1.076   6.945  18.254  0.00  0.00    +0.000 HD
BRANCH  18  20
ATOM     20  C   UNL     1       2.160   8.281  19.446  0.00  0.00    +0.000 C 
BRANCH  20  21
ATOM     21  C   UNL     1       1.002   8.670  20.372  0.00  0.00    +0.000 C 
ATOM     22  C   UNL     1       0.565  10.127  20.374  0.00  0.00    +0.000 C 
ATOM     23  C   UNL     1      -0.186  10.192  21.681  0.00  0.00    +0.000 C 
ATOM     24  C   UNL     1       0.651   9.307  22.585  0.00  0.00    +0.000 C 
ATOM     25  O   UNL     1       1.349   8.375  21.743  0.00  0.00    +0.000 OA
ENDBRANCH  20  21
ENDBRANCH  18  20
ENDBRANCH   1  17
TORSDOF 4
ENDMDL
