MODEL 1
REMARK VINA RESULT:      -8.4      0.000      0.000
REMARK  Name = 
REMARK  7 active torsions:
REMARK  status: ('A' for Active; 'I' for Inactive)
REMARK    1  A    between atoms: C_7  and  O_8
REMARK    2  A    between atoms: O_8  and  C_9
REMARK    3  A    between atoms: C_9  and  C_10
REMARK    4  A    between atoms: C_10  and  O_11
REMARK    5  A    between atoms: C_10  and  C_12
REMARK    6  A    between atoms: C_12  and  N_13
REMARK    7  A    between atoms: N_16  and  C_17
REMARK                            x       y       z     vdW  Elec       q    Type
REMARK                         _______ _______ _______ _____ _____    ______ ____
ROOT
ATOM      1  C   UNL     1       2.337   3.526  20.903  0.00  0.00    +0.000 C 
ENDROOT
BRANCH   1   2
ATOM      2  O   UNL     1       2.214   3.258  22.312  0.00  0.00    +0.000 OA
ATOM      3  H   UNL     1       1.275   3.335  22.553  0.00  0.00    +0.000 HD
ENDBRANCH   1   2
BRANCH   1   4
ATOM      4  C   UNL     1       1.452   4.726  20.497  0.00  0.00    +0.000 C 
BRANCH   4   5
ATOM      5  O   UNL     1       2.084   5.955  20.898  0.00  0.00    +0.000 OA
BRANCH   5  12
ATOM      6  O   UNL     1       0.551  12.439  18.602  0.00  0.00    +0.000 OA
ATOM      7  C   UNL     1       0.915  11.290  18.765  0.00  0.00    +0.000 A 
ATOM      8  N   UNL     1       1.580  10.483  17.827  0.00  0.00    +0.000 N 
ATOM      9  C   UNL     1       1.820   9.239  18.400  0.00  0.00    +0.000 A 
ATOM     10  C   UNL     1       2.437   8.132  17.873  0.00  0.00    +0.000 A 
ATOM     11  C   UNL     1       2.540   7.005  18.702  0.00  0.00    +0.000 A 
ATOM     12  C   UNL     1       2.027   7.010  20.021  0.00  0.00    +0.000 A 
ATOM     13  C   UNL     1       1.399   8.161  20.526  0.00  0.00    +0.000 A 
ATOM     14  C   UNL     1       1.313   9.255  19.696  0.00  0.00    +0.000 A 
ATOM     15  N   UNL     1       0.758  10.510  19.921  0.00  0.00    +0.000 N 
ATOM     16  H   UNL     1       1.826  10.790  16.899  0.00  0.00    +0.000 HD
ATOM     17  H   UNL     1       0.310  10.840  20.759  0.00  0.00    +0.000 HD
ENDBRANCH   5  12
ENDBRANCH   4   5
ENDBRANCH   1   4
BRANCH   1  18
ATOM     18  C   UNL     1       1.970   2.223  20.139  0.00  0.00    +0.000 C 
BRANCH  18  19
ATOM     19  N   UNL     1       2.950   1.792  19.134  0.00  0.00    +0.000 NA
ATOM     20  C   UNL     1       2.558   2.119  17.742  0.00  0.00    +0.000 C 
ATOM     21  C   UNL     1       2.851   3.558  17.243  0.00  0.00    +0.000 C 
ATOM     22  N   UNL     1       4.253   3.909  17.506  0.00  0.00    +0.000 N 
ATOM     23  C   UNL     1       4.648   3.735  18.910  0.00  0.00    +0.000 C 
ATOM     24  C   UNL     1       4.316   2.306  19.405  0.00  0.00    +0.000 C 
BRANCH  22  25
ATOM     25  C   UNL     1       5.135   4.237  16.492  0.00  0.00    +0.000 A 
ATOM     26  C   UNL     1       6.368   4.854  16.767  0.00  0.00    +0.000 A 
ATOM     27  C   UNL     1       7.279   5.191  15.754  0.00  0.00    +0.000 A 
ATOM     28  C   UNL     1       6.971   4.913  14.430  0.00  0.00    +0.000 A 
ATOM     29 CL   UNL     1       8.080   5.322  13.181  0.00  0.00    +0.000 Cl
ATOM     30  C   UNL     1       5.765   4.301  14.117  0.00  0.00    +0.000 A 
ATOM     31  C   UNL     1       4.861   3.968  15.141  0.00  0.00    +0.000 A 
ENDBRANCH  22  25
ENDBRANCH  18  19
ENDBRANCH   1  18
TORSDOF 7
ENDMDL
MODEL 2
REMARK VINA RESULT:      -8.0      3.442      6.670
REMARK  Name = 
REMARK  7 active torsions:
REMARK  status: ('A' for Active; 'I' for Inactive)
REMARK    1  A    between atoms: C_7  and  O_8
REMARK    2  A    between atoms: O_8  and  C_9
REMARK    3  A    between atoms: C_9  and  C_10
REMARK    4  A    between atoms: C_10  and  O_11
REMARK    5  A    between atoms: C_10  and  C_12
REMARK    6  A    between atoms: C_12  and  N_13
REMARK    7  A    between atoms: N_16  and  C_17
REMARK                            x       y       z     vdW  Elec       q    Type
REMARK                         _______ _______ _______ _____ _____    ______ ____
ROOT
ATOM      1  C   UNL     1       3.433   2.376  18.776  0.00  0.00    +0.000 C 
ENDROOT
BRANCH   1   2
ATOM      2  O   UNL     1       3.446   1.132  18.054  0.00  0.00    +0.000 OA
ATOM      3  H   UNL     1       2.530   0.910  17.815  0.00  0.00    +0.000 HD
ENDBRANCH   1   2
BRANCH   1   4
ATOM      4  C   UNL     1       4.774   2.594  19.512  0.00  0.00    +0.000 C 
BRANCH   4   5
ATOM      5  O   UNL     1       5.120   3.990  19.491  0.00  0.00    +0.000 OA
BRANCH   5  12
ATOM      6  O   UNL     1       7.035   4.277  12.715  0.00  0.00    +0.000 OA
ATOM      7  C   UNL     1       6.854   4.433  13.907  0.00  0.00    +0.000 A 
ATOM      8  N   UNL     1       7.400   5.449  14.710  0.00  0.00    +0.000 N 
ATOM      9  C   UNL     1       6.948   5.278  16.013  0.00  0.00    +0.000 A 
ATOM     10  C   UNL     1       7.212   6.017  17.139  0.00  0.00    +0.000 A 
ATOM     11  C   UNL     1       6.601   5.601  18.332  0.00  0.00    +0.000 A 
ATOM     12  C   UNL     1       5.755   4.467  18.371  0.00  0.00    +0.000 A 
ATOM     13  C   UNL     1       5.511   3.732  17.198  0.00  0.00    +0.000 A 
ATOM     14  C   UNL     1       6.118   4.161  16.040  0.00  0.00    +0.000 A 
ATOM     15  N   UNL     1       6.059   3.643  14.751  0.00  0.00    +0.000 N 
ATOM     16  H   UNL     1       8.015   6.167  14.361  0.00  0.00    +0.000 HD
ATOM     17  H   UNL     1       5.543   2.837  14.439  0.00  0.00    +0.000 HD
ENDBRANCH   5  12
ENDBRANCH   4   5
ENDBRANCH   1   4
BRANCH   1  18
ATOM     18  C   UNL     1       2.214   2.350  19.742  0.00  0.00    +0.000 C 
BRANCH  18  19
ATOM     19  N   UNL     1       1.220   3.407  19.520  0.00  0.00    +0.000 NA
ATOM     20  C   UNL     1       1.118   4.373  20.640  0.00  0.00    +0.000 C 
ATOM     21  C   UNL     1       2.160   5.522  20.681  0.00  0.00    +0.000 C 
ATOM     22  N   UNL     1       2.212   6.205  19.381  0.00  0.00    +0.000 N 
ATOM     23  C   UNL     1       2.454   5.298  18.251  0.00  0.00    +0.000 C 
ATOM     24  C   UNL     1       1.429   4.137  18.244  0.00  0.00    +0.000 C 
BRANCH  22  25
ATOM     25  C   UNL     1       1.920   7.550  19.240  0.00  0.00    +0.000 A 
ATOM     26  C   UNL     1       2.147   8.225  18.028  0.00  0.00    +0.000 A 
ATOM     27  C   UNL     1       1.855   9.587  17.864  0.00  0.00    +0.000 A 
ATOM     28  C   UNL     1       1.324  10.311  18.921  0.00  0.00    +0.000 A 
ATOM     29 CL   UNL     1       0.962  11.981  18.730  0.00  0.00    +0.000 Cl
ATOM     30  C   UNL     1       1.081   9.680  20.134  0.00  0.00    +0.000 A 
ATOM     31  C   UNL     1       1.378   8.315  20.286  0.00  0.00    +0.000 A 
ENDBRANCH  22  25
ENDBRANCH  18  19
ENDBRANCH   1  18
TORSDOF 7
ENDMDL
MODEL 3
REMARK VINA RESULT:      -7.7      0.567      1.292
REMARK  Name = 
REMARK  7 active torsions:
REMARK  status: ('A' for Active; 'I' for Inactive)
REMARK    1  A    between atoms: C_7  and  O_8
REMARK    2  A    between atoms: O_8  and  C_9
REMARK    3  A    between atoms: C_9  and  C_10
REMARK    4  A    between atoms: C_10  and  O_11
REMARK    5  A    between atoms: C_10  and  C_12
REMARK    6  A    between atoms: C_12  and  N_13
REMARK    7  A    between atoms: N_16  and  C_17
REMARK                            x       y       z     vdW  Elec       q    Type
REMARK                         _______ _______ _______ _____ _____    ______ ____
ROOT
ATOM      1  C   UNL     1       2.351   3.795  20.871  0.00  0.00    +0.000 C 
ENDROOT
BRANCH   1   2
ATOM      2  O   UNL     1       2.251   3.556  22.286  0.00  0.00    +0.000 OA
ATOM      3  H   UNL     1       3.130   3.302  22.614  0.00  0.00    +0.000 HD
ENDBRANCH   1   2
BRANCH   1   4
ATOM      4  C   UNL     1       1.468   4.993  20.456  0.00  0.00    +0.000 C 
BRANCH   4   5
ATOM      5  O   UNL     1       2.300   6.094  20.050  0.00  0.00    +0.000 OA
BRANCH   5  12
ATOM      6  O   UNL     1       0.601  12.686  18.226  0.00  0.00    +0.000 OA
ATOM      7  C   UNL     1       0.790  11.612  18.765  0.00  0.00    +0.000 A 
ATOM      8  N   UNL     1       0.429  11.260  20.077  0.00  0.00    +0.000 N 
ATOM      9  C   UNL     1       0.819   9.946  20.308  0.00  0.00    +0.000 A 
ATOM     10  C   UNL     1       0.681   9.173  21.434  0.00  0.00    +0.000 A 
ATOM     11  C   UNL     1       1.174   7.860  21.370  0.00  0.00    +0.000 A 
ATOM     12  C   UNL     1       1.790   7.360  20.198  0.00  0.00    +0.000 A 
ATOM     13  C   UNL     1       1.917   8.182  19.065  0.00  0.00    +0.000 A 
ATOM     14  C   UNL     1       1.423   9.463  19.150  0.00  0.00    +0.000 A 
ATOM     15  N   UNL     1       1.406  10.483  18.205  0.00  0.00    +0.000 N 
ATOM     16  H   UNL     1      -0.035  11.885  20.716  0.00  0.00    +0.000 HD
ATOM     17  H   UNL     1       1.765  10.452  17.265  0.00  0.00    +0.000 HD
ENDBRANCH   5  12
ENDBRANCH   4   5
ENDBRANCH   1   4
BRANCH   1  18
ATOM     18  C   UNL     1       1.961   2.480  20.139  0.00  0.00    +0.000 C 
BRANCH  18  19
ATOM     19  N   UNL     1       2.938   2.001  19.153  0.00  0.00    +0.000 NA
ATOM     20  C   UNL     1       2.553   2.283  17.749  0.00  0.00    +0.000 C 
ATOM     21  C   UNL     1       2.864   3.700  17.199  0.00  0.00    +0.000 C 
ATOM     22  N   UNL     1       4.270   4.043  17.453  0.00  0.00    +0.000 N 
ATOM     23  C   UNL     1       4.660   3.914  18.863  0.00  0.00    +0.000 C 
ATOM     24  C   UNL     1       4.310   2.508  19.408  0.00  0.00    +0.000 C 
BRANCH  22  25
ATOM     25  C   UNL     1       5.158   4.324  16.431  0.00  0.00    +0.000 A 
ATOM     26  C   UNL     1       6.426   4.874  16.693  0.00  0.00    +0.000 A 
ATOM     27  C   UNL     1       7.343   5.161  15.671  0.00  0.00    +0.000 A 
ATOM     28  C   UNL     1       7.007   4.902  14.350  0.00  0.00    +0.000 A 
ATOM     29 CL   UNL     1       8.123   5.252  13.090  0.00  0.00    +0.000 Cl
ATOM     30  C   UNL     1       5.766   4.356  14.049  0.00  0.00    +0.000 A 
ATOM     31  C   UNL     1       4.856   4.072  15.082  0.00  0.00    +0.000 A 
ENDBRANCH  22  25
ENDBRANCH  18  19
ENDBRANCH   1  18
TORSDOF 7
ENDMDL
MODEL 4
REMARK VINA RESULT:      -7.7      0.947      1.411
REMARK  Name = 
REMARK  7 active torsions:
REMARK  status: ('A' for Active; 'I' for Inactive)
REMARK    1  A    between atoms: C_7  and  O_8
REMARK    2  A    between atoms: O_8  and  C_9
REMARK    3  A    between atoms: C_9  and  C_10
REMARK    4  A    between atoms: C_10  and  O_11
REMARK    5  A    between atoms: C_10  and  C_12
REMARK    6  A    between atoms: C_12  and  N_13
REMARK    7  A    between atoms: N_16  and  C_17
REMARK                            x       y       z     vdW  Elec       q    Type
REMARK                         _______ _______ _______ _____ _____    ______ ____
ROOT
ATOM      1  C   UNL     1       2.532   3.271  21.193  0.00  0.00    +0.000 C 
ENDROOT
BRANCH   1   2
ATOM      2  O   UNL     1       2.038   2.586  22.358  0.00  0.00    +0.000 OA
ATOM      3  H   UNL     1       2.353   1.666  22.324  0.00  0.00    +0.000 HD
ENDBRANCH   1   2
BRANCH   1   4
ATOM      4  C   UNL     1       2.094   4.753  21.206  0.00  0.00    +0.000 C 
BRANCH   4   5
ATOM      5  O   UNL     1       2.018   5.250  19.859  0.00  0.00    +0.000 OA
BRANCH   5  12
ATOM      6  O   UNL     1       0.422  11.883  21.627  0.00  0.00    +0.000 OA
ATOM      7  C   UNL     1       0.750  10.840  21.093  0.00  0.00    +0.000 A 
ATOM      8  N   UNL     1       1.187  10.681  19.768  0.00  0.00    +0.000 N 
ATOM      9  C   UNL     1       1.466   9.336  19.550  0.00  0.00    +0.000 A 
ATOM     10  C   UNL     1       1.916   8.704  18.417  0.00  0.00    +0.000 A 
ATOM     11  C   UNL     1       2.114   7.317  18.498  0.00  0.00    +0.000 A 
ATOM     12  C   UNL     1       1.854   6.604  19.692  0.00  0.00    +0.000 A 
ATOM     13  C   UNL     1       1.391   7.284  20.831  0.00  0.00    +0.000 A 
ATOM     14  C   UNL     1       1.208   8.644  20.729  0.00  0.00    +0.000 A 
ATOM     15  N   UNL     1       0.769   9.564  21.675  0.00  0.00    +0.000 N 
ATOM     16  H   UNL     1       1.273  11.441  19.112  0.00  0.00    +0.000 HD
ATOM     17  H   UNL     1       0.502   9.381  22.628  0.00  0.00    +0.000 HD
ENDBRANCH   5  12
ENDBRANCH   4   5
ENDBRANCH   1   4
BRANCH   1  18
ATOM     18  C   UNL     1       2.020   2.505  19.940  0.00  0.00    +0.000 C 
BRANCH  18  19
ATOM     19  N   UNL     1       3.068   2.034  19.026  0.00  0.00    +0.000 NA
ATOM     20  C   UNL     1       2.729   2.206  17.593  0.00  0.00    +0.000 C 
ATOM     21  C   UNL     1       2.976   3.605  16.969  0.00  0.00    +0.000 C 
ATOM     22  N   UNL     1       4.344   4.054  17.258  0.00  0.00    +0.000 N 
ATOM     23  C   UNL     1       4.678   4.035  18.688  0.00  0.00    +0.000 C 
ATOM     24  C   UNL     1       4.393   2.643  19.306  0.00  0.00    +0.000 C 
BRANCH  22  25
ATOM     25  C   UNL     1       5.258   4.330  16.258  0.00  0.00    +0.000 A 
ATOM     26  C   UNL     1       4.959   4.087  14.905  0.00  0.00    +0.000 A 
ATOM     27  C   UNL     1       5.871   4.364  13.876  0.00  0.00    +0.000 A 
ATOM     28  C   UNL     1       7.115   4.896  14.181  0.00  0.00    +0.000 A 
ATOM     29 CL   UNL     1       8.239   5.239  12.926  0.00  0.00    +0.000 Cl
ATOM     30  C   UNL     1       7.448   5.155  15.503  0.00  0.00    +0.000 A 
ATOM     31  C   UNL     1       6.526   4.873  16.526  0.00  0.00    +0.000 A 
ENDBRANCH  22  25
ENDBRANCH  18  19
ENDBRANCH   1  18
TORSDOF 7
ENDMDL
MODEL 5
REMARK VINA RESULT:      -7.5      5.445     10.598
REMARK  Name = 
REMARK  7 active torsions:
REMARK  status: ('A' for Active; 'I' for Inactive)
REMARK    1  A    between atoms: C_7  and  O_8
REMARK    2  A    between atoms: O_8  and  C_9
REMARK    3  A    between atoms: C_9  and  C_10
REMARK    4  A    between atoms: C_10  and  O_11
REMARK    5  A    between atoms: C_10  and  C_12
REMARK    6  A    between atoms: C_12  and  N_13
REMARK    7  A    between atoms: N_16  and  C_17
REMARK                            x       y       z     vdW  Elec       q    Type
REMARK                         _______ _______ _______ _____ _____    ______ ____
ROOT
ATOM      1  C   UNL     1       1.942  10.092  18.771  0.00  0.00    +0.000 C 
ENDROOT
BRANCH   1   2
ATOM      2  O   UNL     1       1.757  10.279  17.356  0.00  0.00    +0.000 OA
ATOM      3  H   UNL     1       0.883  10.681  17.216  0.00  0.00    +0.000 HD
ENDBRANCH   1   2
BRANCH   1   4
ATOM      4  C   UNL     1       1.662   8.625  19.168  0.00  0.00    +0.000 C 
BRANCH   4   5
ATOM      5  O   UNL     1       1.888   7.763  18.038  0.00  0.00    +0.000 OA
BRANCH   5  12
ATOM      6  O   UNL     1       4.891   1.803  20.300  0.00  0.00    +0.000 OA
ATOM      7  C   UNL     1       4.592   2.862  19.783  0.00  0.00    +0.000 A 
ATOM      8  N   UNL     1       5.387   3.616  18.904  0.00  0.00    +0.000 N 
ATOM      9  C   UNL     1       4.684   4.758  18.537  0.00  0.00    +0.000 A 
ATOM     10  C   UNL     1       5.049   5.785  17.703  0.00  0.00    +0.000 A 
ATOM     11  C   UNL     1       4.116   6.817  17.516  0.00  0.00    +0.000 A 
ATOM     12  C   UNL     1       2.858   6.799  18.163  0.00  0.00    +0.000 A 
ATOM     13  C   UNL     1       2.519   5.731  19.013  0.00  0.00    +0.000 A 
ATOM     14  C   UNL     1       3.449   4.730  19.177  0.00  0.00    +0.000 A 
ATOM     15  N   UNL     1       3.391   3.570  19.941  0.00  0.00    +0.000 N 
ATOM     16  H   UNL     1       6.311   3.342  18.610  0.00  0.00    +0.000 HD
ATOM     17  H   UNL     1       2.632   3.256  20.522  0.00  0.00    +0.000 HD
ENDBRANCH   5  12
ENDBRANCH   4   5
ENDBRANCH   1   4
BRANCH   1  18
ATOM     18  C   UNL     1       1.014  11.100  19.508  0.00  0.00    +0.000 C 
BRANCH  18  19
ATOM     19  N   UNL     1      -0.245  10.537  20.010  0.00  0.00    +0.000 NA
ATOM     20  C   UNL     1      -0.385  10.613  21.483  0.00  0.00    +0.000 C 
ATOM     21  C   UNL     1      -0.882  11.957  22.079  0.00  0.00    +0.000 C 
ATOM     22  N   UNL     1      -2.109  12.389  21.397  0.00  0.00    +0.000 N 
ATOM     23  C   UNL     1      -1.973  12.466  19.937  0.00  0.00    +0.000 C 
ATOM     24  C   UNL     1      -1.441  11.130  19.360  0.00  0.00    +0.000 C 
BRANCH  22  25
ATOM     25  C   UNL     1      -3.304  12.569  22.070  0.00  0.00    +0.000 A 
ATOM     26  C   UNL     1      -3.367  12.537  23.474  0.00  0.00    +0.000 A 
ATOM     27  C   UNL     1      -4.568  12.721  24.174  0.00  0.00    +0.000 A 
ATOM     28  C   UNL     1      -5.746  12.943  23.477  0.00  0.00    +0.000 A 
ATOM     29 CL   UNL     1      -7.224  13.169  24.326  0.00  0.00    +0.000 Cl
ATOM     30  C   UNL     1      -5.727  12.986  22.089  0.00  0.00    +0.000 A 
ATOM     31  C   UNL     1      -4.517  12.801  21.398  0.00  0.00    +0.000 A 
ENDBRANCH  22  25
ENDBRANCH  18  19
ENDBRANCH   1  18
TORSDOF 7
ENDMDL
MODEL 6
REMARK VINA RESULT:      -7.5      4.093      6.865
REMARK  Name = 
REMARK  7 active torsions:
REMARK  status: ('A' for Active; 'I' for Inactive)
REMARK    1  A    between atoms: C_7  and  O_8
REMARK    2  A    between atoms: O_8  and  C_9
REMARK    3  A    between atoms: C_9  and  C_10
REMARK    4  A    between atoms: C_10  and  O_11
REMARK    5  A    between atoms: C_10  and  C_12
REMARK    6  A    between atoms: C_12  and  N_13
REMARK    7  A    between atoms: N_16  and  C_17
REMARK                            x       y       z     vdW  Elec       q    Type
REMARK                         _______ _______ _______ _____ _____    ______ ____
ROOT
ATOM      1  C   UNL     1       3.333   2.726  17.749  0.00  0.00    +0.000 C 
ENDROOT
BRANCH   1   2
ATOM      2  O   UNL     1       3.248   1.330  18.088  0.00  0.00    +0.000 OA
ATOM      3  H   UNL     1       3.206   0.819  17.262  0.00  0.00    +0.000 HD
ENDBRANCH   1   2
BRANCH   1   4
ATOM      4  C   UNL     1       4.687   3.041  17.074  0.00  0.00    +0.000 C 
BRANCH   4   5
ATOM      5  O   UNL     1       4.766   4.445  16.772  0.00  0.00    +0.000 OA
BRANCH   5  12
ATOM      6  O   UNL     1       8.867  10.012  18.133  0.00  0.00    +0.000 OA
ATOM      7  C   UNL     1       8.305   8.935  18.073  0.00  0.00    +0.000 A 
ATOM      8  N   UNL     1       8.614   7.788  18.823  0.00  0.00    +0.000 N 
ATOM      9  C   UNL     1       7.739   6.771  18.460  0.00  0.00    +0.000 A 
ATOM     10  C   UNL     1       7.655   5.479  18.918  0.00  0.00    +0.000 A 
ATOM     11  C   UNL     1       6.652   4.670  18.361  0.00  0.00    +0.000 A 
ATOM     12  C   UNL     1       5.771   5.165  17.370  0.00  0.00    +0.000 A 
ATOM     13  C   UNL     1       5.889   6.492  16.924  0.00  0.00    +0.000 A 
ATOM     14  C   UNL     1       6.877   7.267  17.487  0.00  0.00    +0.000 A 
ATOM     15  N   UNL     1       7.223   8.593  17.248  0.00  0.00    +0.000 N 
ATOM     16  H   UNL     1       9.355   7.748  19.503  0.00  0.00    +0.000 HD
ATOM     17  H   UNL     1       6.791   9.230  16.600  0.00  0.00    +0.000 HD
ENDBRANCH   5  12
ENDBRANCH   4   5
ENDBRANCH   1   4
BRANCH   1  18
ATOM     18  C   UNL     1       3.106   3.545  19.051  0.00  0.00    +0.000 C 
BRANCH  18  19
ATOM     19  N   UNL     1       1.863   4.325  19.088  0.00  0.00    +0.000 NA
ATOM     20  C   UNL     1       1.496   4.794  20.446  0.00  0.00    +0.000 C 
ATOM     21  C   UNL     1       2.186   6.085  20.961  0.00  0.00    +0.000 C 
ATOM     22  N   UNL     1       2.059   7.158  19.966  0.00  0.00    +0.000 N 
ATOM     23  C   UNL     1       2.545   6.782  18.632  0.00  0.00    +0.000 C 
ATOM     24  C   UNL     1       1.875   5.473  18.147  0.00  0.00    +0.000 C 
BRANCH  22  25
ATOM     25  C   UNL     1       1.414   8.350  20.243  0.00  0.00    +0.000 A 
ATOM     26  C   UNL     1       0.854   8.603  21.508  0.00  0.00    +0.000 A 
ATOM     27  C   UNL     1       0.200   9.806  21.810  0.00  0.00    +0.000 A 
ATOM     28  C   UNL     1       0.091  10.794  20.841  0.00  0.00    +0.000 A 
ATOM     29 CL   UNL     1      -0.710  12.272  21.202  0.00  0.00    +0.000 Cl
ATOM     30  C   UNL     1       0.633  10.585  19.580  0.00  0.00    +0.000 A 
ATOM     31  C   UNL     1       1.286   9.375  19.290  0.00  0.00    +0.000 A 
ENDBRANCH  22  25
ENDBRANCH  18  19
ENDBRANCH   1  18
TORSDOF 7
ENDMDL
MODEL 7
REMARK VINA RESULT:      -7.4      3.645      7.069
REMARK  Name = 
REMARK  7 active torsions:
REMARK  status: ('A' for Active; 'I' for Inactive)
REMARK    1  A    between atoms: C_7  and  O_8
REMARK    2  A    between atoms: O_8  and  C_9
REMARK    3  A    between atoms: C_9  and  C_10
REMARK    4  A    between atoms: C_10  and  O_11
REMARK    5  A    between atoms: C_10  and  C_12
REMARK    6  A    between atoms: C_12  and  N_13
REMARK    7  A    between atoms: N_16  and  C_17
REMARK                            x       y       z     vdW  Elec       q    Type
REMARK                         _______ _______ _______ _____ _____    ______ ____
ROOT
ATOM      1  C   UNL     1       2.723   2.372  18.596  0.00  0.00    +0.000 C 
ENDROOT
BRANCH   1   2
ATOM      2  O   UNL     1       2.220   1.074  18.963  0.00  0.00    +0.000 OA
ATOM      3  H   UNL     1       2.863   0.658  19.562  0.00  0.00    +0.000 HD
ENDBRANCH   1   2
BRANCH   1   4
ATOM      4  C   UNL     1       4.243   2.310  18.327  0.00  0.00    +0.000 C 
BRANCH   4   5
ATOM      5  O   UNL     1       4.837   3.593  18.592  0.00  0.00    +0.000 OA
BRANCH   5  12
ATOM      6  O   UNL     1       7.402   4.485  12.089  0.00  0.00    +0.000 OA
ATOM      7  C   UNL     1       7.103   4.535  13.267  0.00  0.00    +0.000 A 
ATOM      8  N   UNL     1       7.555   5.478  14.205  0.00  0.00    +0.000 N 
ATOM      9  C   UNL     1       6.980   5.190  15.437  0.00  0.00    +0.000 A 
ATOM     10  C   UNL     1       7.123   5.829  16.644  0.00  0.00    +0.000 A 
ATOM     11  C   UNL     1       6.403   5.306  17.730  0.00  0.00    +0.000 A 
ATOM     12  C   UNL     1       5.573   4.170  17.586  0.00  0.00    +0.000 A 
ATOM     13  C   UNL     1       5.454   3.540  16.335  0.00  0.00    +0.000 A 
ATOM     14  C   UNL     1       6.165   4.073  15.285  0.00  0.00    +0.000 A 
ATOM     15  N   UNL     1       6.240   3.670  13.956  0.00  0.00    +0.000 N 
ATOM     16  H   UNL     1       8.192   6.226  13.983  0.00  0.00    +0.000 HD
ATOM     17  H   UNL     1       5.767   2.893  13.525  0.00  0.00    +0.000 HD
ENDBRANCH   5  12
ENDBRANCH   4   5
ENDBRANCH   1   4
BRANCH   1  18
ATOM     18  C   UNL     1       2.355   3.362  19.737  0.00  0.00    +0.000 C 
BRANCH  18  19
ATOM     19  N   UNL     1       1.334   4.359  19.392  0.00  0.00    +0.000 NA
ATOM     20  C   UNL     1       1.037   5.311  20.489  0.00  0.00    +0.000 C 
ATOM     21  C   UNL     1       1.995   6.520  20.657  0.00  0.00    +0.000 C 
ATOM     22  N   UNL     1       2.165   7.212  19.373  0.00  0.00    +0.000 N 
ATOM     23  C   UNL     1       2.599   6.328  18.283  0.00  0.00    +0.000 C 
ATOM     24  C   UNL     1       1.655   5.108  18.151  0.00  0.00    +0.000 C 
BRANCH  22  25
ATOM     25  C   UNL     1       1.813   8.538  19.195  0.00  0.00    +0.000 A 
ATOM     26  C   UNL     1       1.057   9.230  20.158  0.00  0.00    +0.000 A 
ATOM     27  C   UNL     1       0.694  10.575  19.999  0.00  0.00    +0.000 A 
ATOM     28  C   UNL     1       1.083  11.265  18.860  0.00  0.00    +0.000 A 
ATOM     29 CL   UNL     1       0.642  12.914  18.655  0.00  0.00    +0.000 Cl
ATOM     30  C   UNL     1       1.834  10.619  17.887  0.00  0.00    +0.000 A 
ATOM     31  C   UNL     1       2.193   9.271  18.058  0.00  0.00    +0.000 A 
ENDBRANCH  22  25
ENDBRANCH  18  19
ENDBRANCH   1  18
TORSDOF 7
ENDMDL
MODEL 8
REMARK VINA RESULT:      -7.4      3.793      6.846
REMARK  Name = 
REMARK  7 active torsions:
REMARK  status: ('A' for Active; 'I' for Inactive)
REMARK    1  A    between atoms: C_7  and  O_8
REMARK    2  A    between atoms: O_8  and  C_9
REMARK    3  A    between atoms: C_9  and  C_10
REMARK    4  A    between atoms: C_10  and  O_11
REMARK    5  A    between atoms: C_10  and  C_12
REMARK    6  A    between atoms: C_12  and  N_13
REMARK    7  A    between atoms: N_16  and  C_17
REMARK                            x       y       z     vdW  Elec       q    Type
REMARK                         _______ _______ _______ _____ _____    ______ ____
ROOT
ATOM      1  C   UNL     1       3.620   2.742  19.184  0.00  0.00    +0.000 C 
ENDROOT
BRANCH   1   2
ATOM      2  O   UNL     1       4.810   2.203  19.785  0.00  0.00    +0.000 OA
ATOM      3  H   UNL     1       4.595   1.934  20.694  0.00  0.00    +0.000 HD
ENDBRANCH   1   2
BRANCH   1   4
ATOM      4  C   UNL     1       3.719   2.696  17.642  0.00  0.00    +0.000 C 
BRANCH   4   5
ATOM      5  O   UNL     1       5.079   2.923  17.235  0.00  0.00    +0.000 OA
BRANCH   5  12
ATOM      6  O   UNL     1       8.735   8.809  18.522  0.00  0.00    +0.000 OA
ATOM      7  C   UNL     1       7.994   7.934  18.117  0.00  0.00    +0.000 A 
ATOM      8  N   UNL     1       7.076   8.039  17.059  0.00  0.00    +0.000 N 
ATOM      9  C   UNL     1       6.425   6.820  16.912  0.00  0.00    +0.000 A 
ATOM     10  C   UNL     1       5.453   6.444  16.018  0.00  0.00    +0.000 A 
ATOM     11  C   UNL     1       4.981   5.126  16.107  0.00  0.00    +0.000 A 
ATOM     12  C   UNL     1       5.483   4.226  17.077  0.00  0.00    +0.000 A 
ATOM     13  C   UNL     1       6.477   4.647  17.978  0.00  0.00    +0.000 A 
ATOM     14  C   UNL     1       6.926   5.943  17.869  0.00  0.00    +0.000 A 
ATOM     15  N   UNL     1       7.887   6.624  18.608  0.00  0.00    +0.000 N 
ATOM     16  H   UNL     1       6.940   8.878  16.518  0.00  0.00    +0.000 HD
ATOM     17  H   UNL     1       8.435   6.270  19.375  0.00  0.00    +0.000 HD
ENDBRANCH   5  12
ENDBRANCH   4   5
ENDBRANCH   1   4
BRANCH   1  18
ATOM     18  C   UNL     1       3.425   4.185  19.730  0.00  0.00    +0.000 C 
BRANCH  18  19
ATOM     19  N   UNL     1       2.152   4.822  19.370  0.00  0.00    +0.000 NA
ATOM     20  C   UNL     1       1.436   5.413  20.526  0.00  0.00    +0.000 C 
ATOM     21  C   UNL     1       1.880   6.827  20.987  0.00  0.00    +0.000 C 
ATOM     22  N   UNL     1       1.910   7.746  19.842  0.00  0.00    +0.000 N 
ATOM     23  C   UNL     1       2.729   7.263  18.723  0.00  0.00    +0.000 C 
ATOM     24  C   UNL     1       2.299   5.837  18.297  0.00  0.00    +0.000 C 
BRANCH  22  25
ATOM     25  C   UNL     1       1.126   8.885  19.787  0.00  0.00    +0.000 A 
ATOM     26  C   UNL     1       0.420   9.342  20.914  0.00  0.00    +0.000 A 
ATOM     27  C   UNL     1      -0.377  10.496  20.880  0.00  0.00    +0.000 A 
ATOM     28  C   UNL     1      -0.485  11.226  19.705  0.00  0.00    +0.000 A 
ATOM     29 CL   UNL     1      -1.459  12.641  19.654  0.00  0.00    +0.000 Cl
ATOM     30  C   UNL     1       0.200  10.810  18.571  0.00  0.00    +0.000 A 
ATOM     31  C   UNL     1       0.995   9.652  18.618  0.00  0.00    +0.000 A 
ENDBRANCH  22  25
ENDBRANCH  18  19
ENDBRANCH   1  18
TORSDOF 7
ENDMDL
MODEL 9
REMARK VINA RESULT:      -7.4      3.575      7.579
REMARK  Name = 
REMARK  7 active torsions:
REMARK  status: ('A' for Active; 'I' for Inactive)
REMARK    1  A    between atoms: C_7  and  O_8
REMARK    2  A    between atoms: O_8  and  C_9
REMARK    3  A    between atoms: C_9  and  C_10
REMARK    4  A    between atoms: C_10  and  O_11
REMARK    5  A    between atoms: C_10  and  C_12
REMARK    6  A    between atoms: C_12  and  N_13
REMARK    7  A    between atoms: N_16  and  C_17
REMARK                            x       y       z     vdW  Elec       q    Type
REMARK                         _______ _______ _______ _____ _____    ______ ____
ROOT
ATOM      1  C   UNL     1       2.132   4.540  20.031  0.00  0.00    +0.000 C 
ENDROOT
BRANCH   1   2
ATOM      2  O   UNL     1       2.492   4.979  21.353  0.00  0.00    +0.000 OA
ATOM      3  H   UNL     1       3.274   5.552  21.280  0.00  0.00    +0.000 HD
ENDBRANCH   1   2
BRANCH   1   4
ATOM      4  C   UNL     1       3.292   3.750  19.385  0.00  0.00    +0.000 C 
BRANCH   4   5
ATOM      5  O   UNL     1       4.548   4.365  19.721  0.00  0.00    +0.000 OA
BRANCH   5  12
ATOM      6  O   UNL     1       7.005   4.519  13.118  0.00  0.00    +0.000 OA
ATOM      7  C   UNL     1       6.781   4.643  14.307  0.00  0.00    +0.000 A 
ATOM      8  N   UNL     1       7.532   5.397  15.225  0.00  0.00    +0.000 N 
ATOM      9  C   UNL     1       6.946   5.281  16.480  0.00  0.00    +0.000 A 
ATOM     10  C   UNL     1       7.321   5.834  17.679  0.00  0.00    +0.000 A 
ATOM     11  C   UNL     1       6.521   5.539  18.794  0.00  0.00    +0.000 A 
ATOM     12  C   UNL     1       5.383   4.706  18.685  0.00  0.00    +0.000 A 
ATOM     13  C   UNL     1       5.031   4.155  17.441  0.00  0.00    +0.000 A 
ATOM     14  C   UNL     1       5.828   4.461  16.362  0.00  0.00    +0.000 A 
ATOM     15  N   UNL     1       5.726   4.069  15.032  0.00  0.00    +0.000 N 
ATOM     16  H   UNL     1       8.355   5.922  14.976  0.00  0.00    +0.000 HD
ATOM     17  H   UNL     1       5.026   3.474  14.621  0.00  0.00    +0.000 HD
ENDBRANCH   5  12
ENDBRANCH   4   5
ENDBRANCH   1   4
BRANCH   1  18
ATOM     18  C   UNL     1       1.730   5.797  19.208  0.00  0.00    +0.000 C 
BRANCH  18  19
ATOM     19  N   UNL     1       2.484   7.017  19.524  0.00  0.00    +0.000 NA
ATOM     20  C   UNL     1       2.856   7.812  18.329  0.00  0.00    +0.000 C 
ATOM     21  C   UNL     1       1.780   8.766  17.749  0.00  0.00    +0.000 C 
ATOM     22  N   UNL     1       1.230   9.616  18.813  0.00  0.00    +0.000 N 
ATOM     23  C   UNL     1       0.716   8.859  19.962  0.00  0.00    +0.000 C 
ATOM     24  C   UNL     1       1.789   7.885  20.508  0.00  0.00    +0.000 C 
BRANCH  22  25
ATOM     25  C   UNL     1       1.323  10.996  18.779  0.00  0.00    +0.000 A 
ATOM     26  C   UNL     1       0.384  11.809  19.439  0.00  0.00    +0.000 A 
ATOM     27  C   UNL     1       0.463  13.209  19.420  0.00  0.00    +0.000 A 
ATOM     28  C   UNL     1       1.494  13.833  18.733  0.00  0.00    +0.000 A 
ATOM     29 CL   UNL     1       1.599  15.549  18.704  0.00  0.00    +0.000 Cl
ATOM     30  C   UNL     1       2.443  13.066  18.071  0.00  0.00    +0.000 A 
ATOM     31  C   UNL     1       2.354  11.664  18.098  0.00  0.00    +0.000 A 
ENDBRANCH  22  25
ENDBRANCH  18  19
ENDBRANCH   1  18
TORSDOF 7
ENDMDL
