MODEL 1
REMARK VINA RESULT:      -9.2      0.000      0.000
REMARK  Name = 
REMARK  11 active torsions:
REMARK  status: ('A' for Active; 'I' for Inactive)
REMARK    1  A    between atoms: C_1  and  C_2
REMARK    2  A    between atoms: C_6  and  O_7
REMARK    3  A    between atoms: O_7  and  C_8
REMARK    4  A    between atoms: C_8  and  C_9
REMARK    5  A    between atoms: C_9  and  N_10
REMARK    6  A    between atoms: C_13  and  C_14
REMARK    7  A    between atoms: C_14  and  C_15
REMARK    8  A    between atoms: C_19  and  N_20
REMARK    9  A    between atoms: N_20  and  C_21
REMARK   10  A    between atoms: N_20  and  S_22
REMARK   11  A    between atoms: S_22  and  C_23
REMARK                            x       y       z     vdW  Elec       q    Type
REMARK                         _______ _______ _______ _____ _____    ______ ____
ROOT
ATOM      1  N   UNL     1       1.951   2.336  19.570  0.00  0.00    +0.000 NA
ATOM      2  C   UNL     1       2.899   2.736  20.625  0.00  0.00    +0.000 C 
ATOM      3  C   UNL     1       2.272   3.683  21.643  0.00  0.00    +0.000 C 
ATOM      4  C   UNL     1       1.747   4.951  20.971  0.00  0.00    +0.000 C 
ATOM      5  C   UNL     1       0.742   4.501  19.893  0.00  0.00    +0.000 C 
ATOM      6  C   UNL     1       1.342   3.490  18.898  0.00  0.00    +0.000 C 
ENDROOT
BRANCH   1   7
ATOM      7  C   UNL     1       2.572   1.399  18.588  0.00  0.00    +0.000 C 
BRANCH   7   8
ATOM      8  C   UNL     1       3.823   2.058  17.998  0.00  0.00    +0.000 C 
BRANCH   8   9
ATOM      9  O   UNL     1       3.683   3.277  17.298  0.00  0.00    +0.000 OA
BRANCH   9  15
ATOM     10  C   UNL     1       8.296   5.503  12.792  0.00  0.00    +0.000 C 
ATOM     11  C   UNL     1       7.358   5.079  13.881  0.00  0.00    +0.000 A 
ATOM     12  C   UNL     1       6.268   4.303  13.588  0.00  0.00    +0.000 A 
ATOM     13  C   UNL     1       5.429   3.939  14.632  0.00  0.00    +0.000 A 
ATOM     14  C   UNL     1       5.646   4.322  15.992  0.00  0.00    +0.000 A 
ATOM     15  C   UNL     1       4.860   4.014  17.180  0.00  0.00    +0.000 A 
ATOM     16  C   UNL     1       5.267   4.490  18.433  0.00  0.00    +0.000 A 
ATOM     17  C   UNL     1       6.410   5.266  18.553  0.00  0.00    +0.000 A 
ATOM     18  C   UNL     1       7.157   5.571  17.416  0.00  0.00    +0.000 A 
ATOM     19  C   UNL     1       6.808   5.117  16.153  0.00  0.00    +0.000 A 
ATOM     20  N   UNL     1       7.628   5.481  15.143  0.00  0.00    +0.000 NA
ENDBRANCH   9  15
ENDBRANCH   8   9
ENDBRANCH   7   8
ENDBRANCH   1   7
BRANCH   4  21
ATOM     21  C   UNL     1       2.862   5.841  20.366  0.00  0.00    +0.000 C 
BRANCH  21  22
ATOM     22  C   UNL     1       2.393   7.069  19.612  0.00  0.00    +0.000 A 
ATOM     23  C   UNL     1       2.790   7.297  18.289  0.00  0.00    +0.000 A 
ATOM     24  C   UNL     1       2.351   8.433  17.603  0.00  0.00    +0.000 A 
ATOM     25  C   UNL     1       1.497   9.350  18.222  0.00  0.00    +0.000 A 
ATOM     26  C   UNL     1       1.094   9.136  19.538  0.00  0.00    +0.000 A 
ATOM     27  C   UNL     1       1.552   8.009  20.233  0.00  0.00    +0.000 A 
BRANCH  26  28
ATOM     28  N   UNL     1       0.120   9.976  20.158  0.00  0.00    +0.000 N 
ATOM     29  C   UNL     1      -1.129  10.248  19.440  0.00  0.00    +0.000 C 
BRANCH  28  30
ATOM     30  S   UNL     1       0.532  10.946  21.472  0.00  0.00    +0.000 S 
ATOM     31  C   UNL     1      -0.927  11.944  21.698  0.00  0.00    +0.000 C 
ATOM     32  O   UNL     1       0.631  10.086  22.633  0.00  0.00    +0.000 OA
ATOM     33  O   UNL     1       1.623  11.829  21.107  0.00  0.00    +0.000 OA
ENDBRANCH  28  30
ENDBRANCH  26  28
ENDBRANCH  21  22
ENDBRANCH   4  21
TORSDOF 8
ENDMDL
MODEL 2
REMARK VINA RESULT:      -8.8      0.957      1.128
REMARK  Name = 
REMARK  11 active torsions:
REMARK  status: ('A' for Active; 'I' for Inactive)
REMARK    1  A    between atoms: C_1  and  C_2
REMARK    2  A    between atoms: C_6  and  O_7
REMARK    3  A    between atoms: O_7  and  C_8
REMARK    4  A    between atoms: C_8  and  C_9
REMARK    5  A    between atoms: C_9  and  N_10
REMARK    6  A    between atoms: C_13  and  C_14
REMARK    7  A    between atoms: C_14  and  C_15
REMARK    8  A    between atoms: C_19  and  N_20
REMARK    9  A    between atoms: N_20  and  C_21
REMARK   10  A    between atoms: N_20  and  S_22
REMARK   11  A    between atoms: S_22  and  C_23
REMARK                            x       y       z     vdW  Elec       q    Type
REMARK                         _______ _______ _______ _____ _____    ______ ____
ROOT
ATOM      1  N   UNL     1       2.184   2.387  19.746  0.00  0.00    +0.000 NA
ATOM      2  C   UNL     1       3.195   3.080  20.565  0.00  0.00    +0.000 C 
ATOM      3  C   UNL     1       2.574   4.080  21.535  0.00  0.00    +0.000 C 
ATOM      4  C   UNL     1       1.758   5.138  20.795  0.00  0.00    +0.000 C 
ATOM      5  C   UNL     1       0.695   4.384  19.971  0.00  0.00    +0.000 C 
ATOM      6  C   UNL     1       1.304   3.322  19.036  0.00  0.00    +0.000 C 
ENDROOT
BRANCH   1   7
ATOM      7  C   UNL     1       2.803   1.402  18.811  0.00  0.00    +0.000 C 
BRANCH   7   8
ATOM      8  C   UNL     1       4.028   2.047  18.154  0.00  0.00    +0.000 C 
BRANCH   8   9
ATOM      9  O   UNL     1       3.837   3.149  17.292  0.00  0.00    +0.000 OA
BRANCH   9  15
ATOM     10  C   UNL     1       8.310   5.671  12.802  0.00  0.00    +0.000 C 
ATOM     11  C   UNL     1       7.395   5.191  13.887  0.00  0.00    +0.000 A 
ATOM     12  C   UNL     1       6.386   4.310  13.597  0.00  0.00    +0.000 A 
ATOM     13  C   UNL     1       5.565   3.899  14.637  0.00  0.00    +0.000 A 
ATOM     14  C   UNL     1       5.720   4.336  15.990  0.00  0.00    +0.000 A 
ATOM     15  C   UNL     1       4.943   3.988  17.172  0.00  0.00    +0.000 A 
ATOM     16  C   UNL     1       5.281   4.533  18.418  0.00  0.00    +0.000 A 
ATOM     17  C   UNL     1       6.345   5.415  18.535  0.00  0.00    +0.000 A 
ATOM     18  C   UNL     1       7.082   5.757  17.403  0.00  0.00    +0.000 A 
ATOM     19  C   UNL     1       6.800   5.239  16.147  0.00  0.00    +0.000 A 
ATOM     20  N   UNL     1       7.603   5.650  15.141  0.00  0.00    +0.000 NA
ENDBRANCH   9  15
ENDBRANCH   8   9
ENDBRANCH   7   8
ENDBRANCH   1   7
BRANCH   4  21
ATOM     21  C   UNL     1       2.613   6.068  19.898  0.00  0.00    +0.000 C 
BRANCH  21  22
ATOM     22  C   UNL     1       2.066   7.465  19.682  0.00  0.00    +0.000 A 
ATOM     23  C   UNL     1       2.166   8.092  18.435  0.00  0.00    +0.000 A 
ATOM     24  C   UNL     1       1.658   9.382  18.248  0.00  0.00    +0.000 A 
ATOM     25  C   UNL     1       1.030  10.056  19.298  0.00  0.00    +0.000 A 
ATOM     26  C   UNL     1       0.924   9.444  20.545  0.00  0.00    +0.000 A 
ATOM     27  C   UNL     1       1.453   8.162  20.739  0.00  0.00    +0.000 A 
BRANCH  26  28
ATOM     28  N   UNL     1       0.175  10.044  21.602  0.00  0.00    +0.000 N 
ATOM     29  C   UNL     1      -0.340   9.183  22.672  0.00  0.00    +0.000 C 
BRANCH  28  30
ATOM     30  S   UNL     1      -0.447  11.601  21.439  0.00  0.00    +0.000 S 
ATOM     31  C   UNL     1      -1.407  11.800  22.928  0.00  0.00    +0.000 C 
ATOM     32  O   UNL     1       0.664  12.525  21.535  0.00  0.00    +0.000 OA
ATOM     33  O   UNL     1      -1.358  11.651  20.312  0.00  0.00    +0.000 OA
ENDBRANCH  28  30
ENDBRANCH  26  28
ENDBRANCH  21  22
ENDBRANCH   4  21
TORSDOF 8
ENDMDL
MODEL 3
REMARK VINA RESULT:      -8.6      1.200      1.312
REMARK  Name = 
REMARK  11 active torsions:
REMARK  status: ('A' for Active; 'I' for Inactive)
REMARK    1  A    between atoms: C_1  and  C_2
REMARK    2  A    between atoms: C_6  and  O_7
REMARK    3  A    between atoms: O_7  and  C_8
REMARK    4  A    between atoms: C_8  and  C_9
REMARK    5  A    between atoms: C_9  and  N_10
REMARK    6  A    between atoms: C_13  and  C_14
REMARK    7  A    between atoms: C_14  and  C_15
REMARK    8  A    between atoms: C_19  and  N_20
REMARK    9  A    between atoms: N_20  and  C_21
REMARK   10  A    between atoms: N_20  and  S_22
REMARK   11  A    between atoms: S_22  and  C_23
REMARK                            x       y       z     vdW  Elec       q    Type
REMARK                         _______ _______ _______ _____ _____    ______ ____
ROOT
ATOM      1  N   UNL     1       1.884   2.401  19.540  0.00  0.00    +0.000 NA
ATOM      2  C   UNL     1       2.849   2.785  20.586  0.00  0.00    +0.000 C 
ATOM      3  C   UNL     1       2.243   3.727  21.621  0.00  0.00    +0.000 C 
ATOM      4  C   UNL     1       1.719   5.005  20.968  0.00  0.00    +0.000 C 
ATOM      5  C   UNL     1       0.696   4.573  19.900  0.00  0.00    +0.000 C 
ATOM      6  C   UNL     1       1.275   3.566  18.888  0.00  0.00    +0.000 C 
ENDROOT
BRANCH   1   7
ATOM      7  C   UNL     1       2.485   1.468  18.542  0.00  0.00    +0.000 C 
BRANCH   7   8
ATOM      8  C   UNL     1       3.821   2.047  18.066  0.00  0.00    +0.000 C 
BRANCH   8   9
ATOM      9  O   UNL     1       3.823   2.952  16.982  0.00  0.00    +0.000 OA
BRANCH   9  15
ATOM     10  C   UNL     1       8.408   5.715  12.754  0.00  0.00    +0.000 C 
ATOM     11  C   UNL     1       7.465   5.177  13.787  0.00  0.00    +0.000 A 
ATOM     12  C   UNL     1       6.467   4.311  13.424  0.00  0.00    +0.000 A 
ATOM     13  C   UNL     1       5.619   3.844  14.418  0.00  0.00    +0.000 A 
ATOM     14  C   UNL     1       5.737   4.209  15.796  0.00  0.00    +0.000 A 
ATOM     15  C   UNL     1       4.930   3.798  16.937  0.00  0.00    +0.000 A 
ATOM     16  C   UNL     1       5.233   4.276  18.219  0.00  0.00    +0.000 A 
ATOM     17  C   UNL     1       6.291   5.152  18.410  0.00  0.00    +0.000 A 
ATOM     18  C   UNL     1       7.057   5.555  17.318  0.00  0.00    +0.000 A 
ATOM     19  C   UNL     1       6.810   5.104  16.030  0.00  0.00    +0.000 A 
ATOM     20  N   UNL     1       7.638   5.569  15.069  0.00  0.00    +0.000 NA
ENDBRANCH   9  15
ENDBRANCH   8   9
ENDBRANCH   7   8
ENDBRANCH   1   7
BRANCH   4  21
ATOM     21  C   UNL     1       2.834   5.892  20.356  0.00  0.00    +0.000 C 
BRANCH  21  22
ATOM     22  C   UNL     1       2.364   7.130  19.619  0.00  0.00    +0.000 A 
ATOM     23  C   UNL     1       2.581   7.274  18.244  0.00  0.00    +0.000 A 
ATOM     24  C   UNL     1       2.143   8.422  17.574  0.00  0.00    +0.000 A 
ATOM     25  C   UNL     1       1.469   9.432  18.264  0.00  0.00    +0.000 A 
ATOM     26  C   UNL     1       1.247   9.302  19.632  0.00  0.00    +0.000 A 
ATOM     27  C   UNL     1       1.705   8.163  20.308  0.00  0.00    +0.000 A 
BRANCH  26  28
ATOM     28  N   UNL     1       0.448  10.247  20.345  0.00  0.00    +0.000 N 
ATOM     29  C   UNL     1       0.482  10.229  21.811  0.00  0.00    +0.000 C 
BRANCH  28  30
ATOM     30  S   UNL     1      -0.791  11.084  19.569  0.00  0.00    +0.000 S 
ATOM     31  C   UNL     1       0.066  12.459  18.827  0.00  0.00    +0.000 C 
ATOM     32  O   UNL     1      -1.262  10.252  18.481  0.00  0.00    +0.000 OA
ATOM     33  O   UNL     1      -1.716  11.614  20.552  0.00  0.00    +0.000 OA
ENDBRANCH  28  30
ENDBRANCH  26  28
ENDBRANCH  21  22
ENDBRANCH   4  21
TORSDOF 8
ENDMDL
MODEL 4
REMARK VINA RESULT:      -8.6      1.702      2.623
REMARK  Name = 
REMARK  11 active torsions:
REMARK  status: ('A' for Active; 'I' for Inactive)
REMARK    1  A    between atoms: C_1  and  C_2
REMARK    2  A    between atoms: C_6  and  O_7
REMARK    3  A    between atoms: O_7  and  C_8
REMARK    4  A    between atoms: C_8  and  C_9
REMARK    5  A    between atoms: C_9  and  N_10
REMARK    6  A    between atoms: C_13  and  C_14
REMARK    7  A    between atoms: C_14  and  C_15
REMARK    8  A    between atoms: C_19  and  N_20
REMARK    9  A    between atoms: N_20  and  C_21
REMARK   10  A    between atoms: N_20  and  S_22
REMARK   11  A    between atoms: S_22  and  C_23
REMARK                            x       y       z     vdW  Elec       q    Type
REMARK                         _______ _______ _______ _____ _____    ______ ____
ROOT
ATOM      1  N   UNL     1       2.462   2.148  19.431  0.00  0.00    +0.000 NA
ATOM      2  C   UNL     1       3.069   2.614  20.691  0.00  0.00    +0.000 C 
ATOM      3  C   UNL     1       2.115   3.476  21.513  0.00  0.00    +0.000 C 
ATOM      4  C   UNL     1       1.658   4.702  20.725  0.00  0.00    +0.000 C 
ATOM      5  C   UNL     1       1.008   4.183  19.429  0.00  0.00    +0.000 C 
ATOM      6  C   UNL     1       1.935   3.254  18.622  0.00  0.00    +0.000 C 
ENDROOT
BRANCH   1   7
ATOM      7  C   UNL     1       3.400   1.295  18.643  0.00  0.00    +0.000 C 
BRANCH   7   8
ATOM      8  C   UNL     1       4.223   2.193  17.713  0.00  0.00    +0.000 C 
BRANCH   8   9
ATOM      9  O   UNL     1       5.158   3.085  18.281  0.00  0.00    +0.000 OA
BRANCH   9  15
ATOM     10  C   UNL     1       8.702   8.913  18.180  0.00  0.00    +0.000 C 
ATOM     11  C   UNL     1       7.867   7.672  18.080  0.00  0.00    +0.000 A 
ATOM     12  C   UNL     1       7.909   6.732  19.075  0.00  0.00    +0.000 A 
ATOM     13  C   UNL     1       7.119   5.600  18.933  0.00  0.00    +0.000 A 
ATOM     14  C   UNL     1       6.261   5.368  17.812  0.00  0.00    +0.000 A 
ATOM     15  C   UNL     1       5.382   4.241  17.534  0.00  0.00    +0.000 A 
ATOM     16  C   UNL     1       4.612   4.224  16.364  0.00  0.00    +0.000 A 
ATOM     17  C   UNL     1       4.689   5.270  15.457  0.00  0.00    +0.000 A 
ATOM     18  C   UNL     1       5.538   6.345  15.716  0.00  0.00    +0.000 A 
ATOM     19  C   UNL     1       6.313   6.419  16.863  0.00  0.00    +0.000 A 
ATOM     20  N   UNL     1       7.083   7.523  16.990  0.00  0.00    +0.000 NA
ENDBRANCH   9  15
ENDBRANCH   8   9
ENDBRANCH   7   8
ENDBRANCH   1   7
BRANCH   4  21
ATOM     21  C   UNL     1       2.799   5.707  20.421  0.00  0.00    +0.000 C 
BRANCH  21  22
ATOM     22  C   UNL     1       2.404   6.937  19.631  0.00  0.00    +0.000 A 
ATOM     23  C   UNL     1       2.781   7.085  18.291  0.00  0.00    +0.000 A 
ATOM     24  C   UNL     1       2.411   8.226  17.572  0.00  0.00    +0.000 A 
ATOM     25  C   UNL     1       1.646   9.228  18.176  0.00  0.00    +0.000 A 
ATOM     26  C   UNL     1       1.264   9.094  19.508  0.00  0.00    +0.000 A 
ATOM     27  C   UNL     1       1.654   7.962  20.235  0.00  0.00    +0.000 A 
BRANCH  26  28
ATOM     28  N   UNL     1       0.374  10.029  20.119  0.00  0.00    +0.000 N 
ATOM     29  C   UNL     1       0.021   9.841  21.531  0.00  0.00    +0.000 C 
BRANCH  28  30
ATOM     30  S   UNL     1      -0.559  11.070  19.179  0.00  0.00    +0.000 S 
ATOM     31  C   UNL     1      -1.584  11.882  20.389  0.00  0.00    +0.000 C 
ATOM     32  O   UNL     1       0.329  12.080  18.640  0.00  0.00    +0.000 OA
ATOM     33  O   UNL     1      -1.424  10.301  18.306  0.00  0.00    +0.000 OA
ENDBRANCH  28  30
ENDBRANCH  26  28
ENDBRANCH  21  22
ENDBRANCH   4  21
TORSDOF 8
ENDMDL
MODEL 5
REMARK VINA RESULT:      -8.3      1.026      1.101
REMARK  Name = 
REMARK  11 active torsions:
REMARK  status: ('A' for Active; 'I' for Inactive)
REMARK    1  A    between atoms: C_1  and  C_2
REMARK    2  A    between atoms: C_6  and  O_7
REMARK    3  A    between atoms: O_7  and  C_8
REMARK    4  A    between atoms: C_8  and  C_9
REMARK    5  A    between atoms: C_9  and  N_10
REMARK    6  A    between atoms: C_13  and  C_14
REMARK    7  A    between atoms: C_14  and  C_15
REMARK    8  A    between atoms: C_19  and  N_20
REMARK    9  A    between atoms: N_20  and  C_21
REMARK   10  A    between atoms: N_20  and  S_22
REMARK   11  A    between atoms: S_22  and  C_23
REMARK                            x       y       z     vdW  Elec       q    Type
REMARK                         _______ _______ _______ _____ _____    ______ ____
ROOT
ATOM      1  N   UNL     1       1.811   2.342  18.757  0.00  0.00    +0.000 NA
ATOM      2  C   UNL     1       2.590   2.299  20.008  0.00  0.00    +0.000 C 
ATOM      3  C   UNL     1       1.801   2.820  21.205  0.00  0.00    +0.000 C 
ATOM      4  C   UNL     1       1.343   4.260  20.982  0.00  0.00    +0.000 C 
ATOM      5  C   UNL     1       0.511   4.268  19.685  0.00  0.00    +0.000 C 
ATOM      6  C   UNL     1       1.272   3.679  18.481  0.00  0.00    +0.000 C 
ENDROOT
BRANCH   1   7
ATOM      7  C   UNL     1       2.589   1.818  17.596  0.00  0.00    +0.000 C 
BRANCH   7   8
ATOM      8  C   UNL     1       3.647   2.853  17.202  0.00  0.00    +0.000 C 
BRANCH   8   9
ATOM      9  O   UNL     1       4.491   3.378  18.204  0.00  0.00    +0.000 OA
BRANCH   9  15
ATOM     10  C   UNL     1       7.982   5.216  12.638  0.00  0.00    +0.000 C 
ATOM     11  C   UNL     1       7.284   4.913  13.929  0.00  0.00    +0.000 A 
ATOM     12  C   UNL     1       6.366   3.899  13.995  0.00  0.00    +0.000 A 
ATOM     13  C   UNL     1       5.746   3.661  15.214  0.00  0.00    +0.000 A 
ATOM     14  C   UNL     1       6.022   4.407  16.402  0.00  0.00    +0.000 A 
ATOM     15  C   UNL     1       5.458   4.268  17.737  0.00  0.00    +0.000 A 
ATOM     16  C   UNL     1       5.886   5.111  18.771  0.00  0.00    +0.000 A 
ATOM     17  C   UNL     1       6.837   6.092  18.530  0.00  0.00    +0.000 A 
ATOM     18  C   UNL     1       7.370   6.234  17.250  0.00  0.00    +0.000 A 
ATOM     19  C   UNL     1       6.992   5.420  16.193  0.00  0.00    +0.000 A 
ATOM     20  N   UNL     1       7.597   5.663  15.009  0.00  0.00    +0.000 NA
ENDBRANCH   9  15
ENDBRANCH   8   9
ENDBRANCH   7   8
ENDBRANCH   1   7
BRANCH   4  21
ATOM     21  C   UNL     1       2.508   5.280  20.912  0.00  0.00    +0.000 C 
BRANCH  21  22
ATOM     22  C   UNL     1       2.206   6.581  20.198  0.00  0.00    +0.000 A 
ATOM     23  C   UNL     1       2.624   6.792  18.879  0.00  0.00    +0.000 A 
ATOM     24  C   UNL     1       2.340   7.998  18.230  0.00  0.00    +0.000 A 
ATOM     25  C   UNL     1       1.621   9.003  18.882  0.00  0.00    +0.000 A 
ATOM     26  C   UNL     1       1.200   8.807  20.195  0.00  0.00    +0.000 A 
ATOM     27  C   UNL     1       1.504   7.608  20.853  0.00  0.00    +0.000 A 
BRANCH  26  28
ATOM     28  N   UNL     1       0.352   9.752  20.848  0.00  0.00    +0.000 N 
ATOM     29  C   UNL     1       0.136  11.056  20.212  0.00  0.00    +0.000 C 
BRANCH  28  30
ATOM     30  S   UNL     1      -0.065   9.558  22.469  0.00  0.00    +0.000 S 
ATOM     31  C   UNL     1      -1.133  10.953  22.771  0.00  0.00    +0.000 C 
ATOM     32  O   UNL     1      -0.893   8.373  22.564  0.00  0.00    +0.000 OA
ATOM     33  O   UNL     1       1.112   9.710  23.301  0.00  0.00    +0.000 OA
ENDBRANCH  28  30
ENDBRANCH  26  28
ENDBRANCH  21  22
ENDBRANCH   4  21
TORSDOF 8
ENDMDL
MODEL 6
REMARK VINA RESULT:      -7.9      2.041      4.071
REMARK  Name = 
REMARK  11 active torsions:
REMARK  status: ('A' for Active; 'I' for Inactive)
REMARK    1  A    between atoms: C_1  and  C_2
REMARK    2  A    between atoms: C_6  and  O_7
REMARK    3  A    between atoms: O_7  and  C_8
REMARK    4  A    between atoms: C_8  and  C_9
REMARK    5  A    between atoms: C_9  and  N_10
REMARK    6  A    between atoms: C_13  and  C_14
REMARK    7  A    between atoms: C_14  and  C_15
REMARK    8  A    between atoms: C_19  and  N_20
REMARK    9  A    between atoms: N_20  and  C_21
REMARK   10  A    between atoms: N_20  and  S_22
REMARK   11  A    between atoms: S_22  and  C_23
REMARK                            x       y       z     vdW  Elec       q    Type
REMARK                         _______ _______ _______ _____ _____    ______ ____
ROOT
ATOM      1  N   UNL     1       2.154   7.414  19.627  0.00  0.00    +0.000 NA
ATOM      2  C   UNL     1       2.100   7.787  18.202  0.00  0.00    +0.000 C 
ATOM      3  C   UNL     1       2.214   9.293  17.988  0.00  0.00    +0.000 C 
ATOM      4  C   UNL     1       1.100  10.042  18.717  0.00  0.00    +0.000 C 
ATOM      5  C   UNL     1       1.199   9.653  20.204  0.00  0.00    +0.000 C 
ATOM      6  C   UNL     1       1.156   8.130  20.430  0.00  0.00    +0.000 C 
ENDROOT
BRANCH   1   7
ATOM      7  C   UNL     1       2.056   5.938  19.822  0.00  0.00    +0.000 C 
BRANCH   7   8
ATOM      8  C   UNL     1       3.470   5.353  19.890  0.00  0.00    +0.000 C 
BRANCH   8   9
ATOM      9  O   UNL     1       3.913   4.521  18.839  0.00  0.00    +0.000 OA
BRANCH   9  15
ATOM     10  C   UNL     1       7.494   4.895  13.044  0.00  0.00    +0.000 C 
ATOM     11  C   UNL     1       6.821   4.860  14.383  0.00  0.00    +0.000 A 
ATOM     12  C   UNL     1       5.528   4.424  14.493  0.00  0.00    +0.000 A 
ATOM     13  C   UNL     1       4.951   4.414  15.756  0.00  0.00    +0.000 A 
ATOM     14  C   UNL     1       5.635   4.823  16.943  0.00  0.00    +0.000 A 
ATOM     15  C   UNL     1       5.162   4.861  18.320  0.00  0.00    +0.000 A 
ATOM     16  C   UNL     1       6.016   5.293  19.343  0.00  0.00    +0.000 A 
ATOM     17  C   UNL     1       7.310   5.700  19.054  0.00  0.00    +0.000 A 
ATOM     18  C   UNL     1       7.760   5.675  17.735  0.00  0.00    +0.000 A 
ATOM     19  C   UNL     1       6.963   5.245  16.685  0.00  0.00    +0.000 A 
ATOM     20  N   UNL     1       7.532   5.265  15.460  0.00  0.00    +0.000 NA
ENDBRANCH   9  15
ENDBRANCH   8   9
ENDBRANCH   7   8
ENDBRANCH   1   7
BRANCH   4  21
ATOM     21  C   UNL     1      -0.315   9.756  18.151  0.00  0.00    +0.000 C 
BRANCH  21  22
ATOM     22  C   UNL     1      -1.416  10.682  18.624  0.00  0.00    +0.000 A 
ATOM     23  C   UNL     1      -2.691  10.639  18.048  0.00  0.00    +0.000 A 
ATOM     24  C   UNL     1      -3.700  11.499  18.493  0.00  0.00    +0.000 A 
ATOM     25  C   UNL     1      -3.455  12.404  19.530  0.00  0.00    +0.000 A 
ATOM     26  C   UNL     1      -2.190  12.458  20.112  0.00  0.00    +0.000 A 
ATOM     27  C   UNL     1      -1.174  11.613  19.651  0.00  0.00    +0.000 A 
BRANCH  26  28
ATOM     28  N   UNL     1      -1.939  13.273  21.258  0.00  0.00    +0.000 N 
ATOM     29  C   UNL     1      -1.446  14.639  21.052  0.00  0.00    +0.000 C 
BRANCH  28  30
ATOM     30  S   UNL     1      -1.819  12.586  22.791  0.00  0.00    +0.000 S 
ATOM     31  C   UNL     1      -1.714  14.013  23.855  0.00  0.00    +0.000 C 
ATOM     32  O   UNL     1      -3.086  11.946  23.080  0.00  0.00    +0.000 OA
ATOM     33  O   UNL     1      -0.574  11.853  22.905  0.00  0.00    +0.000 OA
ENDBRANCH  28  30
ENDBRANCH  26  28
ENDBRANCH  21  22
ENDBRANCH   4  21
TORSDOF 8
ENDMDL
MODEL 7
REMARK VINA RESULT:      -7.7      1.849      3.277
REMARK  Name = 
REMARK  11 active torsions:
REMARK  status: ('A' for Active; 'I' for Inactive)
REMARK    1  A    between atoms: C_1  and  C_2
REMARK    2  A    between atoms: C_6  and  O_7
REMARK    3  A    between atoms: O_7  and  C_8
REMARK    4  A    between atoms: C_8  and  C_9
REMARK    5  A    between atoms: C_9  and  N_10
REMARK    6  A    between atoms: C_13  and  C_14
REMARK    7  A    between atoms: C_14  and  C_15
REMARK    8  A    between atoms: C_19  and  N_20
REMARK    9  A    between atoms: N_20  and  C_21
REMARK   10  A    between atoms: N_20  and  S_22
REMARK   11  A    between atoms: S_22  and  C_23
REMARK                            x       y       z     vdW  Elec       q    Type
REMARK                         _______ _______ _______ _____ _____    ______ ____
ROOT
ATOM      1  N   UNL     1       2.579   5.989  19.352  0.00  0.00    +0.000 NA
ATOM      2  C   UNL     1       2.752   6.535  17.993  0.00  0.00    +0.000 C 
ATOM      3  C   UNL     1       3.096   8.021  18.002  0.00  0.00    +0.000 C 
ATOM      4  C   UNL     1       2.013   8.837  18.706  0.00  0.00    +0.000 C 
ATOM      5  C   UNL     1       1.874   8.260  20.128  0.00  0.00    +0.000 C 
ATOM      6  C   UNL     1       1.596   6.745  20.137  0.00  0.00    +0.000 C 
ENDROOT
BRANCH   1   7
ATOM      7  C   UNL     1       2.256   4.532  19.330  0.00  0.00    +0.000 C 
BRANCH   7   8
ATOM      8  C   UNL     1       3.163   3.839  18.308  0.00  0.00    +0.000 C 
BRANCH   8   9
ATOM      9  O   UNL     1       4.474   3.485  18.692  0.00  0.00    +0.000 OA
BRANCH   9  15
ATOM     10  C   UNL     1       7.674   5.158  12.904  0.00  0.00    +0.000 C 
ATOM     11  C   UNL     1       7.053   4.883  14.240  0.00  0.00    +0.000 A 
ATOM     12  C   UNL     1       6.063   3.945  14.360  0.00  0.00    +0.000 A 
ATOM     13  C   UNL     1       5.520   3.731  15.619  0.00  0.00    +0.000 A 
ATOM     14  C   UNL     1       5.944   4.427  16.794  0.00  0.00    +0.000 A 
ATOM     15  C   UNL     1       5.472   4.305  18.167  0.00  0.00    +0.000 A 
ATOM     16  C   UNL     1       6.044   5.089  19.177  0.00  0.00    +0.000 A 
ATOM     17  C   UNL     1       7.050   5.995  18.879  0.00  0.00    +0.000 A 
ATOM     18  C   UNL     1       7.495   6.122  17.564  0.00  0.00    +0.000 A 
ATOM     19  C   UNL     1       6.974   5.363  16.527  0.00  0.00    +0.000 A 
ATOM     20  N   UNL     1       7.506   5.583  15.304  0.00  0.00    +0.000 NA
ENDBRANCH   9  15
ENDBRANCH   8   9
ENDBRANCH   7   8
ENDBRANCH   1   7
BRANCH   4  21
ATOM     21  C   UNL     1       0.653   8.839  17.962  0.00  0.00    +0.000 C 
BRANCH  21  22
ATOM     22  C   UNL     1      -0.203  10.073  18.153  0.00  0.00    +0.000 A 
ATOM     23  C   UNL     1      -1.535  10.099  17.724  0.00  0.00    +0.000 A 
ATOM     24  C   UNL     1      -2.316  11.245  17.905  0.00  0.00    +0.000 A 
ATOM     25  C   UNL     1      -1.784  12.376  18.531  0.00  0.00    +0.000 A 
ATOM     26  C   UNL     1      -0.459  12.364  18.962  0.00  0.00    +0.000 A 
ATOM     27  C   UNL     1       0.330  11.224  18.761  0.00  0.00    +0.000 A 
BRANCH  26  28
ATOM     28  N   UNL     1       0.080  13.446  19.722  0.00  0.00    +0.000 N 
ATOM     29  C   UNL     1      -0.592  14.748  19.660  0.00  0.00    +0.000 C 
BRANCH  28  30
ATOM     30  S   UNL     1       1.643  13.366  20.344  0.00  0.00    +0.000 S 
ATOM     31  C   UNL     1       1.815  14.930  21.181  0.00  0.00    +0.000 C 
ATOM     32  O   UNL     1       1.649  12.343  21.370  0.00  0.00    +0.000 OA
ATOM     33  O   UNL     1       2.603  13.333  19.259  0.00  0.00    +0.000 OA
ENDBRANCH  28  30
ENDBRANCH  26  28
ENDBRANCH  21  22
ENDBRANCH   4  21
TORSDOF 8
ENDMDL
MODEL 8
REMARK VINA RESULT:      -7.7      1.485      2.496
REMARK  Name = 
REMARK  11 active torsions:
REMARK  status: ('A' for Active; 'I' for Inactive)
REMARK    1  A    between atoms: C_1  and  C_2
REMARK    2  A    between atoms: C_6  and  O_7
REMARK    3  A    between atoms: O_7  and  C_8
REMARK    4  A    between atoms: C_8  and  C_9
REMARK    5  A    between atoms: C_9  and  N_10
REMARK    6  A    between atoms: C_13  and  C_14
REMARK    7  A    between atoms: C_14  and  C_15
REMARK    8  A    between atoms: C_19  and  N_20
REMARK    9  A    between atoms: N_20  and  C_21
REMARK   10  A    between atoms: N_20  and  S_22
REMARK   11  A    between atoms: S_22  and  C_23
REMARK                            x       y       z     vdW  Elec       q    Type
REMARK                         _______ _______ _______ _____ _____    ______ ____
ROOT
ATOM      1  N   UNL     1       2.354   2.286  19.288  0.00  0.00    +0.000 NA
ATOM      2  C   UNL     1       2.772   2.677  20.647  0.00  0.00    +0.000 C 
ATOM      3  C   UNL     1       1.693   3.463  21.385  0.00  0.00    +0.000 C 
ATOM      4  C   UNL     1       1.311   4.731  20.623  0.00  0.00    +0.000 C 
ATOM      5  C   UNL     1       0.855   4.287  19.220  0.00  0.00    +0.000 C 
ATOM      6  C   UNL     1       1.909   3.433  18.489  0.00  0.00    +0.000 C 
ENDROOT
BRANCH   1   7
ATOM      7  C   UNL     1       3.413   1.507  18.582  0.00  0.00    +0.000 C 
BRANCH   7   8
ATOM      8  C   UNL     1       4.415   2.486  17.960  0.00  0.00    +0.000 C 
BRANCH   8   9
ATOM      9  O   UNL     1       4.112   3.065  16.708  0.00  0.00    +0.000 OA
BRANCH   9  15
ATOM     10  C   UNL     1       8.242   8.340  17.993  0.00  0.00    +0.000 C 
ATOM     11  C   UNL     1       7.398   7.171  17.586  0.00  0.00    +0.000 A 
ATOM     12  C   UNL     1       6.432   6.691  18.431  0.00  0.00    +0.000 A 
ATOM     13  C   UNL     1       5.680   5.605  18.007  0.00  0.00    +0.000 A 
ATOM     14  C   UNL     1       5.851   4.969  16.738  0.00  0.00    +0.000 A 
ATOM     15  C   UNL     1       5.139   3.835  16.164  0.00  0.00    +0.000 A 
ATOM     16  C   UNL     1       5.468   3.377  14.881  0.00  0.00    +0.000 A 
ATOM     17  C   UNL     1       6.480   3.987  14.155  0.00  0.00    +0.000 A 
ATOM     18  C   UNL     1       7.170   5.064  14.707  0.00  0.00    +0.000 A 
ATOM     19  C   UNL     1       6.878   5.567  15.966  0.00  0.00    +0.000 A 
ATOM     20  N   UNL     1       7.620   6.621  16.371  0.00  0.00    +0.000 NA
ENDBRANCH   9  15
ENDBRANCH   8   9
ENDBRANCH   7   8
ENDBRANCH   1   7
BRANCH   4  21
ATOM     21  C   UNL     1       2.453   5.775  20.543  0.00  0.00    +0.000 C 
BRANCH  21  22
ATOM     22  C   UNL     1       2.131   7.050  19.790  0.00  0.00    +0.000 A 
ATOM     23  C   UNL     1       2.486   7.202  18.445  0.00  0.00    +0.000 A 
ATOM     24  C   UNL     1       2.184   8.384  17.761  0.00  0.00    +0.000 A 
ATOM     25  C   UNL     1       1.509   9.424  18.405  0.00  0.00    +0.000 A 
ATOM     26  C   UNL     1       1.150   9.287  19.744  0.00  0.00    +0.000 A 
ATOM     27  C   UNL     1       1.472   8.113  20.436  0.00  0.00    +0.000 A 
BRANCH  26  28
ATOM     28  N   UNL     1       0.346  10.270  20.398  0.00  0.00    +0.000 N 
ATOM     29  C   UNL     1       0.391  10.351  21.862  0.00  0.00    +0.000 C 
BRANCH  28  30
ATOM     30  S   UNL     1      -0.909  11.038  19.578  0.00  0.00    +0.000 S 
ATOM     31  C   UNL     1      -0.085  12.409  18.792  0.00  0.00    +0.000 C 
ATOM     32  O   UNL     1      -1.342  10.150  18.519  0.00  0.00    +0.000 OA
ATOM     33  O   UNL     1      -1.860  11.577  20.530  0.00  0.00    +0.000 OA
ENDBRANCH  28  30
ENDBRANCH  26  28
ENDBRANCH  21  22
ENDBRANCH   4  21
TORSDOF 8
ENDMDL
MODEL 9
REMARK VINA RESULT:      -7.6      2.035      3.993
REMARK  Name = 
REMARK  11 active torsions:
REMARK  status: ('A' for Active; 'I' for Inactive)
REMARK    1  A    between atoms: C_1  and  C_2
REMARK    2  A    between atoms: C_6  and  O_7
REMARK    3  A    between atoms: O_7  and  C_8
REMARK    4  A    between atoms: C_8  and  C_9
REMARK    5  A    between atoms: C_9  and  N_10
REMARK    6  A    between atoms: C_13  and  C_14
REMARK    7  A    between atoms: C_14  and  C_15
REMARK    8  A    between atoms: C_19  and  N_20
REMARK    9  A    between atoms: N_20  and  C_21
REMARK   10  A    between atoms: N_20  and  S_22
REMARK   11  A    between atoms: S_22  and  C_23
REMARK                            x       y       z     vdW  Elec       q    Type
REMARK                         _______ _______ _______ _____ _____    ______ ____
ROOT
ATOM      1  N   UNL     1       2.262   7.190  19.505  0.00  0.00    +0.000 NA
ATOM      2  C   UNL     1       2.127   7.672  18.118  0.00  0.00    +0.000 C 
ATOM      3  C   UNL     1       2.271   9.186  18.010  0.00  0.00    +0.000 C 
ATOM      4  C   UNL     1       1.228   9.904  18.865  0.00  0.00    +0.000 C 
ATOM      5  C   UNL     1       1.411   9.400  20.310  0.00  0.00    +0.000 C 
ATOM      6  C   UNL     1       1.338   7.865  20.423  0.00  0.00    +0.000 C 
ENDROOT
BRANCH   1   7
ATOM      7  C   UNL     1       2.133   5.706  19.595  0.00  0.00    +0.000 C 
BRANCH   7   8
ATOM      8  C   UNL     1       3.519   5.104  19.853  0.00  0.00    +0.000 C 
BRANCH   8   9
ATOM      9  O   UNL     1       4.090   4.266  18.870  0.00  0.00    +0.000 OA
BRANCH   9  15
ATOM     10  C   UNL     1       7.487   4.915  12.990  0.00  0.00    +0.000 C 
ATOM     11  C   UNL     1       6.849   4.837  14.344  0.00  0.00    +0.000 A 
ATOM     12  C   UNL     1       5.627   4.237  14.496  0.00  0.00    +0.000 A 
ATOM     13  C   UNL     1       5.078   4.193  15.770  0.00  0.00    +0.000 A 
ATOM     14  C   UNL     1       5.723   4.729  16.929  0.00  0.00    +0.000 A 
ATOM     15  C   UNL     1       5.273   4.750  18.314  0.00  0.00    +0.000 A 
ATOM     16  C   UNL     1       6.080   5.325  19.305  0.00  0.00    +0.000 A 
ATOM     17  C   UNL     1       7.303   5.890  18.974  0.00  0.00    +0.000 A 
ATOM     18  C   UNL     1       7.730   5.880  17.648  0.00  0.00    +0.000 A 
ATOM     19  C   UNL     1       6.978   5.314  16.629  0.00  0.00    +0.000 A 
ATOM     20  N   UNL     1       7.518   5.367  15.392  0.00  0.00    +0.000 NA
ENDBRANCH   9  15
ENDBRANCH   8   9
ENDBRANCH   7   8
ENDBRANCH   1   7
BRANCH   4  21
ATOM     21  C   UNL     1      -0.228   9.696  18.375  0.00  0.00    +0.000 C 
BRANCH  21  22
ATOM     22  C   UNL     1      -1.254  10.669  18.918  0.00  0.00    +0.000 A 
ATOM     23  C   UNL     1      -2.462  10.892  18.246  0.00  0.00    +0.000 A 
ATOM     24  C   UNL     1      -3.401  11.793  18.757  0.00  0.00    +0.000 A 
ATOM     25  C   UNL     1      -3.156  12.473  19.953  0.00  0.00    +0.000 A 
ATOM     26  C   UNL     1      -1.958  12.261  20.631  0.00  0.00    +0.000 A 
ATOM     27  C   UNL     1      -1.007  11.376  20.109  0.00  0.00    +0.000 A 
BRANCH  26  28
ATOM     28  N   UNL     1      -1.727  12.834  21.919  0.00  0.00    +0.000 N 
ATOM     29  C   UNL     1      -2.660  12.513  23.005  0.00  0.00    +0.000 C 
BRANCH  28  30
ATOM     30  S   UNL     1      -0.678  14.138  22.106  0.00  0.00    +0.000 S 
ATOM     31  C   UNL     1      -0.875  15.025  20.572  0.00  0.00    +0.000 C 
ATOM     32  O   UNL     1      -1.220  14.985  23.149  0.00  0.00    +0.000 OA
ATOM     33  O   UNL     1       0.690  13.662  22.173  0.00  0.00    +0.000 OA
ENDBRANCH  28  30
ENDBRANCH  26  28
ENDBRANCH  21  22
ENDBRANCH   4  21
TORSDOF 8
ENDMDL
