MODEL 1
REMARK VINA RESULT:      -8.5      0.000      0.000
REMARK  Name = 
REMARK  6 active torsions:
REMARK  status: ('A' for Active; 'I' for Inactive)
REMARK    1  A    between atoms: C_4  and  C_6
REMARK    2  A    between atoms: N_12  and  C_13
REMARK    3  A    between atoms: N_16  and  C_17
REMARK    4  A    between atoms: C_17  and  C_18
REMARK    5  A    between atoms: C_18  and  O_19
REMARK    6  A    between atoms: C_18  and  C_20
REMARK                            x       y       z     vdW  Elec       q    Type
REMARK                         _______ _______ _______ _____ _____    ______ ____
ROOT
ATOM      1  C   UNL     1       1.470   6.423  20.078  0.00  0.00    +0.000 C 
ATOM      2  C   UNL     1       1.610   4.963  20.525  0.00  0.00    +0.000 C 
ATOM      3  C   UNL     1       3.059   4.444  20.526  0.00  0.00    +0.000 C 
ATOM      4  N   UNL     1       3.725   4.655  19.232  0.00  0.00    +0.000 NA
ATOM      5  C   UNL     1       3.719   6.090  18.895  0.00  0.00    +0.000 C 
ATOM      6  C   UNL     1       2.296   6.666  18.812  0.00  0.00    +0.000 C 
ENDROOT
BRANCH   1  12
ATOM      7  O   UNL     1       2.046   9.148  22.413  0.00  0.00    +0.000 OA
ATOM      8  C   UNL     1       1.456   8.624  21.459  0.00  0.00    +0.000 C 
ATOM      9  N   UNL     1       0.492   9.205  20.682  0.00  0.00    +0.000 N 
ATOM     10  C   UNL     1      -0.060  10.453  20.967  0.00  0.00    +0.000 C 
ATOM     11  O   UNL     1       0.229  11.181  21.926  0.00  0.00    +0.000 OA
ATOM     12  N   UNL     1       1.832   7.345  21.155  0.00  0.00    +0.000 N 
ATOM     13  H   UNL     1       0.080   8.652  19.963  0.00  0.00    +0.000 HD
ATOM     14  H   UNL     1       2.582   7.060  21.777  0.00  0.00    +0.000 HD
BRANCH  10  15
ATOM     15  C   UNL     1      -1.120  10.962  20.041  0.00  0.00    +0.000 A 
ATOM     16  C   UNL     1      -1.283  10.341  18.794  0.00  0.00    +0.000 A 
ATOM     17  C   UNL     1      -2.274  10.752  17.910  0.00  0.00    +0.000 A 
ATOM     18  C   UNL     1      -3.129  11.795  18.260  0.00  0.00    +0.000 A 
ATOM     19  C   UNL     1      -2.995  12.411  19.504  0.00  0.00    +0.000 A 
ATOM     20  C   UNL     1      -1.999  12.005  20.395  0.00  0.00    +0.000 A 
ENDBRANCH  10  15
ENDBRANCH   1  12
BRANCH   4  21
ATOM     21  C   UNL     1       5.117   4.096  19.193  0.00  0.00    +0.000 C 
BRANCH  21  22
ATOM     22  C   UNL     1       6.195   5.068  18.639  0.00  0.00    +0.000 C 
BRANCH  22  23
ATOM     23  C   UNL     1       6.583   4.942  17.145  0.00  0.00    +0.000 C 
ATOM     24  C   UNL     1       6.828   6.256  16.414  0.00  0.00    +0.000 C 
ATOM     25  O   UNL     1       7.728   5.920  15.328  0.00  0.00    +0.000 OA
ATOM     26  C   UNL     1       7.143   4.932  14.560  0.00  0.00    +0.000 A 
ATOM     27  C   UNL     1       7.644   4.734  13.277  0.00  0.00    +0.000 A 
ATOM     28  C   UNL     1       6.853   4.063  12.347  0.00  0.00    +0.000 A 
ATOM     29  C   UNL     1       5.580   3.617  12.715  0.00  0.00    +0.000 A 
ATOM     30  C   UNL     1       5.171   3.663  14.054  0.00  0.00    +0.000 A 
ATOM     31  C   UNL     1       5.996   4.252  15.002  0.00  0.00    +0.000 A 
ATOM     32  O   UNL     1       5.614   4.223  16.338  0.00  0.00    +0.000 OA
ENDBRANCH  22  23
BRANCH  22  33
ATOM     33  O   UNL     1       7.406   4.921  19.411  0.00  0.00    +0.000 OA
ATOM     34  H   UNL     1       7.146   4.610  20.296  0.00  0.00    +0.000 HD
ENDBRANCH  22  33
ENDBRANCH  21  22
ENDBRANCH   4  21
TORSDOF 6
ENDMDL
MODEL 2
REMARK VINA RESULT:      -8.4      1.885      9.669
REMARK  Name = 
REMARK  6 active torsions:
REMARK  status: ('A' for Active; 'I' for Inactive)
REMARK    1  A    between atoms: C_4  and  C_6
REMARK    2  A    between atoms: N_12  and  C_13
REMARK    3  A    between atoms: N_16  and  C_17
REMARK    4  A    between atoms: C_17  and  C_18
REMARK    5  A    between atoms: C_18  and  O_19
REMARK    6  A    between atoms: C_18  and  C_20
REMARK                            x       y       z     vdW  Elec       q    Type
REMARK                         _______ _______ _______ _____ _____    ______ ____
ROOT
ATOM      1  C   UNL     1       3.166   5.291  18.631  0.00  0.00    +0.000 C 
ATOM      2  C   UNL     1       2.853   6.743  18.246  0.00  0.00    +0.000 C 
ATOM      3  C   UNL     1       2.553   7.658  19.446  0.00  0.00    +0.000 C 
ATOM      4  N   UNL     1       1.496   7.112  20.310  0.00  0.00    +0.000 NA
ATOM      5  C   UNL     1       1.889   5.779  20.798  0.00  0.00    +0.000 C 
ATOM      6  C   UNL     1       2.144   4.787  19.652  0.00  0.00    +0.000 C 
ENDROOT
BRANCH   1  12
ATOM      7  O   UNL     1       6.701   4.724  19.254  0.00  0.00    +0.000 OA
ATOM      8  C   UNL     1       5.724   4.850  18.506  0.00  0.00    +0.000 C 
ATOM      9  N   UNL     1       5.716   4.693  17.146  0.00  0.00    +0.000 N 
ATOM     10  C   UNL     1       6.878   4.503  16.400  0.00  0.00    +0.000 C 
ATOM     11  O   UNL     1       8.033   4.454  16.841  0.00  0.00    +0.000 OA
ATOM     12  N   UNL     1       4.540   5.156  19.117  0.00  0.00    +0.000 N 
ATOM     13  H   UNL     1       4.858   4.855  16.666  0.00  0.00    +0.000 HD
ATOM     14  H   UNL     1       4.682   5.195  20.121  0.00  0.00    +0.000 HD
BRANCH  10  15
ATOM     15  C   UNL     1       6.724   4.362  14.917  0.00  0.00    +0.000 A 
ATOM     16  C   UNL     1       5.604   3.683  14.416  0.00  0.00    +0.000 A 
ATOM     17  C   UNL     1       5.396   3.553  13.047  0.00  0.00    +0.000 A 
ATOM     18  C   UNL     1       6.306   4.108  12.149  0.00  0.00    +0.000 A 
ATOM     19  C   UNL     1       7.414   4.805  12.631  0.00  0.00    +0.000 A 
ATOM     20  C   UNL     1       7.631   4.935  14.004  0.00  0.00    +0.000 A 
ENDBRANCH  10  15
ENDBRANCH   1  12
BRANCH   4  21
ATOM     21  C   UNL     1       1.144   8.023  21.450  0.00  0.00    +0.000 C 
BRANCH  21  22
ATOM     22  C   UNL     1      -0.232   8.733  21.317  0.00  0.00    +0.000 C 
BRANCH  22  23
ATOM     23  C   UNL     1      -0.261  10.131  20.650  0.00  0.00    +0.000 C 
ATOM     24  C   UNL     1      -0.526  10.141  19.150  0.00  0.00    +0.000 C 
ATOM     25  O   UNL     1      -1.109  11.440  18.879  0.00  0.00    +0.000 OA
ATOM     26  C   UNL     1      -0.235  12.416  19.318  0.00  0.00    +0.000 A 
ATOM     27  C   UNL     1      -0.410  13.705  18.825  0.00  0.00    +0.000 A 
ATOM     28  C   UNL     1       0.651  14.601  18.907  0.00  0.00    +0.000 A 
ATOM     29  C   UNL     1       1.864  14.189  19.468  0.00  0.00    +0.000 A 
ATOM     30  C   UNL     1       1.959  12.954  20.122  0.00  0.00    +0.000 A 
ATOM     31  C   UNL     1       0.872  12.092  20.120  0.00  0.00    +0.000 A 
ATOM     32  O   UNL     1       0.953  10.904  20.836  0.00  0.00    +0.000 OA
ENDBRANCH  22  23
BRANCH  22  33
ATOM     33  O   UNL     1      -0.822   8.869  22.627  0.00  0.00    +0.000 OA
ATOM     34  H   UNL     1      -1.107   7.982  22.907  0.00  0.00    +0.000 HD
ENDBRANCH  22  33
ENDBRANCH  21  22
ENDBRANCH   4  21
TORSDOF 6
ENDMDL
MODEL 3
REMARK VINA RESULT:      -8.2      1.395      2.003
REMARK  Name = 
REMARK  6 active torsions:
REMARK  status: ('A' for Active; 'I' for Inactive)
REMARK    1  A    between atoms: C_4  and  C_6
REMARK    2  A    between atoms: N_12  and  C_13
REMARK    3  A    between atoms: N_16  and  C_17
REMARK    4  A    between atoms: C_17  and  C_18
REMARK    5  A    between atoms: C_18  and  O_19
REMARK    6  A    between atoms: C_18  and  C_20
REMARK                            x       y       z     vdW  Elec       q    Type
REMARK                         _______ _______ _______ _____ _____    ______ ____
ROOT
ATOM      1  C   UNL     1       1.836   7.569  18.358  0.00  0.00    +0.000 C 
ATOM      2  C   UNL     1       1.945   6.146  18.920  0.00  0.00    +0.000 C 
ATOM      3  C   UNL     1       3.352   5.776  19.418  0.00  0.00    +0.000 C 
ATOM      4  N   UNL     1       4.382   6.007  18.395  0.00  0.00    +0.000 NA
ATOM      5  C   UNL     1       4.366   7.421  17.981  0.00  0.00    +0.000 C 
ATOM      6  C   UNL     1       3.004   7.849  17.410  0.00  0.00    +0.000 C 
ENDROOT
BRANCH   1  12
ATOM      7  O   UNL     1       1.185  10.310  20.653  0.00  0.00    +0.000 OA
ATOM      8  C   UNL     1       0.902   9.603  19.678  0.00  0.00    +0.000 C 
ATOM      9  N   UNL     1      -0.155   9.778  18.827  0.00  0.00    +0.000 N 
ATOM     10  C   UNL     1      -1.153  10.727  19.044  0.00  0.00    +0.000 C 
ATOM     11  O   UNL     1      -1.224  11.510  20.000  0.00  0.00    +0.000 OA
ATOM     12  N   UNL     1       1.750   8.560  19.432  0.00  0.00    +0.000 N 
ATOM     13  H   UNL     1      -0.279   9.111  18.098  0.00  0.00    +0.000 HD
ATOM     14  H   UNL     1       2.508   8.577  20.107  0.00  0.00    +0.000 HD
BRANCH  10  15
ATOM     15  C   UNL     1      -2.260  10.800  18.039  0.00  0.00    +0.000 A 
ATOM     16  C   UNL     1      -3.414  11.530  18.358  0.00  0.00    +0.000 A 
ATOM     17  C   UNL     1      -4.458  11.657  17.448  0.00  0.00    +0.000 A 
ATOM     18  C   UNL     1      -4.365  11.058  16.194  0.00  0.00    +0.000 A 
ATOM     19  C   UNL     1      -3.215  10.345  15.853  0.00  0.00    +0.000 A 
ATOM     20  C   UNL     1      -2.165  10.210  16.763  0.00  0.00    +0.000 A 
ENDBRANCH  10  15
ENDBRANCH   1  12
BRANCH   4  21
ATOM     21  C   UNL     1       5.753   5.590  18.839  0.00  0.00    +0.000 C 
BRANCH  21  22
ATOM     22  C   UNL     1       6.306   4.316  18.142  0.00  0.00    +0.000 C 
BRANCH  22  23
ATOM     23  C   UNL     1       6.714   4.428  16.652  0.00  0.00    +0.000 C 
ATOM     24  C   UNL     1       6.841   5.845  16.107  0.00  0.00    +0.000 C 
ATOM     25  O   UNL     1       7.776   5.742  15.004  0.00  0.00    +0.000 OA
ATOM     26  C   UNL     1       7.291   4.817  14.100  0.00  0.00    +0.000 A 
ATOM     27  C   UNL     1       7.817   4.839  12.812  0.00  0.00    +0.000 A 
ATOM     28  C   UNL     1       7.099   4.230  11.787  0.00  0.00    +0.000 A 
ATOM     29  C   UNL     1       5.870   3.624  12.067  0.00  0.00    +0.000 A 
ATOM     30  C   UNL     1       5.449   3.452  13.392  0.00  0.00    +0.000 A 
ATOM     31  C   UNL     1       6.209   3.981  14.426  0.00  0.00    +0.000 A 
ATOM     32  O   UNL     1       5.822   3.738  15.738  0.00  0.00    +0.000 OA
ENDBRANCH  22  23
BRANCH  22  33
ATOM     33  O   UNL     1       5.327   3.261  18.241  0.00  0.00    +0.000 OA
ATOM     34  H   UNL     1       4.559   3.624  18.716  0.00  0.00    +0.000 HD
ENDBRANCH  22  33
ENDBRANCH  21  22
ENDBRANCH   4  21
TORSDOF 6
ENDMDL
MODEL 4
REMARK VINA RESULT:      -8.1      1.713     10.602
REMARK  Name = 
REMARK  6 active torsions:
REMARK  status: ('A' for Active; 'I' for Inactive)
REMARK    1  A    between atoms: C_4  and  C_6
REMARK    2  A    between atoms: N_12  and  C_13
REMARK    3  A    between atoms: N_16  and  C_17
REMARK    4  A    between atoms: C_17  and  C_18
REMARK    5  A    between atoms: C_18  and  O_19
REMARK    6  A    between atoms: C_18  and  C_20
REMARK                            x       y       z     vdW  Elec       q    Type
REMARK                         _______ _______ _______ _____ _____    ______ ____
ROOT
ATOM      1  C   UNL     1       3.169   5.306  18.430  0.00  0.00    +0.000 C 
ATOM      2  C   UNL     1       3.003   6.731  17.887  0.00  0.00    +0.000 C 
ATOM      3  C   UNL     1       2.781   7.795  18.975  0.00  0.00    +0.000 C 
ATOM      4  N   UNL     1       1.666   7.449  19.870  0.00  0.00    +0.000 NA
ATOM      5  C   UNL     1       1.921   6.144  20.505  0.00  0.00    +0.000 C 
ATOM      6  C   UNL     1       2.090   5.015  19.475  0.00  0.00    +0.000 C 
ENDROOT
BRANCH   1  12
ATOM      7  O   UNL     1       6.654   4.569  19.150  0.00  0.00    +0.000 OA
ATOM      8  C   UNL     1       5.711   4.769  18.374  0.00  0.00    +0.000 C 
ATOM      9  N   UNL     1       5.748   4.680  17.009  0.00  0.00    +0.000 N 
ATOM     10  C   UNL     1       6.929   4.479  16.295  0.00  0.00    +0.000 C 
ATOM     11  O   UNL     1       8.064   4.363  16.775  0.00  0.00    +0.000 OA
ATOM     12  N   UNL     1       4.517   5.093  18.957  0.00  0.00    +0.000 N 
ATOM     13  H   UNL     1       4.916   4.899  16.507  0.00  0.00    +0.000 HD
ATOM     14  H   UNL     1       4.623   5.077  19.966  0.00  0.00    +0.000 HD
BRANCH  10  15
ATOM     15  C   UNL     1       6.826   4.418  14.803  0.00  0.00    +0.000 A 
ATOM     16  C   UNL     1       7.746   5.143  14.033  0.00  0.00    +0.000 A 
ATOM     17  C   UNL     1       7.716   5.094  12.643  0.00  0.00    +0.000 A 
ATOM     18  C   UNL     1       6.763   4.310  11.995  0.00  0.00    +0.000 A 
ATOM     19  C   UNL     1       5.854   3.566  12.747  0.00  0.00    +0.000 A 
ATOM     20  C   UNL     1       5.876   3.614  14.142  0.00  0.00    +0.000 A 
ENDBRANCH  10  15
ENDBRANCH   1  12
BRANCH   4  21
ATOM     21  C   UNL     1       1.391   8.507  20.898  0.00  0.00    +0.000 C 
BRANCH  21  22
ATOM     22  C   UNL     1      -0.082   8.998  20.953  0.00  0.00    +0.000 C 
BRANCH  22  23
ATOM     23  C   UNL     1      -0.345  10.440  21.455  0.00  0.00    +0.000 C 
ATOM     24  C   UNL     1      -0.968  10.552  22.841  0.00  0.00    +0.000 C 
ATOM     25  O   UNL     1      -0.558  11.852  23.333  0.00  0.00    +0.000 OA
ATOM     26  C   UNL     1      -0.973  12.815  22.433  0.00  0.00    +0.000 A 
ATOM     27  C   UNL     1      -1.026  14.132  22.880  0.00  0.00    +0.000 A 
ATOM     28  C   UNL     1      -1.800  15.047  22.172  0.00  0.00    +0.000 A 
ATOM     29  C   UNL     1      -2.511  14.625  21.044  0.00  0.00    +0.000 A 
ATOM     30  C   UNL     1      -2.299  13.348  20.507  0.00  0.00    +0.000 A 
ATOM     31  C   UNL     1      -1.456  12.462  21.163  0.00  0.00    +0.000 A 
ATOM     32  O   UNL     1      -1.194  11.228  20.581  0.00  0.00    +0.000 OA
ENDBRANCH  22  23
BRANCH  22  33
ATOM     33  O   UNL     1      -0.847   8.106  21.790  0.00  0.00    +0.000 OA
ATOM     34  H   UNL     1      -0.789   7.219  21.394  0.00  0.00    +0.000 HD
ENDBRANCH  22  33
ENDBRANCH  21  22
ENDBRANCH   4  21
TORSDOF 6
ENDMDL
MODEL 5
REMARK VINA RESULT:      -8.1      1.180      1.361
REMARK  Name = 
REMARK  6 active torsions:
REMARK  status: ('A' for Active; 'I' for Inactive)
REMARK    1  A    between atoms: C_4  and  C_6
REMARK    2  A    between atoms: N_12  and  C_13
REMARK    3  A    between atoms: N_16  and  C_17
REMARK    4  A    between atoms: C_17  and  C_18
REMARK    5  A    between atoms: C_18  and  O_19
REMARK    6  A    between atoms: C_18  and  C_20
REMARK                            x       y       z     vdW  Elec       q    Type
REMARK                         _______ _______ _______ _____ _____    ______ ____
ROOT
ATOM      1  C   UNL     1       1.453   7.097  19.426  0.00  0.00    +0.000 C 
ATOM      2  C   UNL     1       1.852   5.782  20.107  0.00  0.00    +0.000 C 
ATOM      3  C   UNL     1       3.371   5.559  20.199  0.00  0.00    +0.000 C 
ATOM      4  N   UNL     1       4.031   5.685  18.891  0.00  0.00    +0.000 NA
ATOM      5  C   UNL     1       3.765   7.019  18.324  0.00  0.00    +0.000 C 
ATOM      6  C   UNL     1       2.262   7.289  18.141  0.00  0.00    +0.000 C 
ENDROOT
BRANCH   1  12
ATOM      7  O   UNL     1       1.410  10.216  21.290  0.00  0.00    +0.000 OA
ATOM      8  C   UNL     1       0.961   9.439  20.438  0.00  0.00    +0.000 C 
ATOM      9  N   UNL     1      -0.081   9.682  19.585  0.00  0.00    +0.000 N 
ATOM     10  C   UNL     1      -0.880  10.822  19.671  0.00  0.00    +0.000 C 
ATOM     11  O   UNL     1      -0.767  11.735  20.499  0.00  0.00    +0.000 OA
ATOM     12  N   UNL     1       1.595   8.232  20.339  0.00  0.00    +0.000 N 
ATOM     13  H   UNL     1      -0.355   8.951  18.967  0.00  0.00    +0.000 HD
ATOM     14  H   UNL     1       2.371   8.207  20.993  0.00  0.00    +0.000 HD
BRANCH  10  15
ATOM     15  C   UNL     1      -1.997  10.952  18.683  0.00  0.00    +0.000 A 
ATOM     16  C   UNL     1      -1.957  10.180  17.513  0.00  0.00    +0.000 A 
ATOM     17  C   UNL     1      -2.986  10.238  16.579  0.00  0.00    +0.000 A 
ATOM     18  C   UNL     1      -4.082  11.069  16.801  0.00  0.00    +0.000 A 
ATOM     19  C   UNL     1      -4.147  11.828  17.970  0.00  0.00    +0.000 A 
ATOM     20  C   UNL     1      -3.116  11.778  18.910  0.00  0.00    +0.000 A 
ENDBRANCH  10  15
ENDBRANCH   1  12
BRANCH   4  21
ATOM     21  C   UNL     1       5.505   5.407  18.949  0.00  0.00    +0.000 C 
BRANCH  21  22
ATOM     22  C   UNL     1       5.964   4.151  18.159  0.00  0.00    +0.000 C 
BRANCH  22  23
ATOM     23  C   UNL     1       6.489   4.357  16.716  0.00  0.00    +0.000 C 
ATOM     24  C   UNL     1       6.529   5.800  16.229  0.00  0.00    +0.000 C 
ATOM     25  O   UNL     1       7.563   5.825  15.213  0.00  0.00    +0.000 OA
ATOM     26  C   UNL     1       7.247   4.896  14.240  0.00  0.00    +0.000 A 
ATOM     27  C   UNL     1       7.880   5.015  13.007  0.00  0.00    +0.000 A 
ATOM     28  C   UNL     1       7.314   4.385  11.902  0.00  0.00    +0.000 A 
ATOM     29  C   UNL     1       6.127   3.660  12.051  0.00  0.00    +0.000 A 
ATOM     30  C   UNL     1       5.610   3.399  13.327  0.00  0.00    +0.000 A 
ATOM     31  C   UNL     1       6.224   3.954  14.441  0.00  0.00    +0.000 A 
ATOM     32  O   UNL     1       5.748   3.626  15.704  0.00  0.00    +0.000 OA
ENDBRANCH  22  23
BRANCH  22  33
ATOM     33  O   UNL     1       4.871   3.212  18.088  0.00  0.00    +0.000 OA
ATOM     34  H   UNL     1       4.726   2.871  18.988  0.00  0.00    +0.000 HD
ENDBRANCH  22  33
ENDBRANCH  21  22
ENDBRANCH   4  21
TORSDOF 6
ENDMDL
MODEL 6
REMARK VINA RESULT:      -8.1      0.798      1.053
REMARK  Name = 
REMARK  6 active torsions:
REMARK  status: ('A' for Active; 'I' for Inactive)
REMARK    1  A    between atoms: C_4  and  C_6
REMARK    2  A    between atoms: N_12  and  C_13
REMARK    3  A    between atoms: N_16  and  C_17
REMARK    4  A    between atoms: C_17  and  C_18
REMARK    5  A    between atoms: C_18  and  O_19
REMARK    6  A    between atoms: C_18  and  C_20
REMARK                            x       y       z     vdW  Elec       q    Type
REMARK                         _______ _______ _______ _____ _____    ______ ____
ROOT
ATOM      1  C   UNL     1       1.299   5.763  20.041  0.00  0.00    +0.000 C 
ATOM      2  C   UNL     1       1.587   4.325  20.489  0.00  0.00    +0.000 C 
ATOM      3  C   UNL     1       3.068   3.921  20.386  0.00  0.00    +0.000 C 
ATOM      4  N   UNL     1       3.618   4.164  19.044  0.00  0.00    +0.000 NA
ATOM      5  C   UNL     1       3.474   5.589  18.696  0.00  0.00    +0.000 C 
ATOM      6  C   UNL     1       2.007   6.051  18.715  0.00  0.00    +0.000 C 
ENDROOT
BRANCH   1  12
ATOM      7  O   UNL     1       1.996   8.595  22.209  0.00  0.00    +0.000 OA
ATOM      8  C   UNL     1       1.450   8.068  21.233  0.00  0.00    +0.000 C 
ATOM      9  N   UNL     1       0.676   8.698  20.296  0.00  0.00    +0.000 N 
ATOM     10  C   UNL     1       0.284  10.031  20.410  0.00  0.00    +0.000 C 
ATOM     11  O   UNL     1       0.565  10.800  21.337  0.00  0.00    +0.000 OA
ATOM     12  N   UNL     1       1.666   6.727  21.080  0.00  0.00    +0.000 N 
ATOM     13  H   UNL     1       0.273   8.140  19.576  0.00  0.00    +0.000 HD
ATOM     14  H   UNL     1       2.289   6.403  21.813  0.00  0.00    +0.000 HD
BRANCH  10  15
ATOM     15  C   UNL     1      -0.576  10.588  19.319  0.00  0.00    +0.000 A 
ATOM     16  C   UNL     1      -0.478  11.953  19.013  0.00  0.00    +0.000 A 
ATOM     17  C   UNL     1      -1.230  12.515  17.986  0.00  0.00    +0.000 A 
ATOM     18  C   UNL     1      -2.094  11.717  17.240  0.00  0.00    +0.000 A 
ATOM     19  C   UNL     1      -2.188  10.353  17.518  0.00  0.00    +0.000 A 
ATOM     20  C   UNL     1      -1.439   9.784  18.550  0.00  0.00    +0.000 A 
ENDBRANCH  10  15
ENDBRANCH   1  12
BRANCH   4  21
ATOM     21  C   UNL     1       5.043   3.715  18.905  0.00  0.00    +0.000 C 
BRANCH  21  22
ATOM     22  C   UNL     1       6.026   4.809  18.406  0.00  0.00    +0.000 C 
BRANCH  22  23
ATOM     23  C   UNL     1       6.487   4.746  16.928  0.00  0.00    +0.000 C 
ATOM     24  C   UNL     1       6.729   6.092  16.256  0.00  0.00    +0.000 C 
ATOM     25  O   UNL     1       7.689   5.819  15.204  0.00  0.00    +0.000 OA
ATOM     26  C   UNL     1       7.168   4.844  14.375  0.00  0.00    +0.000 A 
ATOM     27  C   UNL     1       7.735   4.704  13.111  0.00  0.00    +0.000 A 
ATOM     28  C   UNL     1       7.008   4.047  12.122  0.00  0.00    +0.000 A 
ATOM     29  C   UNL     1       5.732   3.554  12.413  0.00  0.00    +0.000 A 
ATOM     30  C   UNL     1       5.259   3.541  13.732  0.00  0.00    +0.000 A 
ATOM     31  C   UNL     1       6.022   4.118  14.738  0.00  0.00    +0.000 A 
ATOM     32  O   UNL     1       5.578   4.031  16.052  0.00  0.00    +0.000 OA
ENDBRANCH  22  23
BRANCH  22  33
ATOM     33  O   UNL     1       7.212   4.789  19.227  0.00  0.00    +0.000 OA
ATOM     34  H   UNL     1       7.302   3.886  19.581  0.00  0.00    +0.000 HD
ENDBRANCH  22  33
ENDBRANCH  21  22
ENDBRANCH   4  21
TORSDOF 6
ENDMDL
MODEL 7
REMARK VINA RESULT:      -8.0      4.690      9.720
REMARK  Name = 
REMARK  6 active torsions:
REMARK  status: ('A' for Active; 'I' for Inactive)
REMARK    1  A    between atoms: C_4  and  C_6
REMARK    2  A    between atoms: N_12  and  C_13
REMARK    3  A    between atoms: N_16  and  C_17
REMARK    4  A    between atoms: C_17  and  C_18
REMARK    5  A    between atoms: C_18  and  O_19
REMARK    6  A    between atoms: C_18  and  C_20
REMARK                            x       y       z     vdW  Elec       q    Type
REMARK                         _______ _______ _______ _____ _____    ______ ____
ROOT
ATOM      1  C   UNL     1      -0.205  10.176  18.821  0.00  0.00    +0.000 C 
ATOM      2  C   UNL     1      -1.195  11.092  18.090  0.00  0.00    +0.000 C 
ATOM      3  C   UNL     1      -0.960  12.592  18.339  0.00  0.00    +0.000 C 
ATOM      4  N   UNL     1      -0.915  12.917  19.772  0.00  0.00    +0.000 NA
ATOM      5  C   UNL     1       0.152  12.140  20.427  0.00  0.00    +0.000 C 
ATOM      6  C   UNL     1      -0.052  10.623  20.276  0.00  0.00    +0.000 C 
ENDROOT
BRANCH   1  12
ATOM      7  O   UNL     1       3.053   9.469  17.375  0.00  0.00    +0.000 OA
ATOM      8  C   UNL     1       2.011   9.133  17.952  0.00  0.00    +0.000 C 
ATOM      9  N   UNL     1       1.717   7.890  18.443  0.00  0.00    +0.000 N 
ATOM     10  C   UNL     1       2.528   6.778  18.221  0.00  0.00    +0.000 C 
ATOM     11  O   UNL     1       3.582   6.757  17.573  0.00  0.00    +0.000 OA
ATOM     12  N   UNL     1       1.081  10.120  18.125  0.00  0.00    +0.000 N 
ATOM     13  H   UNL     1       0.823   7.755  18.860  0.00  0.00    +0.000 HD
ATOM     14  H   UNL     1       1.447  10.993  17.758  0.00  0.00    +0.000 HD
BRANCH  10  15
ATOM     15  C   UNL     1       2.078   5.474  18.802  0.00  0.00    +0.000 A 
ATOM     16  C   UNL     1       1.947   5.365  20.194  0.00  0.00    +0.000 A 
ATOM     17  C   UNL     1       1.501   4.188  20.784  0.00  0.00    +0.000 A 
ATOM     18  C   UNL     1       1.169   3.093  19.988  0.00  0.00    +0.000 A 
ATOM     19  C   UNL     1       1.274   3.191  18.601  0.00  0.00    +0.000 A 
ATOM     20  C   UNL     1       1.726   4.369  18.002  0.00  0.00    +0.000 A 
ENDBRANCH  10  15
ENDBRANCH   1  12
BRANCH   4  21
ATOM     21  C   UNL     1      -0.752  14.386  20.034  0.00  0.00    +0.000 C 
BRANCH  21  22
ATOM     22  C   UNL     1      -0.171  15.200  18.845  0.00  0.00    +0.000 C 
BRANCH  22  23
ATOM     23  C   UNL     1       1.308  15.652  18.932  0.00  0.00    +0.000 C 
ATOM     24  C   UNL     1       1.642  16.959  18.223  0.00  0.00    +0.000 C 
ATOM     25  O   UNL     1       2.804  17.477  18.917  0.00  0.00    +0.000 OA
ATOM     26  C   UNL     1       3.804  16.525  18.874  0.00  0.00    +0.000 A 
ATOM     27  C   UNL     1       5.105  16.946  19.134  0.00  0.00    +0.000 A 
ATOM     28  C   UNL     1       6.163  16.145  18.713  0.00  0.00    +0.000 A 
ATOM     29  C   UNL     1       5.900  14.951  18.035  0.00  0.00    +0.000 A 
ATOM     30  C   UNL     1       4.592  14.457  17.947  0.00  0.00    +0.000 A 
ATOM     31  C   UNL     1       3.540  15.213  18.446  0.00  0.00    +0.000 A 
ATOM     32  O   UNL     1       2.258  14.679  18.423  0.00  0.00    +0.000 OA
ENDBRANCH  22  23
BRANCH  22  33
ATOM     33  O   UNL     1      -0.971  16.386  18.649  0.00  0.00    +0.000 OA
ATOM     34  H   UNL     1      -1.398  16.303  17.779  0.00  0.00    +0.000 HD
ENDBRANCH  22  33
ENDBRANCH  21  22
ENDBRANCH   4  21
TORSDOF 6
ENDMDL
MODEL 8
REMARK VINA RESULT:      -8.0      1.891      9.534
REMARK  Name = 
REMARK  6 active torsions:
REMARK  status: ('A' for Active; 'I' for Inactive)
REMARK    1  A    between atoms: C_4  and  C_6
REMARK    2  A    between atoms: N_12  and  C_13
REMARK    3  A    between atoms: N_16  and  C_17
REMARK    4  A    between atoms: C_17  and  C_18
REMARK    5  A    between atoms: C_18  and  O_19
REMARK    6  A    between atoms: C_18  and  C_20
REMARK                            x       y       z     vdW  Elec       q    Type
REMARK                         _______ _______ _______ _____ _____    ______ ____
ROOT
ATOM      1  C   UNL     1       2.951   5.557  19.155  0.00  0.00    +0.000 C 
ATOM      2  C   UNL     1       2.928   6.053  17.704  0.00  0.00    +0.000 C 
ATOM      3  C   UNL     1       3.041   7.580  17.562  0.00  0.00    +0.000 C 
ATOM      4  N   UNL     1       2.035   8.288  18.366  0.00  0.00    +0.000 NA
ATOM      5  C   UNL     1       2.178   7.917  19.785  0.00  0.00    +0.000 C 
ATOM      6  C   UNL     1       2.012   6.406  20.014  0.00  0.00    +0.000 C 
ENDROOT
BRANCH   1  12
ATOM      7  O   UNL     1       6.491   5.241  19.916  0.00  0.00    +0.000 OA
ATOM      8  C   UNL     1       5.532   5.256  19.133  0.00  0.00    +0.000 C 
ATOM      9  N   UNL     1       5.576   5.003  17.789  0.00  0.00    +0.000 N 
ATOM     10  C   UNL     1       6.770   4.827  17.091  0.00  0.00    +0.000 C 
ATOM     11  O   UNL     1       7.911   4.877  17.566  0.00  0.00    +0.000 OA
ATOM     12  N   UNL     1       4.314   5.536  19.687  0.00  0.00    +0.000 N 
ATOM     13  H   UNL     1       4.727   5.080  17.275  0.00  0.00    +0.000 HD
ATOM     14  H   UNL     1       4.422   5.655  20.690  0.00  0.00    +0.000 HD
BRANCH  10  15
ATOM     15  C   UNL     1       6.672   4.573  15.619  0.00  0.00    +0.000 A 
ATOM     16  C   UNL     1       5.594   3.818  15.134  0.00  0.00    +0.000 A 
ATOM     17  C   UNL     1       5.437   3.581  13.773  0.00  0.00    +0.000 A 
ATOM     18  C   UNL     1       6.357   4.101  12.865  0.00  0.00    +0.000 A 
ATOM     19  C   UNL     1       7.424   4.873  13.329  0.00  0.00    +0.000 A 
ATOM     20  C   UNL     1       7.589   5.111  14.695  0.00  0.00    +0.000 A 
ENDBRANCH  10  15
ENDBRANCH   1  12
BRANCH   4  21
ATOM     21  C   UNL     1       2.087   9.778  18.190  0.00  0.00    +0.000 C 
BRANCH  21  22
ATOM     22  C   UNL     1       1.192  10.583  19.171  0.00  0.00    +0.000 C 
BRANCH  22  23
ATOM     23  C   UNL     1      -0.249  10.928  18.717  0.00  0.00    +0.000 C 
ATOM     24  C   UNL     1      -1.339  10.708  19.759  0.00  0.00    +0.000 C 
ATOM     25  O   UNL     1      -2.402  11.622  19.390  0.00  0.00    +0.000 OA
ATOM     26  C   UNL     1      -2.783  11.352  18.089  0.00  0.00    +0.000 A 
ATOM     27  C   UNL     1      -4.017  11.836  17.667  0.00  0.00    +0.000 A 
ATOM     28  C   UNL     1      -4.611  11.264  16.546  0.00  0.00    +0.000 A 
ATOM     29  C   UNL     1      -3.967  10.218  15.879  0.00  0.00    +0.000 A 
ATOM     30  C   UNL     1      -2.649   9.872  16.206  0.00  0.00    +0.000 A 
ATOM     31  C   UNL     1      -2.020  10.504  17.270  0.00  0.00    +0.000 A 
ATOM     32  O   UNL     1      -0.689  10.208  17.536  0.00  0.00    +0.000 OA
ENDBRANCH  22  23
BRANCH  22  33
ATOM     33  O   UNL     1       1.848  11.826  19.498  0.00  0.00    +0.000 OA
ATOM     34  H   UNL     1       1.831  12.379  18.697  0.00  0.00    +0.000 HD
ENDBRANCH  22  33
ENDBRANCH  21  22
ENDBRANCH   4  21
TORSDOF 6
ENDMDL
MODEL 9
REMARK VINA RESULT:      -7.9      3.131     11.489
REMARK  Name = 
REMARK  6 active torsions:
REMARK  status: ('A' for Active; 'I' for Inactive)
REMARK    1  A    between atoms: C_4  and  C_6
REMARK    2  A    between atoms: N_12  and  C_13
REMARK    3  A    between atoms: N_16  and  C_17
REMARK    4  A    between atoms: C_17  and  C_18
REMARK    5  A    between atoms: C_18  and  O_19
REMARK    6  A    between atoms: C_18  and  C_20
REMARK                            x       y       z     vdW  Elec       q    Type
REMARK                         _______ _______ _______ _____ _____    ______ ____
ROOT
ATOM      1  C   UNL     1       0.916  10.052  18.629  0.00  0.00    +0.000 C 
ATOM      2  C   UNL     1       1.601  11.399  18.895  0.00  0.00    +0.000 C 
ATOM      3  C   UNL     1       0.780  12.356  19.776  0.00  0.00    +0.000 C 
ATOM      4  N   UNL     1      -0.580  12.561  19.256  0.00  0.00    +0.000 NA
ATOM      5  C   UNL     1      -1.278  11.267  19.157  0.00  0.00    +0.000 C 
ATOM      6  C   UNL     1      -0.546  10.276  18.237  0.00  0.00    +0.000 C 
ENDROOT
BRANCH   1  12
ATOM      7  O   UNL     1       1.491   7.414  21.061  0.00  0.00    +0.000 OA
ATOM      8  C   UNL     1       1.670   7.953  19.962  0.00  0.00    +0.000 C 
ATOM      9  N   UNL     1       2.409   7.454  18.923  0.00  0.00    +0.000 N 
ATOM     10  C   UNL     1       3.189   6.304  19.032  0.00  0.00    +0.000 C 
ATOM     11  O   UNL     1       3.321   5.602  20.042  0.00  0.00    +0.000 OA
ATOM     12  N   UNL     1       1.045   9.155  19.778  0.00  0.00    +0.000 N 
ATOM     13  H   UNL     1       2.491   8.013  18.103  0.00  0.00    +0.000 HD
ATOM     14  H   UNL     1       0.499   9.378  20.604  0.00  0.00    +0.000 HD
BRANCH  10  15
ATOM     15  C   UNL     1       3.960   5.881  17.821  0.00  0.00    +0.000 A 
ATOM     16  C   UNL     1       4.016   4.517  17.498  0.00  0.00    +0.000 A 
ATOM     17  C   UNL     1       4.690   4.074  16.366  0.00  0.00    +0.000 A 
ATOM     18  C   UNL     1       5.319   4.991  15.527  0.00  0.00    +0.000 A 
ATOM     19  C   UNL     1       5.256   6.354  15.822  0.00  0.00    +0.000 A 
ATOM     20  C   UNL     1       4.584   6.805  16.960  0.00  0.00    +0.000 A 
ENDBRANCH  10  15
ENDBRANCH   1  12
BRANCH   4  21
ATOM     21  C   UNL     1      -1.375  13.543  20.066  0.00  0.00    +0.000 C 
BRANCH  21  22
ATOM     22  C   UNL     1      -1.488  13.203  21.577  0.00  0.00    +0.000 C 
BRANCH  22  23
ATOM     23  C   UNL     1      -2.902  13.177  22.208  0.00  0.00    +0.000 C 
ATOM     24  C   UNL     1      -3.077  12.238  23.396  0.00  0.00    +0.000 C 
ATOM     25  O   UNL     1      -4.169  12.803  24.164  0.00  0.00    +0.000 OA
ATOM     26  C   UNL     1      -5.276  12.911  23.344  0.00  0.00    +0.000 A 
ATOM     27  C   UNL     1      -6.516  13.064  23.956  0.00  0.00    +0.000 A 
ATOM     28  C   UNL     1      -7.663  12.772  23.223  0.00  0.00    +0.000 A 
ATOM     29  C   UNL     1      -7.546  12.324  21.904  0.00  0.00    +0.000 A 
ATOM     30  C   UNL     1      -6.306  12.353  21.251  0.00  0.00    +0.000 A 
ATOM     31  C   UNL     1      -5.171  12.730  21.955  0.00  0.00    +0.000 A 
ATOM     32  O   UNL     1      -3.962  12.830  21.279  0.00  0.00    +0.000 OA
ENDBRANCH  22  23
BRANCH  22  33
ATOM     33  O   UNL     1      -0.697  14.143  22.334  0.00  0.00    +0.000 OA
ATOM     34  H   UNL     1       0.145  14.258  21.860  0.00  0.00    +0.000 HD
ENDBRANCH  22  33
ENDBRANCH  21  22
ENDBRANCH   4  21
TORSDOF 6
ENDMDL
