MODEL 1
REMARK VINA RESULT:      -9.1      0.000      0.000
REMARK  Name = 
REMARK  4 active torsions:
REMARK  status: ('A' for Active; 'I' for Inactive)
REMARK    1  A    between atoms: C_1  and  N_2
REMARK    2  A    between atoms: N_8  and  C_9
REMARK    3  A    between atoms: C_24  and  C_25
REMARK    4  A    between atoms: C_24  and  C_26
REMARK                            x       y       z     vdW  Elec       q    Type
REMARK                         _______ _______ _______ _____ _____    ______ ____
ROOT
ATOM      1  C   UNL     1       7.840   7.771  17.166  0.00  0.00    +0.000 C 
ATOM      2  N   UNL     1       6.976   6.831  17.877  0.00  0.00    +0.000 NA
ATOM      3  C   UNL     1       7.109   5.492  17.264  0.00  0.00    +0.000 C 
ATOM      4  C   UNL     1       6.430   4.433  18.133  0.00  0.00    +0.000 C 
ATOM      5  C   UNL     1       5.071   4.884  18.533  0.00  0.00    +0.000 A 
ATOM      6  C   UNL     1       4.044   4.132  19.102  0.00  0.00    +0.000 A 
ATOM      7  C   UNL     1       2.983   4.981  19.347  0.00  0.00    +0.000 A 
ATOM      8  N   UNL     1       3.328   6.290  18.905  0.00  0.00    +0.000 N 
ATOM      9  C   UNL     1       4.644   6.198  18.421  0.00  0.00    +0.000 A 
ATOM     10  C   UNL     1       5.556   7.283  17.900  0.00  0.00    +0.000 C 
ATOM     11  C   UNL     1       1.669   4.503  19.880  0.00  0.00    +0.000 C 
ATOM     12  C   UNL     1       1.599   2.970  20.230  0.00  0.00    +0.000 C 
ATOM     13  C   UNL     1       1.312   2.830  21.747  0.00  0.00    +0.000 C 
ATOM     14  C   UNL     1       0.407   2.345  19.470  0.00  0.00    +0.000 C 
ATOM     15  C   UNL     1       2.830   2.076  19.935  0.00  0.00    +0.000 C 
ATOM     16  C   UNL     1       4.064   2.717  19.383  0.00  0.00    +0.000 C 
ATOM     17  O   UNL     1       5.060   2.019  19.168  0.00  0.00    +0.000 OA
ENDROOT
BRANCH   8  18
ATOM     18  C   UNL     1       2.491   7.475  18.910  0.00  0.00    +0.000 A 
ATOM     19  C   UNL     1       2.351   8.261  17.753  0.00  0.00    +0.000 A 
ATOM     20  C   UNL     1       1.486   9.367  17.717  0.00  0.00    +0.000 A 
ATOM     21  C   UNL     1       0.770   9.729  18.856  0.00  0.00    +0.000 A 
ATOM     22  C   UNL     1       0.922   9.008  20.046  0.00  0.00    +0.000 A 
ATOM     23  C   UNL     1       1.771   7.875  20.052  0.00  0.00    +0.000 A 
ATOM     24  C   UNL     1       0.161   9.404  21.296  0.00  0.00    +0.000 C 
ATOM     25  C   UNL     1       0.455  10.842  21.751  0.00  0.00    +0.000 C 
ATOM     26  C   UNL     1      -0.296  11.909  20.945  0.00  0.00    +0.000 C 
ATOM     27  N   UNL     1       0.101  11.940  19.549  0.00  0.00    +0.000 N 
ATOM     28  C   UNL     1      -0.211  10.834  18.782  0.00  0.00    +0.000 C 
ATOM     29  O   UNL     1      -1.233  10.720  18.116  0.00  0.00    +0.000 OA
ATOM     30  H   UNL     1       1.067  12.221  19.452  0.00  0.00    +0.000 HD
ENDBRANCH   8  18
TORSDOF 1
ENDMDL
MODEL 2
REMARK VINA RESULT:      -7.6      6.039     10.072
REMARK  Name = 
REMARK  4 active torsions:
REMARK  status: ('A' for Active; 'I' for Inactive)
REMARK    1  A    between atoms: C_1  and  N_2
REMARK    2  A    between atoms: N_8  and  C_9
REMARK    3  A    between atoms: C_24  and  C_25
REMARK    4  A    between atoms: C_24  and  C_26
REMARK                            x       y       z     vdW  Elec       q    Type
REMARK                         _______ _______ _______ _____ _____    ______ ____
ROOT
ATOM      1  C   UNL     1      -7.781  13.332  18.180  0.00  0.00    +0.000 C 
ATOM      2  N   UNL     1      -6.374  12.950  18.087  0.00  0.00    +0.000 NA
ATOM      3  C   UNL     1      -6.280  11.581  17.537  0.00  0.00    +0.000 C 
ATOM      4  C   UNL     1      -4.831  11.243  17.180  0.00  0.00    +0.000 C 
ATOM      5  C   UNL     1      -3.923  11.609  18.298  0.00  0.00    +0.000 A 
ATOM      6  C   UNL     1      -2.589  11.246  18.481  0.00  0.00    +0.000 A 
ATOM      7  C   UNL     1      -2.139  11.857  19.636  0.00  0.00    +0.000 A 
ATOM      8  N   UNL     1      -3.208  12.600  20.211  0.00  0.00    +0.000 N 
ATOM      9  C   UNL     1      -4.300  12.440  19.341  0.00  0.00    +0.000 A 
ATOM     10  C   UNL     1      -5.676  13.062  19.399  0.00  0.00    +0.000 C 
ATOM     11  C   UNL     1      -0.770  11.626  20.193  0.00  0.00    +0.000 C 
ATOM     12  C   UNL     1       0.166  10.702  19.327  0.00  0.00    +0.000 C 
ATOM     13  C   UNL     1       1.399  11.534  18.889  0.00  0.00    +0.000 C 
ATOM     14  C   UNL     1       0.675   9.545  20.216  0.00  0.00    +0.000 C 
ATOM     15  C   UNL     1      -0.403  10.055  18.038  0.00  0.00    +0.000 C 
ATOM     16  C   UNL     1      -1.806  10.381  17.634  0.00  0.00    +0.000 C 
ATOM     17  O   UNL     1      -2.261   9.892  16.595  0.00  0.00    +0.000 OA
ENDROOT
BRANCH   8  18
ATOM     18  C   UNL     1      -3.199  13.342  21.458  0.00  0.00    +0.000 A 
ATOM     19  C   UNL     1      -3.396  12.686  22.686  0.00  0.00    +0.000 A 
ATOM     20  C   UNL     1      -3.314  13.376  23.908  0.00  0.00    +0.000 A 
ATOM     21  C   UNL     1      -3.069  14.747  23.920  0.00  0.00    +0.000 A 
ATOM     22  C   UNL     1      -2.923  15.449  22.717  0.00  0.00    +0.000 A 
ATOM     23  C   UNL     1      -2.973  14.731  21.498  0.00  0.00    +0.000 A 
ATOM     24  C   UNL     1      -2.674  16.945  22.718  0.00  0.00    +0.000 C 
ATOM     25  C   UNL     1      -3.782  17.741  23.424  0.00  0.00    +0.000 C 
ATOM     26  C   UNL     1      -3.681  17.715  24.953  0.00  0.00    +0.000 C 
ATOM     27  N   UNL     1      -3.860  16.383  25.504  0.00  0.00    +0.000 N 
ATOM     28  C   UNL     1      -2.888  15.446  25.210  0.00  0.00    +0.000 C 
ATOM     29  O   UNL     1      -1.913  15.216  25.915  0.00  0.00    +0.000 OA
ATOM     30  H   UNL     1      -4.795  16.040  25.333  0.00  0.00    +0.000 HD
ENDBRANCH   8  18
TORSDOF 1
ENDMDL
MODEL 3
REMARK VINA RESULT:      -7.6      3.165      8.839
REMARK  Name = 
REMARK  4 active torsions:
REMARK  status: ('A' for Active; 'I' for Inactive)
REMARK    1  A    between atoms: C_1  and  N_2
REMARK    2  A    between atoms: N_8  and  C_9
REMARK    3  A    between atoms: C_24  and  C_25
REMARK    4  A    between atoms: C_24  and  C_26
REMARK                            x       y       z     vdW  Elec       q    Type
REMARK                         _______ _______ _______ _____ _____    ______ ____
ROOT
ATOM      1  C   UNL     1       4.273  14.803  18.005  0.00  0.00    +0.000 C 
ATOM      2  N   UNL     1       2.867  14.660  18.376  0.00  0.00    +0.000 NA
ATOM      3  C   UNL     1       2.469  15.806  19.220  0.00  0.00    +0.000 C 
ATOM      4  C   UNL     1       0.952  15.834  19.411  0.00  0.00    +0.000 C 
ATOM      5  C   UNL     1       0.453  14.486  19.787  0.00  0.00    +0.000 A 
ATOM      6  C   UNL     1      -0.802  14.138  20.287  0.00  0.00    +0.000 A 
ATOM      7  C   UNL     1      -0.829  12.766  20.446  0.00  0.00    +0.000 A 
ATOM      8  N   UNL     1       0.435  12.233  20.066  0.00  0.00    +0.000 N 
ATOM      9  C   UNL     1       1.204  13.330  19.641  0.00  0.00    +0.000 A 
ATOM     10  C   UNL     1       2.595  13.361  19.055  0.00  0.00    +0.000 C 
ATOM     11  C   UNL     1      -1.994  12.043  21.045  0.00  0.00    +0.000 C 
ATOM     12  C   UNL     1      -3.235  12.942  21.407  0.00  0.00    +0.000 C 
ATOM     13  C   UNL     1      -4.445  12.462  20.564  0.00  0.00    +0.000 C 
ATOM     14  C   UNL     1      -3.586  12.722  22.896  0.00  0.00    +0.000 C 
ATOM     15  C   UNL     1      -3.138  14.475  21.196  0.00  0.00    +0.000 C 
ATOM     16  C   UNL     1      -1.886  15.037  20.599  0.00  0.00    +0.000 C 
ATOM     17  O   UNL     1      -1.807  16.254  20.403  0.00  0.00    +0.000 OA
ENDROOT
BRANCH   8  18
ATOM     18  C   UNL     1       0.868  10.850  20.133  0.00  0.00    +0.000 A 
ATOM     19  C   UNL     1       0.945  10.181  21.368  0.00  0.00    +0.000 A 
ATOM     20  C   UNL     1       1.288   8.820  21.445  0.00  0.00    +0.000 A 
ATOM     21  C   UNL     1       1.598   8.112  20.286  0.00  0.00    +0.000 A 
ATOM     22  C   UNL     1       1.590   8.755  19.042  0.00  0.00    +0.000 A 
ATOM     23  C   UNL     1       1.205  10.116  18.980  0.00  0.00    +0.000 A 
ATOM     24  C   UNL     1       1.942   7.998  17.776  0.00  0.00    +0.000 C 
ATOM     25  C   UNL     1       3.351   7.385  17.812  0.00  0.00    +0.000 C 
ATOM     26  C   UNL     1       3.436   6.087  18.622  0.00  0.00    +0.000 C 
ATOM     27  N   UNL     1       3.151   6.285  20.032  0.00  0.00    +0.000 N 
ATOM     28  C   UNL     1       1.864   6.660  20.366  0.00  0.00    +0.000 C 
ATOM     29  O   UNL     1       0.970   5.876  20.664  0.00  0.00    +0.000 OA
ATOM     30  H   UNL     1       3.851   6.870  20.467  0.00  0.00    +0.000 HD
ENDBRANCH   8  18
TORSDOF 1
ENDMDL
MODEL 4
REMARK VINA RESULT:      -7.5      1.158      1.816
REMARK  Name = 
REMARK  4 active torsions:
REMARK  status: ('A' for Active; 'I' for Inactive)
REMARK    1  A    between atoms: C_1  and  N_2
REMARK    2  A    between atoms: N_8  and  C_9
REMARK    3  A    between atoms: C_24  and  C_25
REMARK    4  A    between atoms: C_24  and  C_26
REMARK                            x       y       z     vdW  Elec       q    Type
REMARK                         _______ _______ _______ _____ _____    ______ ____
ROOT
ATOM      1  C   UNL     1       7.427   8.050  17.117  0.00  0.00    +0.000 C 
ATOM      2  N   UNL     1       6.621   6.960  17.662  0.00  0.00    +0.000 NA
ATOM      3  C   UNL     1       6.610   5.838  16.698  0.00  0.00    +0.000 C 
ATOM      4  C   UNL     1       6.003   4.587  17.336  0.00  0.00    +0.000 C 
ATOM      5  C   UNL     1       4.731   4.924  18.028  0.00  0.00    +0.000 A 
ATOM      6  C   UNL     1       3.754   4.054  18.510  0.00  0.00    +0.000 A 
ATOM      7  C   UNL     1       2.774   4.814  19.120  0.00  0.00    +0.000 A 
ATOM      8  N   UNL     1       3.119   6.190  19.003  0.00  0.00    +0.000 N 
ATOM      9  C   UNL     1       4.354   6.222  18.334  0.00  0.00    +0.000 A 
ATOM     10  C   UNL     1       5.238   7.401  18.003  0.00  0.00    +0.000 C 
ATOM     11  C   UNL     1       1.521   4.220  19.682  0.00  0.00    +0.000 C 
ATOM     12  C   UNL     1       1.426   2.650  19.612  0.00  0.00    +0.000 C 
ATOM     13  C   UNL     1       1.335   2.103  21.060  0.00  0.00    +0.000 C 
ATOM     14  C   UNL     1       0.117   2.266  18.885  0.00  0.00    +0.000 C 
ATOM     15  C   UNL     1       2.566   1.859  18.919  0.00  0.00    +0.000 C 
ATOM     16  C   UNL     1       3.745   2.616  18.394  0.00  0.00    +0.000 C 
ATOM     17  O   UNL     1       4.670   1.995  17.863  0.00  0.00    +0.000 OA
ENDROOT
BRANCH   8  18
ATOM     18  C   UNL     1       2.345   7.336  19.444  0.00  0.00    +0.000 A 
ATOM     19  C   UNL     1       2.040   7.516  20.804  0.00  0.00    +0.000 A 
ATOM     20  C   UNL     1       1.358   8.658  21.258  0.00  0.00    +0.000 A 
ATOM     21  C   UNL     1       0.937   9.626  20.349  0.00  0.00    +0.000 A 
ATOM     22  C   UNL     1       1.171   9.459  18.979  0.00  0.00    +0.000 A 
ATOM     23  C   UNL     1       1.891   8.319  18.545  0.00  0.00    +0.000 A 
ATOM     24  C   UNL     1       0.701  10.498  17.979  0.00  0.00    +0.000 C 
ATOM     25  C   UNL     1      -0.817  10.732  18.020  0.00  0.00    +0.000 C 
ATOM     26  C   UNL     1      -1.271  11.628  19.178  0.00  0.00    +0.000 C 
ATOM     27  N   UNL     1      -1.015  11.036  20.480  0.00  0.00    +0.000 N 
ATOM     28  C   UNL     1       0.307  10.869  20.845  0.00  0.00    +0.000 C 
ATOM     29  O   UNL     1       0.956  11.685  21.488  0.00  0.00    +0.000 OA
ATOM     30  H   UNL     1      -1.564  10.198  20.613  0.00  0.00    +0.000 HD
ENDBRANCH   8  18
TORSDOF 1
ENDMDL
MODEL 5
REMARK VINA RESULT:      -7.4      7.372      9.884
REMARK  Name = 
REMARK  4 active torsions:
REMARK  status: ('A' for Active; 'I' for Inactive)
REMARK    1  A    between atoms: C_1  and  N_2
REMARK    2  A    between atoms: N_8  and  C_9
REMARK    3  A    between atoms: C_24  and  C_25
REMARK    4  A    between atoms: C_24  and  C_26
REMARK                            x       y       z     vdW  Elec       q    Type
REMARK                         _______ _______ _______ _____ _____    ______ ____
ROOT
ATOM      1  C   UNL     1      -2.882  10.271  15.222  0.00  0.00    +0.000 C 
ATOM      2  N   UNL     1      -3.228  10.593  16.604  0.00  0.00    +0.000 NA
ATOM      3  C   UNL     1      -4.620  11.089  16.652  0.00  0.00    +0.000 C 
ATOM      4  C   UNL     1      -5.107  11.187  18.099  0.00  0.00    +0.000 C 
ATOM      5  C   UNL     1      -4.093  11.876  18.940  0.00  0.00    +0.000 A 
ATOM      6  C   UNL     1      -4.243  12.385  20.230  0.00  0.00    +0.000 A 
ATOM      7  C   UNL     1      -3.022  12.894  20.628  0.00  0.00    +0.000 A 
ATOM      8  N   UNL     1      -2.086  12.730  19.568  0.00  0.00    +0.000 N 
ATOM      9  C   UNL     1      -2.782  12.075  18.538  0.00  0.00    +0.000 A 
ATOM     10  C   UNL     1      -2.278  11.573  17.206  0.00  0.00    +0.000 C 
ATOM     11  C   UNL     1      -2.827  13.600  21.933  0.00  0.00    +0.000 C 
ATOM     12  C   UNL     1      -4.090  13.651  22.871  0.00  0.00    +0.000 C 
ATOM     13  C   UNL     1      -3.751  12.902  24.185  0.00  0.00    +0.000 C 
ATOM     14  C   UNL     1      -4.375  15.126  23.234  0.00  0.00    +0.000 C 
ATOM     15  C   UNL     1      -5.427  13.054  22.362  0.00  0.00    +0.000 C 
ATOM     16  C   UNL     1      -5.451  12.396  21.018  0.00  0.00    +0.000 C 
ATOM     17  O   UNL     1      -6.504  11.894  20.613  0.00  0.00    +0.000 OA
ENDROOT
BRANCH   8  18
ATOM     18  C   UNL     1      -0.706  13.178  19.530  0.00  0.00    +0.000 A 
ATOM     19  C   UNL     1       0.347  12.278  19.769  0.00  0.00    +0.000 A 
ATOM     20  C   UNL     1       1.691  12.677  19.661  0.00  0.00    +0.000 A 
ATOM     21  C   UNL     1       2.004  13.997  19.346  0.00  0.00    +0.000 A 
ATOM     22  C   UNL     1       0.985  14.939  19.155  0.00  0.00    +0.000 A 
ATOM     23  C   UNL     1      -0.362  14.510  19.233  0.00  0.00    +0.000 A 
ATOM     24  C   UNL     1       1.314  16.383  18.829  0.00  0.00    +0.000 C 
ATOM     25  C   UNL     1       2.183  17.060  19.900  0.00  0.00    +0.000 C 
ATOM     26  C   UNL     1       3.668  16.692  19.812  0.00  0.00    +0.000 C 
ATOM     27  N   UNL     1       3.913  15.283  20.063  0.00  0.00    +0.000 N 
ATOM     28  C   UNL     1       3.416  14.384  19.139  0.00  0.00    +0.000 C 
ATOM     29  O   UNL     1       4.048  13.954  18.181  0.00  0.00    +0.000 OA
ATOM     30  H   UNL     1       3.675  15.035  21.013  0.00  0.00    +0.000 HD
ENDBRANCH   8  18
TORSDOF 1
ENDMDL
MODEL 6
REMARK VINA RESULT:      -7.4      1.427      4.315
REMARK  Name = 
REMARK  4 active torsions:
REMARK  status: ('A' for Active; 'I' for Inactive)
REMARK    1  A    between atoms: C_1  and  N_2
REMARK    2  A    between atoms: N_8  and  C_9
REMARK    3  A    between atoms: C_24  and  C_25
REMARK    4  A    between atoms: C_24  and  C_26
REMARK                            x       y       z     vdW  Elec       q    Type
REMARK                         _______ _______ _______ _____ _____    ______ ____
ROOT
ATOM      1  C   UNL     1       0.987   2.459  22.168  0.00  0.00    +0.000 C 
ATOM      2  N   UNL     1       1.814   2.961  21.073  0.00  0.00    +0.000 NA
ATOM      3  C   UNL     1       3.192   2.450  21.234  0.00  0.00    +0.000 C 
ATOM      4  C   UNL     1       4.021   2.731  19.979  0.00  0.00    +0.000 C 
ATOM      5  C   UNL     1       3.847   4.144  19.550  0.00  0.00    +0.000 A 
ATOM      6  C   UNL     1       4.601   4.863  18.624  0.00  0.00    +0.000 A 
ATOM      7  C   UNL     1       4.045   6.123  18.512  0.00  0.00    +0.000 A 
ATOM      8  N   UNL     1       2.934   6.216  19.398  0.00  0.00    +0.000 N 
ATOM      9  C   UNL     1       2.827   4.958  20.015  0.00  0.00    +0.000 A 
ATOM     10  C   UNL     1       1.790   4.449  20.988  0.00  0.00    +0.000 C 
ATOM     11  C   UNL     1       4.644   7.201  17.666  0.00  0.00    +0.000 C 
ATOM     12  C   UNL     1       5.913   6.781  16.834  0.00  0.00    +0.000 C 
ATOM     13  C   UNL     1       5.583   6.944  15.328  0.00  0.00    +0.000 C 
ATOM     14  C   UNL     1       7.066   7.755  17.167  0.00  0.00    +0.000 C 
ATOM     15  C   UNL     1       6.481   5.348  17.003  0.00  0.00    +0.000 C 
ATOM     16  C   UNL     1       5.763   4.397  17.908  0.00  0.00    +0.000 C 
ATOM     17  O   UNL     1       6.192   3.245  18.031  0.00  0.00    +0.000 OA
ENDROOT
BRANCH   8  18
ATOM     18  C   UNL     1       2.100   7.376  19.652  0.00  0.00    +0.000 A 
ATOM     19  C   UNL     1       2.055   8.443  18.736  0.00  0.00    +0.000 A 
ATOM     20  C   UNL     1       1.196   9.538  18.928  0.00  0.00    +0.000 A 
ATOM     21  C   UNL     1       0.391   9.603  20.063  0.00  0.00    +0.000 A 
ATOM     22  C   UNL     1       0.447   8.590  21.028  0.00  0.00    +0.000 A 
ATOM     23  C   UNL     1       1.291   7.477  20.800  0.00  0.00    +0.000 A 
ATOM     24  C   UNL     1      -0.413   8.659  22.275  0.00  0.00    +0.000 C 
ATOM     25  C   UNL     1      -0.156   9.920  23.116  0.00  0.00    +0.000 C 
ATOM     26  C   UNL     1      -0.838  11.177  22.565  0.00  0.00    +0.000 C 
ATOM     27  N   UNL     1      -0.329  11.567  21.262  0.00  0.00    +0.000 N 
ATOM     28  C   UNL     1      -0.579  10.710  20.208  0.00  0.00    +0.000 C 
ATOM     29  O   UNL     1      -1.544  10.798  19.458  0.00  0.00    +0.000 OA
ATOM     30  H   UNL     1       0.642  11.842  21.318  0.00  0.00    +0.000 HD
ENDBRANCH   8  18
TORSDOF 1
ENDMDL
MODEL 7
REMARK VINA RESULT:      -7.3      5.619      9.194
REMARK  Name = 
REMARK  4 active torsions:
REMARK  status: ('A' for Active; 'I' for Inactive)
REMARK    1  A    between atoms: C_1  and  N_2
REMARK    2  A    between atoms: N_8  and  C_9
REMARK    3  A    between atoms: C_24  and  C_25
REMARK    4  A    between atoms: C_24  and  C_26
REMARK                            x       y       z     vdW  Elec       q    Type
REMARK                         _______ _______ _______ _____ _____    ______ ____
ROOT
ATOM      1  C   UNL     1      -0.637  18.287  20.473  0.00  0.00    +0.000 C 
ATOM      2  N   UNL     1      -0.154  16.915  20.330  0.00  0.00    +0.000 NA
ATOM      3  C   UNL     1       0.671  16.817  19.108  0.00  0.00    +0.000 C 
ATOM      4  C   UNL     1       1.407  15.476  19.061  0.00  0.00    +0.000 C 
ATOM      5  C   UNL     1       0.470  14.362  19.361  0.00  0.00    +0.000 A 
ATOM      6  C   UNL     1       0.670  12.994  19.178  0.00  0.00    +0.000 A 
ATOM      7  C   UNL     1      -0.454  12.336  19.640  0.00  0.00    +0.000 A 
ATOM      8  N   UNL     1      -1.395  13.300  20.101  0.00  0.00    +0.000 N 
ATOM      9  C   UNL     1      -0.779  14.552  19.931  0.00  0.00    +0.000 A 
ATOM     10  C   UNL     1      -1.270  15.927  20.317  0.00  0.00    +0.000 C 
ATOM     11  C   UNL     1      -0.630  10.855  19.527  0.00  0.00    +0.000 C 
ATOM     12  C   UNL     1       0.594  10.073  18.920  0.00  0.00    +0.000 C 
ATOM     13  C   UNL     1       1.118   9.083  19.992  0.00  0.00    +0.000 C 
ATOM     14  C   UNL     1       0.099   9.239  17.717  0.00  0.00    +0.000 C 
ATOM     15  C   UNL     1       1.827  10.874  18.428  0.00  0.00    +0.000 C 
ATOM     16  C   UNL     1       1.830  12.360  18.602  0.00  0.00    +0.000 C 
ATOM     17  O   UNL     1       2.818  13.006  18.237  0.00  0.00    +0.000 OA
ENDROOT
BRANCH   8  18
ATOM     18  C   UNL     1      -2.733  13.059  20.609  0.00  0.00    +0.000 A 
ATOM     19  C   UNL     1      -3.031  13.252  21.969  0.00  0.00    +0.000 A 
ATOM     20  C   UNL     1      -4.337  13.097  22.463  0.00  0.00    +0.000 A 
ATOM     21  C   UNL     1      -5.365  12.708  21.607  0.00  0.00    +0.000 A 
ATOM     22  C   UNL     1      -5.100  12.450  20.256  0.00  0.00    +0.000 A 
ATOM     23  C   UNL     1      -3.786  12.647  19.770  0.00  0.00    +0.000 A 
ATOM     24  C   UNL     1      -6.208  12.009  19.320  0.00  0.00    +0.000 C 
ATOM     25  C   UNL     1      -6.896  10.710  19.767  0.00  0.00    +0.000 C 
ATOM     26  C   UNL     1      -7.916  10.909  20.894  0.00  0.00    +0.000 C 
ATOM     27  N   UNL     1      -7.306  11.375  22.127  0.00  0.00    +0.000 N 
ATOM     28  C   UNL     1      -6.753  12.641  22.114  0.00  0.00    +0.000 C 
ATOM     29  O   UNL     1      -7.347  13.660  22.445  0.00  0.00    +0.000 OA
ATOM     30  H   UNL     1      -6.680  10.681  22.509  0.00  0.00    +0.000 HD
ENDBRANCH   8  18
TORSDOF 1
ENDMDL
MODEL 8
REMARK VINA RESULT:      -7.3      4.731     10.715
REMARK  Name = 
REMARK  4 active torsions:
REMARK  status: ('A' for Active; 'I' for Inactive)
REMARK    1  A    between atoms: C_1  and  N_2
REMARK    2  A    between atoms: N_8  and  C_9
REMARK    3  A    between atoms: C_24  and  C_25
REMARK    4  A    between atoms: C_24  and  C_26
REMARK                            x       y       z     vdW  Elec       q    Type
REMARK                         _______ _______ _______ _____ _____    ______ ____
ROOT
ATOM      1  C   UNL     1      -0.986  15.997  24.795  0.00  0.00    +0.000 C 
ATOM      2  N   UNL     1      -2.131  15.578  23.991  0.00  0.00    +0.000 NA
ATOM      3  C   UNL     1      -3.280  15.315  24.884  0.00  0.00    +0.000 C 
ATOM      4  C   UNL     1      -4.563  15.131  24.071  0.00  0.00    +0.000 C 
ATOM      5  C   UNL     1      -4.329  14.193  22.941  0.00  0.00    +0.000 A 
ATOM      6  C   UNL     1      -5.275  13.571  22.127  0.00  0.00    +0.000 A 
ATOM      7  C   UNL     1      -4.595  12.826  21.182  0.00  0.00    +0.000 A 
ATOM      8  N   UNL     1      -3.196  12.956  21.413  0.00  0.00    +0.000 N 
ATOM      9  C   UNL     1      -3.065  13.831  22.504  0.00  0.00    +0.000 A 
ATOM     10  C   UNL     1      -1.817  14.394  23.141  0.00  0.00    +0.000 C 
ATOM     11  C   UNL     1      -5.290  11.952  20.187  0.00  0.00    +0.000 C 
ATOM     12  C   UNL     1      -6.863  12.000  20.226  0.00  0.00    +0.000 C 
ATOM     13  C   UNL     1      -7.368  12.527  18.858  0.00  0.00    +0.000 C 
ATOM     14  C   UNL     1      -7.397  10.560  20.397  0.00  0.00    +0.000 C 
ATOM     15  C   UNL     1      -7.561  12.863  21.309  0.00  0.00    +0.000 C 
ATOM     16  C   UNL     1      -6.709  13.666  22.241  0.00  0.00    +0.000 C 
ATOM     17  O   UNL     1      -7.254  14.377  23.091  0.00  0.00    +0.000 OA
ENDROOT
BRANCH   8  18
ATOM     18  C   UNL     1      -2.117  12.296  20.701  0.00  0.00    +0.000 A 
ATOM     19  C   UNL     1      -1.934  12.503  19.322  0.00  0.00    +0.000 A 
ATOM     20  C   UNL     1      -0.851  11.934  18.632  0.00  0.00    +0.000 A 
ATOM     21  C   UNL     1       0.051  11.113  19.306  0.00  0.00    +0.000 A 
ATOM     22  C   UNL     1      -0.126  10.835  20.667  0.00  0.00    +0.000 A 
ATOM     23  C   UNL     1      -1.203  11.447  21.352  0.00  0.00    +0.000 A 
ATOM     24  C   UNL     1       0.840   9.930  21.405  0.00  0.00    +0.000 C 
ATOM     25  C   UNL     1       0.932   8.521  20.798  0.00  0.00    +0.000 C 
ATOM     26  C   UNL     1       1.809   8.448  19.543  0.00  0.00    +0.000 C 
ATOM     27  N   UNL     1       1.275   9.225  18.438  0.00  0.00    +0.000 N 
ATOM     28  C   UNL     1       1.241  10.597  18.595  0.00  0.00    +0.000 C 
ATOM     29  O   UNL     1       2.130  11.358  18.229  0.00  0.00    +0.000 OA
ATOM     30  H   UNL     1       0.393   8.848  18.121  0.00  0.00    +0.000 HD
ENDBRANCH   8  18
TORSDOF 1
ENDMDL
MODEL 9
REMARK VINA RESULT:      -7.1      5.773      9.313
REMARK  Name = 
REMARK  4 active torsions:
REMARK  status: ('A' for Active; 'I' for Inactive)
REMARK    1  A    between atoms: C_1  and  N_2
REMARK    2  A    between atoms: N_8  and  C_9
REMARK    3  A    between atoms: C_24  and  C_25
REMARK    4  A    between atoms: C_24  and  C_26
REMARK                            x       y       z     vdW  Elec       q    Type
REMARK                         _______ _______ _______ _____ _____    ______ ____
ROOT
ATOM      1  C   UNL     1      -1.137  18.361  20.429  0.00  0.00    +0.000 C 
ATOM      2  N   UNL     1      -0.600  17.005  20.342  0.00  0.00    +0.000 NA
ATOM      3  C   UNL     1       0.327  16.925  19.193  0.00  0.00    +0.000 C 
ATOM      4  C   UNL     1       1.107  15.609  19.221  0.00  0.00    +0.000 C 
ATOM      5  C   UNL     1       0.185  14.466  19.454  0.00  0.00    +0.000 A 
ATOM      6  C   UNL     1       0.444  13.104  19.303  0.00  0.00    +0.000 A 
ATOM      7  C   UNL     1      -0.693  12.414  19.677  0.00  0.00    +0.000 A 
ATOM      8  N   UNL     1      -1.699  13.350  20.049  0.00  0.00    +0.000 N 
ATOM      9  C   UNL     1      -1.112  14.619  19.917  0.00  0.00    +0.000 A 
ATOM     10  C   UNL     1      -1.678  15.980  20.246  0.00  0.00    +0.000 C 
ATOM     11  C   UNL     1      -0.811  10.926  19.565  0.00  0.00    +0.000 C 
ATOM     12  C   UNL     1       0.484  10.180  19.071  0.00  0.00    +0.000 C 
ATOM     13  C   UNL     1       0.949   9.217  20.193  0.00  0.00    +0.000 C 
ATOM     14  C   UNL     1       0.119   9.321  17.839  0.00  0.00    +0.000 C 
ATOM     15  C   UNL     1       1.727  11.018  18.673  0.00  0.00    +0.000 C 
ATOM     16  C   UNL     1       1.668  12.505  18.832  0.00  0.00    +0.000 C 
ATOM     17  O   UNL     1       2.661  13.180  18.543  0.00  0.00    +0.000 OA
ENDROOT
BRANCH   8  18
ATOM     18  C   UNL     1      -3.066  13.068  20.446  0.00  0.00    +0.000 A 
ATOM     19  C   UNL     1      -4.019  12.654  19.498  0.00  0.00    +0.000 A 
ATOM     20  C   UNL     1      -5.326  12.303  19.876  0.00  0.00    +0.000 A 
ATOM     21  C   UNL     1      -5.715  12.395  21.211  0.00  0.00    +0.000 A 
ATOM     22  C   UNL     1      -4.814  12.857  22.179  0.00  0.00    +0.000 A 
ATOM     23  C   UNL     1      -3.491  13.171  21.784  0.00  0.00    +0.000 A 
ATOM     24  C   UNL     1      -5.232  12.978  23.631  0.00  0.00    +0.000 C 
ATOM     25  C   UNL     1      -6.434  13.913  23.838  0.00  0.00    +0.000 C 
ATOM     26  C   UNL     1      -7.781  13.268  23.495  0.00  0.00    +0.000 C 
ATOM     27  N   UNL     1      -7.897  12.924  22.089  0.00  0.00    +0.000 N 
ATOM     28  C   UNL     1      -7.060  11.933  21.614  0.00  0.00    +0.000 C 
ATOM     29  O   UNL     1      -7.355  10.745  21.560  0.00  0.00    +0.000 OA
ATOM     30  H   UNL     1      -7.888  13.751  21.509  0.00  0.00    +0.000 HD
ENDBRANCH   8  18
TORSDOF 1
ENDMDL
