MODEL 1
REMARK VINA RESULT:      -8.6      0.000      0.000
REMARK  Name = 
REMARK  7 active torsions:
REMARK  status: ('A' for Active; 'I' for Inactive)
REMARK    1  A    between atoms: C_1  and  C_2
REMARK    2  A    between atoms: C_2  and  C_3
REMARK    3  A    between atoms: C_8  and  C_9
REMARK    4  A    between atoms: C_9  and  C_11
REMARK    5  A    between atoms: C_12  and  C_13
REMARK    6  A    between atoms: C_26  and  C_27
REMARK    7  A    between atoms: C_26  and  C_28
REMARK                            x       y       z     vdW  Elec       q    Type
REMARK                         _______ _______ _______ _____ _____    ______ ____
ROOT
ATOM      1  C   UNL     1      -4.773  15.599  21.084  0.00  0.00    +0.000 C 
ATOM      2  C   UNL     1      -4.327  14.215  21.574  0.00  0.00    +0.000 C 
ATOM      3  C   UNL     1      -5.383  13.187  21.138  0.00  0.00    +0.000 C 
ATOM      4  C   UNL     1      -4.107  14.258  23.090  0.00  0.00    +0.000 C 
ATOM      5  C   UNL     1      -3.589  12.917  23.591  0.00  0.00    +0.000 C 
ATOM      6  C   UNL     1      -2.509  12.386  22.684  0.00  0.00    +0.000 A 
ATOM      7  C   UNL     1      -1.711  11.303  23.104  0.00  0.00    +0.000 A 
ATOM      8  C   UNL     1      -0.694  10.773  22.276  0.00  0.00    +0.000 A 
ATOM      9  C   UNL     1      -0.510  11.349  21.003  0.00  0.00    +0.000 A 
ATOM     10  C   UNL     1      -1.294  12.445  20.583  0.00  0.00    +0.000 A 
ATOM     11  C   UNL     1      -2.317  12.927  21.415  0.00  0.00    +0.000 A 
ATOM     12  O   UNL     1      -3.087  13.940  20.901  0.00  0.00    +0.000 OA
ATOM     13  C   UNL     1      -1.097  13.076  19.232  0.00  0.00    +0.000 C 
ATOM     14  C   UNL     1       0.219  12.648  18.614  0.00  0.00    +0.000 C 
ATOM     15  C   UNL     1       0.417  11.143  18.791  0.00  0.00    +0.000 C 
ATOM     16  C   UNL     1       1.787  10.760  18.212  0.00  0.00    +0.000 C 
ATOM     17  C   UNL     1      -0.657  10.295  18.094  0.00  0.00    +0.000 C 
ATOM     18  O   UNL     1       0.448  10.806  20.182  0.00  0.00    +0.000 OA
ENDROOT
BRANCH   8  19
ATOM     19  C   UNL     1       0.120   9.586  22.746  0.00  0.00    +0.000 C 
ATOM     20  O   UNL     1       0.584   9.549  23.880  0.00  0.00    +0.000 OA
BRANCH  19  21
ATOM     21  C   UNL     1       0.382   8.460  21.788  0.00  0.00    +0.000 C 
ATOM     22  C   UNL     1       1.601   8.187  21.340  0.00  0.00    +0.000 C 
BRANCH  22  23
ATOM     23  C   UNL     1       1.840   7.065  20.422  0.00  0.00    +0.000 A 
ATOM     24  C   UNL     1       1.566   5.756  20.831  0.00  0.00    +0.000 A 
ATOM     25  C   UNL     1       1.744   4.686  19.945  0.00  0.00    +0.000 A 
ATOM     26  C   UNL     1       2.216   4.926  18.657  0.00  0.00    +0.000 A 
ATOM     27 BR   UNL     1       2.429   3.484  17.451  0.00  0.00    +0.000 Br
ATOM     28  C   UNL     1       2.529   6.221  18.249  0.00  0.00    +0.000 A 
ATOM     29  C   UNL     1       2.345   7.289  19.133  0.00  0.00    +0.000 A 
ENDBRANCH  22  23
ENDBRANCH  19  21
ENDBRANCH   8  19
TORSDOF 3
ENDMDL
MODEL 2
REMARK VINA RESULT:      -8.1      0.560      1.072
REMARK  Name = 
REMARK  7 active torsions:
REMARK  status: ('A' for Active; 'I' for Inactive)
REMARK    1  A    between atoms: C_1  and  C_2
REMARK    2  A    between atoms: C_2  and  C_3
REMARK    3  A    between atoms: C_8  and  C_9
REMARK    4  A    between atoms: C_9  and  C_11
REMARK    5  A    between atoms: C_12  and  C_13
REMARK    6  A    between atoms: C_26  and  C_27
REMARK    7  A    between atoms: C_26  and  C_28
REMARK                            x       y       z     vdW  Elec       q    Type
REMARK                         _______ _______ _______ _____ _____    ______ ____
ROOT
ATOM      1  C   UNL     1      -3.711  16.399  21.058  0.00  0.00    +0.000 C 
ATOM      2  C   UNL     1      -3.494  14.962  21.549  0.00  0.00    +0.000 C 
ATOM      3  C   UNL     1      -4.717  14.124  21.140  0.00  0.00    +0.000 C 
ATOM      4  C   UNL     1      -3.241  14.973  23.061  0.00  0.00    +0.000 C 
ATOM      5  C   UNL     1      -2.945  13.566  23.561  0.00  0.00    +0.000 C 
ATOM      6  C   UNL     1      -1.988  12.858  22.639  0.00  0.00    +0.000 A 
ATOM      7  C   UNL     1      -1.375  11.657  23.051  0.00  0.00    +0.000 A 
ATOM      8  C   UNL     1      -0.479  10.961  22.208  0.00  0.00    +0.000 A 
ATOM      9  C   UNL     1      -0.225  11.493  20.928  0.00  0.00    +0.000 A 
ATOM     10  C   UNL     1      -0.822  12.703  20.515  0.00  0.00    +0.000 A 
ATOM     11  C   UNL     1      -1.733  13.354  21.362  0.00  0.00    +0.000 A 
ATOM     12  O   UNL     1      -2.332  14.479  20.855  0.00  0.00    +0.000 OA
ATOM     13  C   UNL     1      -0.549  13.287  19.156  0.00  0.00    +0.000 C 
ATOM     14  C   UNL     1       0.664  12.641  18.516  0.00  0.00    +0.000 C 
ATOM     15  C   UNL     1       0.610  11.125  18.700  0.00  0.00    +0.000 C 
ATOM     16  C   UNL     1       1.884  10.515  18.098  0.00  0.00    +0.000 C 
ATOM     17  C   UNL     1      -0.605  10.466  18.030  0.00  0.00    +0.000 C 
ATOM     18  O   UNL     1       0.612  10.793  20.093  0.00  0.00    +0.000 OA
ENDROOT
BRANCH   8  19
ATOM     19  C   UNL     1       0.134   9.655  22.671  0.00  0.00    +0.000 C 
ATOM     20  O   UNL     1       0.455   9.491  23.843  0.00  0.00    +0.000 OA
BRANCH  19  21
ATOM     21  C   UNL     1       0.375   8.568  21.664  0.00  0.00    +0.000 C 
ATOM     22  C   UNL     1       1.581   8.053  21.460  0.00  0.00    +0.000 C 
BRANCH  22  23
ATOM     23  C   UNL     1       1.792   6.973  20.487  0.00  0.00    +0.000 A 
ATOM     24  C   UNL     1       2.307   7.265  19.220  0.00  0.00    +0.000 A 
ATOM     25  C   UNL     1       2.557   6.235  18.305  0.00  0.00    +0.000 A 
ATOM     26  C   UNL     1       2.272   4.916  18.652  0.00  0.00    +0.000 A 
ATOM     27 BR   UNL     1       2.636   3.523  17.426  0.00  0.00    +0.000 Br
ATOM     28  C   UNL     1       1.723   4.616  19.896  0.00  0.00    +0.000 A 
ATOM     29  C   UNL     1       1.479   5.646  20.811  0.00  0.00    +0.000 A 
ENDBRANCH  22  23
ENDBRANCH  19  21
ENDBRANCH   8  19
TORSDOF 3
ENDMDL
MODEL 3
REMARK VINA RESULT:      -8.0      8.599     10.397
REMARK  Name = 
REMARK  7 active torsions:
REMARK  status: ('A' for Active; 'I' for Inactive)
REMARK    1  A    between atoms: C_1  and  C_2
REMARK    2  A    between atoms: C_2  and  C_3
REMARK    3  A    between atoms: C_8  and  C_9
REMARK    4  A    between atoms: C_9  and  C_11
REMARK    5  A    between atoms: C_12  and  C_13
REMARK    6  A    between atoms: C_26  and  C_27
REMARK    7  A    between atoms: C_26  and  C_28
REMARK                            x       y       z     vdW  Elec       q    Type
REMARK                         _______ _______ _______ _____ _____    ______ ____
ROOT
ATOM      1  C   UNL     1       8.751  15.578  25.113  0.00  0.00    +0.000 C 
ATOM      2  C   UNL     1       8.378  14.606  23.986  0.00  0.00    +0.000 C 
ATOM      3  C   UNL     1       7.016  15.032  23.414  0.00  0.00    +0.000 C 
ATOM      4  C   UNL     1       8.389  13.171  24.526  0.00  0.00    +0.000 C 
ATOM      5  C   UNL     1       8.099  12.179  23.409  0.00  0.00    +0.000 C 
ATOM      6  C   UNL     1       8.877  12.527  22.167  0.00  0.00    +0.000 A 
ATOM      7  C   UNL     1       8.965  11.596  21.111  0.00  0.00    +0.000 A 
ATOM      8  C   UNL     1       9.679  11.892  19.927  0.00  0.00    +0.000 A 
ATOM      9  C   UNL     1      10.290  13.157  19.821  0.00  0.00    +0.000 A 
ATOM     10  C   UNL     1      10.220  14.087  20.881  0.00  0.00    +0.000 A 
ATOM     11  C   UNL     1       9.477  13.776  22.030  0.00  0.00    +0.000 A 
ATOM     12  O   UNL     1       9.390  14.764  22.978  0.00  0.00    +0.000 OA
ATOM     13  C   UNL     1      10.880  15.435  20.784  0.00  0.00    +0.000 C 
ATOM     14  C   UNL     1      11.874  15.478  19.640  0.00  0.00    +0.000 C 
ATOM     15  C   UNL     1      11.270  14.831  18.394  0.00  0.00    +0.000 C 
ATOM     16  C   UNL     1      12.327  14.834  17.281  0.00  0.00    +0.000 C 
ATOM     17  C   UNL     1      10.017  15.551  17.874  0.00  0.00    +0.000 C 
ATOM     18  O   UNL     1      10.947  13.460  18.653  0.00  0.00    +0.000 OA
ENDROOT
BRANCH   8  19
ATOM     19  C   UNL     1       9.722  10.882  18.799  0.00  0.00    +0.000 C 
ATOM     20  O   UNL     1      10.419  11.073  17.809  0.00  0.00    +0.000 OA
BRANCH  19  21
ATOM     21  C   UNL     1       8.871   9.649  18.895  0.00  0.00    +0.000 C 
ATOM     22  C   UNL     1       8.421   9.020  17.816  0.00  0.00    +0.000 C 
BRANCH  22  23
ATOM     23  C   UNL     1       7.609   7.801  17.931  0.00  0.00    +0.000 A 
ATOM     24  C   UNL     1       6.412   7.689  17.217  0.00  0.00    +0.000 A 
ATOM     25  C   UNL     1       5.658   6.510  17.283  0.00  0.00    +0.000 A 
ATOM     26  C   UNL     1       6.092   5.454  18.079  0.00  0.00    +0.000 A 
ATOM     27 BR   UNL     1       5.088   3.853  18.146  0.00  0.00    +0.000 Br
ATOM     28  C   UNL     1       7.263   5.567  18.826  0.00  0.00    +0.000 A 
ATOM     29  C   UNL     1       8.018   6.743  18.754  0.00  0.00    +0.000 A 
ENDBRANCH  22  23
ENDBRANCH  19  21
ENDBRANCH   8  19
TORSDOF 3
ENDMDL
MODEL 4
REMARK VINA RESULT:      -7.9      1.910      2.977
REMARK  Name = 
REMARK  7 active torsions:
REMARK  status: ('A' for Active; 'I' for Inactive)
REMARK    1  A    between atoms: C_1  and  C_2
REMARK    2  A    between atoms: C_2  and  C_3
REMARK    3  A    between atoms: C_8  and  C_9
REMARK    4  A    between atoms: C_9  and  C_11
REMARK    5  A    between atoms: C_12  and  C_13
REMARK    6  A    between atoms: C_26  and  C_27
REMARK    7  A    between atoms: C_26  and  C_28
REMARK                            x       y       z     vdW  Elec       q    Type
REMARK                         _______ _______ _______ _____ _____    ______ ____
ROOT
ATOM      1  C   UNL     1      -3.907  14.311  23.054  0.00  0.00    +0.000 C 
ATOM      2  C   UNL     1      -2.759  13.368  22.671  0.00  0.00    +0.000 C 
ATOM      3  C   UNL     1      -2.920  12.064  23.471  0.00  0.00    +0.000 C 
ATOM      4  C   UNL     1      -1.419  14.072  22.916  0.00  0.00    +0.000 C 
ATOM      5  C   UNL     1      -0.264  13.186  22.471  0.00  0.00    +0.000 C 
ATOM      6  C   UNL     1      -0.554  12.556  21.134  0.00  0.00    +0.000 A 
ATOM      7  C   UNL     1       0.481  11.921  20.418  0.00  0.00    +0.000 A 
ATOM      8  C   UNL     1       0.243  11.311  19.165  0.00  0.00    +0.000 A 
ATOM      9  C   UNL     1      -1.071  11.338  18.654  0.00  0.00    +0.000 A 
ATOM     10  C   UNL     1      -2.108  11.986  19.358  0.00  0.00    +0.000 A 
ATOM     11  C   UNL     1      -1.847  12.554  20.615  0.00  0.00    +0.000 A 
ATOM     12  O   UNL     1      -2.926  13.092  21.271  0.00  0.00    +0.000 OA
ATOM     13  C   UNL     1      -3.511  12.032  18.816  0.00  0.00    +0.000 C 
ATOM     14  C   UNL     1      -3.544  11.658  17.348  0.00  0.00    +0.000 C 
ATOM     15  C   UNL     1      -2.669  10.430  17.099  0.00  0.00    +0.000 C 
ATOM     16  C   UNL     1      -2.676  10.123  15.595  0.00  0.00    +0.000 C 
ATOM     17  C   UNL     1      -3.139   9.177  17.852  0.00  0.00    +0.000 C 
ATOM     18  O   UNL     1      -1.310  10.708  17.458  0.00  0.00    +0.000 OA
ENDROOT
BRANCH   8  19
ATOM     19  C   UNL     1       1.372  10.608  18.440  0.00  0.00    +0.000 C 
ATOM     20  O   UNL     1       2.222  11.246  17.830  0.00  0.00    +0.000 OA
BRANCH  19  21
ATOM     21  C   UNL     1       1.420   9.108  18.452  0.00  0.00    +0.000 C 
ATOM     22  C   UNL     1       1.968   8.430  19.453  0.00  0.00    +0.000 C 
BRANCH  22  23
ATOM     23  C   UNL     1       1.983   6.961  19.457  0.00  0.00    +0.000 A 
ATOM     24  C   UNL     1       1.750   6.262  20.646  0.00  0.00    +0.000 A 
ATOM     25  C   UNL     1       1.715   4.862  20.648  0.00  0.00    +0.000 A 
ATOM     26  C   UNL     1       1.933   4.163  19.464  0.00  0.00    +0.000 A 
ATOM     27 BR   UNL     1       1.857   2.273  19.461  0.00  0.00    +0.000 Br
ATOM     28  C   UNL     1       2.204   4.845  18.279  0.00  0.00    +0.000 A 
ATOM     29  C   UNL     1       2.233   6.244  18.279  0.00  0.00    +0.000 A 
ENDBRANCH  22  23
ENDBRANCH  19  21
ENDBRANCH   8  19
TORSDOF 3
ENDMDL
MODEL 5
REMARK VINA RESULT:      -7.9      8.321     10.179
REMARK  Name = 
REMARK  7 active torsions:
REMARK  status: ('A' for Active; 'I' for Inactive)
REMARK    1  A    between atoms: C_1  and  C_2
REMARK    2  A    between atoms: C_2  and  C_3
REMARK    3  A    between atoms: C_8  and  C_9
REMARK    4  A    between atoms: C_9  and  C_11
REMARK    5  A    between atoms: C_12  and  C_13
REMARK    6  A    between atoms: C_26  and  C_27
REMARK    7  A    between atoms: C_26  and  C_28
REMARK                            x       y       z     vdW  Elec       q    Type
REMARK                         _______ _______ _______ _____ _____    ______ ____
ROOT
ATOM      1  C   UNL     1       8.370  14.552  25.491  0.00  0.00    +0.000 C 
ATOM      2  C   UNL     1       8.098  13.696  24.247  0.00  0.00    +0.000 C 
ATOM      3  C   UNL     1       6.637  13.915  23.822  0.00  0.00    +0.000 C 
ATOM      4  C   UNL     1       8.430  12.231  24.554  0.00  0.00    +0.000 C 
ATOM      5  C   UNL     1       8.242  11.371  23.312  0.00  0.00    +0.000 C 
ATOM      6  C   UNL     1       8.833  12.043  22.100  0.00  0.00    +0.000 A 
ATOM      7  C   UNL     1       9.009  11.310  20.908  0.00  0.00    +0.000 A 
ATOM      8  C   UNL     1       9.551  11.911  19.748  0.00  0.00    +0.000 A 
ATOM      9  C   UNL     1       9.898  13.275  19.810  0.00  0.00    +0.000 A 
ATOM     10  C   UNL     1       9.740  14.010  21.004  0.00  0.00    +0.000 A 
ATOM     11  C   UNL     1       9.168  13.394  22.129  0.00  0.00    +0.000 A 
ATOM     12  O   UNL     1       8.973  14.198  23.224  0.00  0.00    +0.000 OA
ATOM     13  C   UNL     1      10.119  15.464  21.085  0.00  0.00    +0.000 C 
ATOM     14  C   UNL     1      10.986  15.869  19.910  0.00  0.00    +0.000 C 
ATOM     15  C   UNL     1      10.415  15.299  18.613  0.00  0.00    +0.000 C 
ATOM     16  C   UNL     1      11.356  15.675  17.459  0.00  0.00    +0.000 C 
ATOM     17  C   UNL     1       9.008  15.817  18.280  0.00  0.00    +0.000 C 
ATOM     18  O   UNL     1      10.384  13.869  18.670  0.00  0.00    +0.000 OA
ENDROOT
BRANCH   8  19
ATOM     19  C   UNL     1       9.694  11.102  18.476  0.00  0.00    +0.000 C 
ATOM     20  O   UNL     1      10.588  11.343  17.673  0.00  0.00    +0.000 OA
BRANCH  19  21
ATOM     21  C   UNL     1       8.699  10.014  18.191  0.00  0.00    +0.000 C 
ATOM     22  C   UNL     1       8.928   8.748  18.518  0.00  0.00    +0.000 C 
BRANCH  22  23
ATOM     23  C   UNL     1       7.932   7.702  18.253  0.00  0.00    +0.000 A 
ATOM     24  C   UNL     1       8.006   6.479  18.926  0.00  0.00    +0.000 A 
ATOM     25  C   UNL     1       7.032   5.495  18.715  0.00  0.00    +0.000 A 
ATOM     26  C   UNL     1       5.995   5.730  17.815  0.00  0.00    +0.000 A 
ATOM     27 BR   UNL     1       4.664   4.413  17.551  0.00  0.00    +0.000 Br
ATOM     28  C   UNL     1       5.930   6.930  17.109  0.00  0.00    +0.000 A 
ATOM     29  C   UNL     1       6.902   7.913  17.326  0.00  0.00    +0.000 A 
ENDBRANCH  22  23
ENDBRANCH  19  21
ENDBRANCH   8  19
TORSDOF 3
ENDMDL
MODEL 6
REMARK VINA RESULT:      -7.9      2.475      3.792
REMARK  Name = 
REMARK  7 active torsions:
REMARK  status: ('A' for Active; 'I' for Inactive)
REMARK    1  A    between atoms: C_1  and  C_2
REMARK    2  A    between atoms: C_2  and  C_3
REMARK    3  A    between atoms: C_8  and  C_9
REMARK    4  A    between atoms: C_9  and  C_11
REMARK    5  A    between atoms: C_12  and  C_13
REMARK    6  A    between atoms: C_26  and  C_27
REMARK    7  A    between atoms: C_26  and  C_28
REMARK                            x       y       z     vdW  Elec       q    Type
REMARK                         _______ _______ _______ _____ _____    ______ ____
ROOT
ATOM      1  C   UNL     1      -6.342  11.705  18.851  0.00  0.00    +0.000 C 
ATOM      2  C   UNL     1      -5.008  11.358  18.176  0.00  0.00    +0.000 C 
ATOM      3  C   UNL     1      -4.957  12.074  16.816  0.00  0.00    +0.000 C 
ATOM      4  C   UNL     1      -4.873   9.835  18.068  0.00  0.00    +0.000 C 
ATOM      5  C   UNL     1      -3.523   9.462  17.471  0.00  0.00    +0.000 C 
ATOM      6  C   UNL     1      -2.418  10.278  18.089  0.00  0.00    +0.000 A 
ATOM      7  C   UNL     1      -1.073   9.910  17.881  0.00  0.00    +0.000 A 
ATOM      8  C   UNL     1      -0.011  10.658  18.439  0.00  0.00    +0.000 A 
ATOM      9  C   UNL     1      -0.332  11.800  19.199  0.00  0.00    +0.000 A 
ATOM     10  C   UNL     1      -1.677  12.165  19.425  0.00  0.00    +0.000 A 
ATOM     11  C   UNL     1      -2.709  11.421  18.831  0.00  0.00    +0.000 A 
ATOM     12  O   UNL     1      -3.983  11.888  19.032  0.00  0.00    +0.000 OA
ATOM     13  C   UNL     1      -2.032  13.375  20.246  0.00  0.00    +0.000 C 
ATOM     14  C   UNL     1      -0.841  13.862  21.047  0.00  0.00    +0.000 C 
ATOM     15  C   UNL     1       0.411  13.872  20.173  0.00  0.00    +0.000 C 
ATOM     16  C   UNL     1       1.605  14.307  21.036  0.00  0.00    +0.000 C 
ATOM     17  C   UNL     1       0.313  14.821  18.969  0.00  0.00    +0.000 C 
ATOM     18  O   UNL     1       0.701  12.551  19.704  0.00  0.00    +0.000 OA
ENDROOT
BRANCH   8  19
ATOM     19  C   UNL     1       1.423  10.253  18.165  0.00  0.00    +0.000 C 
ATOM     20  O   UNL     1       2.296  11.097  18.002  0.00  0.00    +0.000 OA
BRANCH  19  21
ATOM     21  C   UNL     1       1.758   8.793  18.063  0.00  0.00    +0.000 C 
ATOM     22  C   UNL     1       2.156   8.088  19.115  0.00  0.00    +0.000 C 
BRANCH  22  23
ATOM     23  C   UNL     1       2.457   6.655  19.000  0.00  0.00    +0.000 A 
ATOM     24  C   UNL     1       2.177   5.794  20.066  0.00  0.00    +0.000 A 
ATOM     25  C   UNL     1       2.415   4.419  19.945  0.00  0.00    +0.000 A 
ATOM     26  C   UNL     1       2.951   3.911  18.765  0.00  0.00    +0.000 A 
ATOM     27 BR   UNL     1       3.246   2.050  18.592  0.00  0.00    +0.000 Br
ATOM     28  C   UNL     1       3.269   4.762  17.709  0.00  0.00    +0.000 A 
ATOM     29  C   UNL     1       3.026   6.134  17.830  0.00  0.00    +0.000 A 
ENDBRANCH  22  23
ENDBRANCH  19  21
ENDBRANCH   8  19
TORSDOF 3
ENDMDL
MODEL 7
REMARK VINA RESULT:      -7.8      4.044      9.760
REMARK  Name = 
REMARK  7 active torsions:
REMARK  status: ('A' for Active; 'I' for Inactive)
REMARK    1  A    between atoms: C_1  and  C_2
REMARK    2  A    between atoms: C_2  and  C_3
REMARK    3  A    between atoms: C_8  and  C_9
REMARK    4  A    between atoms: C_9  and  C_11
REMARK    5  A    between atoms: C_12  and  C_13
REMARK    6  A    between atoms: C_26  and  C_27
REMARK    7  A    between atoms: C_26  and  C_28
REMARK                            x       y       z     vdW  Elec       q    Type
REMARK                         _______ _______ _______ _____ _____    ______ ____
ROOT
ATOM      1  C   UNL     1       7.184   4.001  15.613  0.00  0.00    +0.000 C 
ATOM      2  C   UNL     1       5.977   4.870  15.991  0.00  0.00    +0.000 C 
ATOM      3  C   UNL     1       4.929   4.751  14.872  0.00  0.00    +0.000 C 
ATOM      4  C   UNL     1       6.443   6.310  16.238  0.00  0.00    +0.000 C 
ATOM      5  C   UNL     1       5.276   7.176  16.691  0.00  0.00    +0.000 C 
ATOM      6  C   UNL     1       4.446   6.462  17.724  0.00  0.00    +0.000 A 
ATOM      7  C   UNL     1       3.485   7.177  18.469  0.00  0.00    +0.000 A 
ATOM      8  C   UNL     1       2.681   6.537  19.440  0.00  0.00    +0.000 A 
ATOM      9  C   UNL     1       2.854   5.151  19.634  0.00  0.00    +0.000 A 
ATOM     10  C   UNL     1       3.826   4.433  18.904  0.00  0.00    +0.000 A 
ATOM     11  C   UNL     1       4.585   5.090  17.924  0.00  0.00    +0.000 A 
ATOM     12  O   UNL     1       5.449   4.305  17.202  0.00  0.00    +0.000 OA
ATOM     13  C   UNL     1       4.027   2.957  19.113  0.00  0.00    +0.000 C 
ATOM     14  C   UNL     1       3.363   2.489  20.392  0.00  0.00    +0.000 C 
ATOM     15  C   UNL     1       1.965   3.093  20.511  0.00  0.00    +0.000 C 
ATOM     16  C   UNL     1       1.354   2.649  21.847  0.00  0.00    +0.000 C 
ATOM     17  C   UNL     1       1.015   2.672  19.380  0.00  0.00    +0.000 C 
ATOM     18  O   UNL     1       2.043   4.522  20.547  0.00  0.00    +0.000 OA
ENDROOT
BRANCH   8  19
ATOM     19  C   UNL     1       1.636   7.330  20.196  0.00  0.00    +0.000 C 
ATOM     20  O   UNL     1       0.958   6.804  21.072  0.00  0.00    +0.000 OA
BRANCH  19  21
ATOM     21  C   UNL     1       1.415   8.770  19.836  0.00  0.00    +0.000 C 
ATOM     22  C   UNL     1       0.494   9.512  20.438  0.00  0.00    +0.000 C 
BRANCH  22  23
ATOM     23  C   UNL     1       0.310  10.927  20.087  0.00  0.00    +0.000 A 
ATOM     24  C   UNL     1       1.039  11.914  20.758  0.00  0.00    +0.000 A 
ATOM     25  C   UNL     1       0.906  13.260  20.396  0.00  0.00    +0.000 A 
ATOM     26  C   UNL     1       0.028  13.619  19.376  0.00  0.00    +0.000 A 
ATOM     27 BR   UNL     1      -0.131  15.434  18.868  0.00  0.00    +0.000 Br
ATOM     28  C   UNL     1      -0.733  12.650  18.725  0.00  0.00    +0.000 A 
ATOM     29  C   UNL     1      -0.594  11.305  19.085  0.00  0.00    +0.000 A 
ENDBRANCH  22  23
ENDBRANCH  19  21
ENDBRANCH   8  19
TORSDOF 3
ENDMDL
MODEL 8
REMARK VINA RESULT:      -7.8      2.110      3.205
REMARK  Name = 
REMARK  7 active torsions:
REMARK  status: ('A' for Active; 'I' for Inactive)
REMARK    1  A    between atoms: C_1  and  C_2
REMARK    2  A    between atoms: C_2  and  C_3
REMARK    3  A    between atoms: C_8  and  C_9
REMARK    4  A    between atoms: C_9  and  C_11
REMARK    5  A    between atoms: C_12  and  C_13
REMARK    6  A    between atoms: C_26  and  C_27
REMARK    7  A    between atoms: C_26  and  C_28
REMARK                            x       y       z     vdW  Elec       q    Type
REMARK                         _______ _______ _______ _____ _____    ______ ____
ROOT
ATOM      1  C   UNL     1      -3.690  14.253  22.936  0.00  0.00    +0.000 C 
ATOM      2  C   UNL     1      -2.605  13.240  22.550  0.00  0.00    +0.000 C 
ATOM      3  C   UNL     1      -2.850  11.946  23.343  0.00  0.00    +0.000 C 
ATOM      4  C   UNL     1      -1.222  13.854  22.798  0.00  0.00    +0.000 C 
ATOM      5  C   UNL     1      -0.126  12.897  22.350  0.00  0.00    +0.000 C 
ATOM      6  C   UNL     1      -0.456  12.293  21.010  0.00  0.00    +0.000 A 
ATOM      7  C   UNL     1       0.536  11.595  20.292  0.00  0.00    +0.000 A 
ATOM      8  C   UNL     1       0.260  11.007  19.036  0.00  0.00    +0.000 A 
ATOM      9  C   UNL     1      -1.048  11.122  18.525  0.00  0.00    +0.000 A 
ATOM     10  C   UNL     1      -2.042  11.833  19.231  0.00  0.00    +0.000 A 
ATOM     11  C   UNL     1      -1.746  12.377  20.490  0.00  0.00    +0.000 A 
ATOM     12  O   UNL     1      -2.788  12.981  21.148  0.00  0.00    +0.000 OA
ATOM     13  C   UNL     1      -3.439  11.973  18.688  0.00  0.00    +0.000 C 
ATOM     14  C   UNL     1      -3.494  11.608  17.219  0.00  0.00    +0.000 C 
ATOM     15  C   UNL     1      -2.700  10.327  16.965  0.00  0.00    +0.000 C 
ATOM     16  C   UNL     1      -2.726  10.028  15.459  0.00  0.00    +0.000 C 
ATOM     17  C   UNL     1      -3.252   9.103  17.711  0.00  0.00    +0.000 C 
ATOM     18  O   UNL     1      -1.327  10.514  17.325  0.00  0.00    +0.000 OA
ENDROOT
BRANCH   8  19
ATOM     19  C   UNL     1       1.342  10.236  18.309  0.00  0.00    +0.000 C 
ATOM     20  O   UNL     1       2.077  10.792  17.501  0.00  0.00    +0.000 OA
BRANCH  19  21
ATOM     21  C   UNL     1       1.483   8.764  18.568  0.00  0.00    +0.000 C 
ATOM     22  C   UNL     1       2.421   8.033  17.976  0.00  0.00    +0.000 C 
BRANCH  22  23
ATOM     23  C   UNL     1       2.558   6.599  18.262  0.00  0.00    +0.000 A 
ATOM     24  C   UNL     1       1.594   5.699  17.798  0.00  0.00    +0.000 A 
ATOM     25  C   UNL     1       1.743   4.324  18.023  0.00  0.00    +0.000 A 
ATOM     26  C   UNL     1       2.847   3.855  18.730  0.00  0.00    +0.000 A 
ATOM     27 BR   UNL     1       3.063   1.997  19.009  0.00  0.00    +0.000 Br
ATOM     28  C   UNL     1       3.796   4.744  19.230  0.00  0.00    +0.000 A 
ATOM     29  C   UNL     1       3.647   6.116  18.999  0.00  0.00    +0.000 A 
ENDBRANCH  22  23
ENDBRANCH  19  21
ENDBRANCH   8  19
TORSDOF 3
ENDMDL
MODEL 9
REMARK VINA RESULT:      -7.7      2.180      3.217
REMARK  Name = 
REMARK  7 active torsions:
REMARK  status: ('A' for Active; 'I' for Inactive)
REMARK    1  A    between atoms: C_1  and  C_2
REMARK    2  A    between atoms: C_2  and  C_3
REMARK    3  A    between atoms: C_8  and  C_9
REMARK    4  A    between atoms: C_9  and  C_11
REMARK    5  A    between atoms: C_12  and  C_13
REMARK    6  A    between atoms: C_26  and  C_27
REMARK    7  A    between atoms: C_26  and  C_28
REMARK                            x       y       z     vdW  Elec       q    Type
REMARK                         _______ _______ _______ _____ _____    ______ ____
ROOT
ATOM      1  C   UNL     1      -5.821  13.748  23.501  0.00  0.00    +0.000 C 
ATOM      2  C   UNL     1      -4.378  13.407  23.107  0.00  0.00    +0.000 C 
ATOM      3  C   UNL     1      -3.968  12.121  23.844  0.00  0.00    +0.000 C 
ATOM      4  C   UNL     1      -3.469  14.602  23.418  0.00  0.00    +0.000 C 
ATOM      5  C   UNL     1      -2.044  14.319  22.964  0.00  0.00    +0.000 C 
ATOM      6  C   UNL     1      -2.030  13.694  21.594  0.00  0.00    +0.000 A 
ATOM      7  C   UNL     1      -0.820  13.600  20.877  0.00  0.00    +0.000 A 
ATOM      8  C   UNL     1      -0.768  13.012  19.593  0.00  0.00    +0.000 A 
ATOM      9  C   UNL     1      -1.965  12.501  19.050  0.00  0.00    +0.000 A 
ATOM     10  C   UNL     1      -3.183  12.607  19.754  0.00  0.00    +0.000 A 
ATOM     11  C   UNL     1      -3.196  13.167  21.041  0.00  0.00    +0.000 A 
ATOM     12  O   UNL     1      -4.404  13.158  21.692  0.00  0.00    +0.000 OA
ATOM     13  C   UNL     1      -4.468  12.077  19.179  0.00  0.00    +0.000 C 
ATOM     14  C   UNL     1      -4.331  11.800  17.695  0.00  0.00    +0.000 C 
ATOM     15  C   UNL     1      -3.013  11.079  17.415  0.00  0.00    +0.000 C 
ATOM     16  C   UNL     1      -2.881  10.876  15.899  0.00  0.00    +0.000 C 
ATOM     17  C   UNL     1      -2.905   9.708  18.099  0.00  0.00    +0.000 C 
ATOM     18  O   UNL     1      -1.906  11.891  17.820  0.00  0.00    +0.000 OA
ENDROOT
BRANCH   8  19
ATOM     19  C   UNL     1       0.556  12.897  18.867  0.00  0.00    +0.000 C 
ATOM     20  O   UNL     1       1.088  13.882  18.367  0.00  0.00    +0.000 OA
BRANCH  19  21
ATOM     21  C   UNL     1       1.200  11.547  18.739  0.00  0.00    +0.000 C 
ATOM     22  C   UNL     1       0.807  10.509  19.468  0.00  0.00    +0.000 C 
BRANCH  22  23
ATOM     23  C   UNL     1       1.434   9.189  19.310  0.00  0.00    +0.000 A 
ATOM     24  C   UNL     1       1.464   8.297  20.387  0.00  0.00    +0.000 A 
ATOM     25  C   UNL     1       2.016   7.019  20.230  0.00  0.00    +0.000 A 
ATOM     26  C   UNL     1       2.555   6.644  19.002  0.00  0.00    +0.000 A 
ATOM     27 BR   UNL     1       3.274   4.908  18.783  0.00  0.00    +0.000 Br
ATOM     28  C   UNL     1       2.566   7.537  17.933  0.00  0.00    +0.000 A 
ATOM     29  C   UNL     1       2.009   8.811  18.090  0.00  0.00    +0.000 A 
ENDBRANCH  22  23
ENDBRANCH  19  21
ENDBRANCH   8  19
TORSDOF 3
ENDMDL
