MODEL 1
REMARK VINA RESULT:      -7.7      0.000      0.000
REMARK  Name = 
REMARK  8 active torsions:
REMARK  status: ('A' for Active; 'I' for Inactive)
REMARK    1  A    between atoms: C_1  and  C_2
REMARK    2  A    between atoms: C_2  and  C_3
REMARK    3  A    between atoms: C_3  and  S_4
REMARK    4  A    between atoms: S_4  and  C_5
REMARK    5  A    between atoms: N_8  and  C_9
REMARK    6  A    between atoms: N_19  and  C_20
REMARK    7  A    between atoms: C_20  and  C_21
REMARK    8  A    between atoms: C_21  and  C_23
REMARK                            x       y       z     vdW  Elec       q    Type
REMARK                         _______ _______ _______ _____ _____    ______ ____
ROOT
ATOM      1  C   UNL     1       2.117   6.174  19.966  0.00  0.00    +0.000 A 
ATOM      2  N   UNL     1       2.943   6.007  18.917  0.00  0.00    +0.000 NA
ATOM      3  C   UNL     1       3.143   7.023  18.037  0.00  0.00    +0.000 A 
ATOM      4  N   UNL     1       4.008   6.836  16.945  0.00  0.00    +0.000 N 
ATOM      5  C   UNL     1       2.465   8.220  18.282  0.00  0.00    +0.000 A 
ATOM      6  C   UNL     1       2.360   9.506  17.715  0.00  0.00    +0.000 A 
ATOM      7  N   UNL     1       1.549  10.315  18.404  0.00  0.00    +0.000 NA
ATOM      8  N   UNL     1       1.152   9.550  19.450  0.00  0.00    +0.000 N 
ATOM      9  C   UNL     1       1.653   8.275  19.402  0.00  0.00    +0.000 A 
ATOM     10  N   UNL     1       1.428   7.285  20.279  0.00  0.00    +0.000 NA
ATOM     11  H   UNL     1       4.091   7.647  16.344  0.00  0.00    +0.000 HD
ENDROOT
BRANCH   4  12
ATOM     12  C   UNL     1       5.189   6.063  16.944  0.00  0.00    +0.000 A 
ATOM     13  C   UNL     1       5.495   5.277  15.824  0.00  0.00    +0.000 A 
ATOM     14  C   UNL     1       6.670   4.520  15.782  0.00  0.00    +0.000 A 
ATOM     15  C   UNL     1       7.561   4.553  16.854  0.00  0.00    +0.000 A 
ATOM     16  C   UNL     1       7.268   5.339  17.966  0.00  0.00    +0.000 A 
ATOM     17 CL   UNL     1       8.369   5.403  19.287  0.00  0.00    +0.000 Cl
ATOM     18  C   UNL     1       6.093   6.086  18.013  0.00  0.00    +0.000 A 
ENDBRANCH   4  12
BRANCH   1  19
ATOM     19  S   UNL     1       1.984   4.811  21.097  0.00  0.00    +0.000 S 
BRANCH  19  20
ATOM     20  C   UNL     1       0.923   3.746  20.070  0.00  0.00    +0.000 C 
BRANCH  20  22
ATOM     21  C   UNL     1       1.945   2.344  18.253  0.00  0.00    +0.000 C 
ATOM     22  C   UNL     1       1.642   2.441  19.741  0.00  0.00    +0.000 C 
ENDBRANCH  20  22
ENDBRANCH  19  20
ENDBRANCH   1  19
BRANCH   8  23
ATOM     23  C   UNL     1       0.261  10.106  20.452  0.00  0.00    +0.000 C 
BRANCH  23  24
ATOM     24  C   UNL     1      -0.708  11.169  19.920  0.00  0.00    +0.000 C 
ATOM     25 CL   UNL     1      -1.754  10.523  18.603  0.00  0.00    +0.000 Cl
BRANCH  24  26
ATOM     26  C   UNL     1      -1.597  11.751  21.009  0.00  0.00    +0.000 A 
ATOM     27  C   UNL     1      -2.714  12.527  20.662  0.00  0.00    +0.000 A 
ATOM     28  C   UNL     1      -3.569  13.030  21.647  0.00  0.00    +0.000 A 
ATOM     29  C   UNL     1      -3.319  12.765  22.990  0.00  0.00    +0.000 A 
ATOM     30  C   UNL     1      -2.210  12.008  23.355  0.00  0.00    +0.000 A 
ATOM     31  C   UNL     1      -1.350  11.507  22.372  0.00  0.00    +0.000 A 
ENDBRANCH  24  26
ENDBRANCH  23  24
ENDBRANCH   8  23
TORSDOF 7
ENDMDL
MODEL 2
REMARK VINA RESULT:      -7.7      2.494      8.852
REMARK  Name = 
REMARK  8 active torsions:
REMARK  status: ('A' for Active; 'I' for Inactive)
REMARK    1  A    between atoms: C_1  and  C_2
REMARK    2  A    between atoms: C_2  and  C_3
REMARK    3  A    between atoms: C_3  and  S_4
REMARK    4  A    between atoms: S_4  and  C_5
REMARK    5  A    between atoms: N_8  and  C_9
REMARK    6  A    between atoms: N_19  and  C_20
REMARK    7  A    between atoms: C_20  and  C_21
REMARK    8  A    between atoms: C_21  and  C_23
REMARK                            x       y       z     vdW  Elec       q    Type
REMARK                         _______ _______ _______ _____ _____    ______ ____
ROOT
ATOM      1  C   UNL     1       0.103   9.457  21.045  0.00  0.00    +0.000 A 
ATOM      2  N   UNL     1      -0.534  10.206  20.125  0.00  0.00    +0.000 NA
ATOM      3  C   UNL     1      -0.138  10.174  18.826  0.00  0.00    +0.000 A 
ATOM      4  N   UNL     1      -0.809  10.961  17.875  0.00  0.00    +0.000 N 
ATOM      5  C   UNL     1       0.936   9.337  18.508  0.00  0.00    +0.000 A 
ATOM      6  C   UNL     1       1.667   8.950  17.367  0.00  0.00    +0.000 A 
ATOM      7  N   UNL     1       2.622   8.054  17.639  0.00  0.00    +0.000 NA
ATOM      8  N   UNL     1       2.480   7.835  18.969  0.00  0.00    +0.000 N 
ATOM      9  C   UNL     1       1.500   8.605  19.539  0.00  0.00    +0.000 A 
ATOM     10  N   UNL     1       1.137   8.627  20.830  0.00  0.00    +0.000 NA
ATOM     11  H   UNL     1      -0.441  10.873  16.935  0.00  0.00    +0.000 HD
ENDROOT
BRANCH   4  12
ATOM     12  C   UNL     1      -2.190  11.257  17.868  0.00  0.00    +0.000 A 
ATOM     13  C   UNL     1      -2.969  10.874  16.768  0.00  0.00    +0.000 A 
ATOM     14  C   UNL     1      -4.344  11.130  16.742  0.00  0.00    +0.000 A 
ATOM     15  C   UNL     1      -4.958  11.758  17.824  0.00  0.00    +0.000 A 
ATOM     16  C   UNL     1      -4.191  12.133  18.925  0.00  0.00    +0.000 A 
ATOM     17 CL   UNL     1      -4.941  12.893  20.276  0.00  0.00    +0.000 Cl
ATOM     18  C   UNL     1      -2.820  11.888  18.948  0.00  0.00    +0.000 A 
ENDBRANCH   4  12
BRANCH   1  19
ATOM     19  S   UNL     1      -0.542   9.513  22.699  0.00  0.00    +0.000 S 
BRANCH  19  20
ATOM     20  C   UNL     1      -0.837  11.307  22.783  0.00  0.00    +0.000 C 
BRANCH  20  22
ATOM     21  C   UNL     1      -2.565  13.079  23.220  0.00  0.00    +0.000 C 
ATOM     22  C   UNL     1      -2.259  11.589  23.258  0.00  0.00    +0.000 C 
ENDBRANCH  20  22
ENDBRANCH  19  20
ENDBRANCH   1  19
BRANCH   8  23
ATOM     23  C   UNL     1       3.348   6.882  19.638  0.00  0.00    +0.000 C 
BRANCH  23  24
ATOM     24  C   UNL     1       3.581   5.580  18.861  0.00  0.00    +0.000 C 
ATOM     25 CL   UNL     1       5.211   4.888  19.190  0.00  0.00    +0.000 Cl
BRANCH  24  26
ATOM     26  C   UNL     1       2.531   4.521  19.161  0.00  0.00    +0.000 A 
ATOM     27  C   UNL     1       2.054   3.696  18.131  0.00  0.00    +0.000 A 
ATOM     28  C   UNL     1       1.124   2.685  18.396  0.00  0.00    +0.000 A 
ATOM     29  C   UNL     1       0.660   2.488  19.694  0.00  0.00    +0.000 A 
ATOM     30  C   UNL     1       1.111   3.304  20.726  0.00  0.00    +0.000 A 
ATOM     31  C   UNL     1       2.037   4.318  20.463  0.00  0.00    +0.000 A 
ENDBRANCH  24  26
ENDBRANCH  23  24
ENDBRANCH   8  23
TORSDOF 7
ENDMDL
MODEL 3
REMARK VINA RESULT:      -7.6      3.229      5.293
REMARK  Name = 
REMARK  8 active torsions:
REMARK  status: ('A' for Active; 'I' for Inactive)
REMARK    1  A    between atoms: C_1  and  C_2
REMARK    2  A    between atoms: C_2  and  C_3
REMARK    3  A    between atoms: C_3  and  S_4
REMARK    4  A    between atoms: S_4  and  C_5
REMARK    5  A    between atoms: N_8  and  C_9
REMARK    6  A    between atoms: N_19  and  C_20
REMARK    7  A    between atoms: C_20  and  C_21
REMARK    8  A    between atoms: C_21  and  C_23
REMARK                            x       y       z     vdW  Elec       q    Type
REMARK                         _______ _______ _______ _____ _____    ______ ____
ROOT
ATOM      1  C   UNL     1      -0.338  10.054  19.232  0.00  0.00    +0.000 A 
ATOM      2  N   UNL     1       0.602   9.098  19.352  0.00  0.00    +0.000 NA
ATOM      3  C   UNL     1       1.057   8.741  20.581  0.00  0.00    +0.000 A 
ATOM      4  N   UNL     1       2.041   7.743  20.694  0.00  0.00    +0.000 N 
ATOM      5  C   UNL     1       0.504   9.401  21.682  0.00  0.00    +0.000 A 
ATOM      6  C   UNL     1       0.612   9.377  23.087  0.00  0.00    +0.000 A 
ATOM      7  N   UNL     1      -0.210  10.244  23.687  0.00  0.00    +0.000 NA
ATOM      8  N   UNL     1      -0.882  10.809  22.655  0.00  0.00    +0.000 N 
ATOM      9  C   UNL     1      -0.466  10.356  21.431  0.00  0.00    +0.000 A 
ATOM     10  N   UNL     1      -0.925  10.737  20.229  0.00  0.00    +0.000 NA
ATOM     11  H   UNL     1       2.319   7.547  21.648  0.00  0.00    +0.000 HD
ENDROOT
BRANCH   4  12
ATOM     12  C   UNL     1       2.164   6.603  19.871  0.00  0.00    +0.000 A 
ATOM     13  C   UNL     1       2.902   6.690  18.682  0.00  0.00    +0.000 A 
ATOM     14  C   UNL     1       3.064   5.572  17.857  0.00  0.00    +0.000 A 
ATOM     15  C   UNL     1       2.503   4.349  18.221  0.00  0.00    +0.000 A 
ATOM     16  C   UNL     1       1.777   4.253  19.405  0.00  0.00    +0.000 A 
ATOM     17 CL   UNL     1       1.096   2.743  19.875  0.00  0.00    +0.000 Cl
ATOM     18  C   UNL     1       1.607   5.368  20.223  0.00  0.00    +0.000 A 
ENDBRANCH   4  12
BRANCH   1  19
ATOM     19  S   UNL     1      -0.920  10.393  17.587  0.00  0.00    +0.000 S 
BRANCH  19  20
ATOM     20  C   UNL     1      -2.657   9.912  17.841  0.00  0.00    +0.000 C 
BRANCH  20  22
ATOM     21  C   UNL     1      -2.798  10.483  15.398  0.00  0.00    +0.000 C 
ATOM     22  C   UNL     1      -3.533  10.485  16.731  0.00  0.00    +0.000 C 
ENDBRANCH  20  22
ENDBRANCH  19  20
ENDBRANCH   1  19
BRANCH   8  23
ATOM     23  C   UNL     1      -1.902  11.808  22.921  0.00  0.00    +0.000 C 
BRANCH  23  24
ATOM     24  C   UNL     1      -1.356  13.166  23.381  0.00  0.00    +0.000 C 
ATOM     25 CL   UNL     1      -0.262  13.897  22.151  0.00  0.00    +0.000 Cl
BRANCH  24  26
ATOM     26  C   UNL     1      -2.459  14.162  23.707  0.00  0.00    +0.000 A 
ATOM     27  C   UNL     1      -3.667  14.129  22.994  0.00  0.00    +0.000 A 
ATOM     28  C   UNL     1      -4.709  15.005  23.311  0.00  0.00    +0.000 A 
ATOM     29  C   UNL     1      -4.558  15.925  24.346  0.00  0.00    +0.000 A 
ATOM     30  C   UNL     1      -3.363  15.981  25.056  0.00  0.00    +0.000 A 
ATOM     31  C   UNL     1      -2.317  15.110  24.738  0.00  0.00    +0.000 A 
ENDBRANCH  24  26
ENDBRANCH  23  24
ENDBRANCH   8  23
TORSDOF 7
ENDMDL
MODEL 4
REMARK VINA RESULT:      -7.6      2.608      9.099
REMARK  Name = 
REMARK  8 active torsions:
REMARK  status: ('A' for Active; 'I' for Inactive)
REMARK    1  A    between atoms: C_1  and  C_2
REMARK    2  A    between atoms: C_2  and  C_3
REMARK    3  A    between atoms: C_3  and  S_4
REMARK    4  A    between atoms: S_4  and  C_5
REMARK    5  A    between atoms: N_8  and  C_9
REMARK    6  A    between atoms: N_19  and  C_20
REMARK    7  A    between atoms: C_20  and  C_21
REMARK    8  A    between atoms: C_21  and  C_23
REMARK                            x       y       z     vdW  Elec       q    Type
REMARK                         _______ _______ _______ _____ _____    ______ ____
ROOT
ATOM      1  C   UNL     1       0.022   9.822  21.308  0.00  0.00    +0.000 A 
ATOM      2  N   UNL     1      -0.656  10.550  20.401  0.00  0.00    +0.000 NA
ATOM      3  C   UNL     1      -0.369  10.430  19.078  0.00  0.00    +0.000 A 
ATOM      4  N   UNL     1      -1.082  11.197  18.141  0.00  0.00    +0.000 N 
ATOM      5  C   UNL     1       0.638   9.528  18.724  0.00  0.00    +0.000 A 
ATOM      6  C   UNL     1       1.257   9.047  17.553  0.00  0.00    +0.000 A 
ATOM      7  N   UNL     1       2.191   8.123  17.799  0.00  0.00    +0.000 NA
ATOM      8  N   UNL     1       2.150   7.982  19.146  0.00  0.00    +0.000 N 
ATOM      9  C   UNL     1       1.254   8.827  19.747  0.00  0.00    +0.000 A 
ATOM     10  N   UNL     1       0.999   8.934  21.060  0.00  0.00    +0.000 NA
ATOM     11  H   UNL     1      -0.797  11.042  17.181  0.00  0.00    +0.000 HD
ENDROOT
BRANCH   4  12
ATOM     12  C   UNL     1      -2.445  11.556  18.227  0.00  0.00    +0.000 A 
ATOM     13  C   UNL     1      -3.299  11.275  17.152  0.00  0.00    +0.000 A 
ATOM     14  C   UNL     1      -4.659  11.597  17.216  0.00  0.00    +0.000 A 
ATOM     15  C   UNL     1      -5.183  12.187  18.364  0.00  0.00    +0.000 A 
ATOM     16  C   UNL     1      -4.342  12.461  19.440  0.00  0.00    +0.000 A 
ATOM     17 CL   UNL     1      -4.982  13.173  20.871  0.00  0.00    +0.000 Cl
ATOM     18  C   UNL     1      -2.986  12.150  19.373  0.00  0.00    +0.000 A 
ENDBRANCH   4  12
BRANCH   1  19
ATOM     19  S   UNL     1      -0.483   9.996  23.002  0.00  0.00    +0.000 S 
BRANCH  19  20
ATOM     20  C   UNL     1      -1.691  11.336  22.759  0.00  0.00    +0.000 C 
BRANCH  20  22
ATOM     21  C   UNL     1      -2.098  13.787  23.127  0.00  0.00    +0.000 C 
ATOM     22  C   UNL     1      -1.048  12.688  23.050  0.00  0.00    +0.000 C 
ENDBRANCH  20  22
ENDBRANCH  19  20
ENDBRANCH   1  19
BRANCH   8  23
ATOM     23  C   UNL     1       3.028   7.026  19.797  0.00  0.00    +0.000 C 
BRANCH  23  24
ATOM     24  C   UNL     1       3.492   5.875  18.896  0.00  0.00    +0.000 C 
ATOM     25 CL   UNL     1       5.185   5.379  19.264  0.00  0.00    +0.000 Cl
BRANCH  24  26
ATOM     26  C   UNL     1       2.592   4.652  18.996  0.00  0.00    +0.000 A 
ATOM     27  C   UNL     1       1.700   4.524  20.071  0.00  0.00    +0.000 A 
ATOM     28  C   UNL     1       0.832   3.431  20.155  0.00  0.00    +0.000 A 
ATOM     29  C   UNL     1       0.845   2.452  19.165  0.00  0.00    +0.000 A 
ATOM     30  C   UNL     1       1.732   2.555  18.098  0.00  0.00    +0.000 A 
ATOM     31  C   UNL     1       2.604   3.644  18.014  0.00  0.00    +0.000 A 
ENDBRANCH  24  26
ENDBRANCH  23  24
ENDBRANCH   8  23
TORSDOF 7
ENDMDL
MODEL 5
REMARK VINA RESULT:      -7.6      2.419      9.122
REMARK  Name = 
REMARK  8 active torsions:
REMARK  status: ('A' for Active; 'I' for Inactive)
REMARK    1  A    between atoms: C_1  and  C_2
REMARK    2  A    between atoms: C_2  and  C_3
REMARK    3  A    between atoms: C_3  and  S_4
REMARK    4  A    between atoms: S_4  and  C_5
REMARK    5  A    between atoms: N_8  and  C_9
REMARK    6  A    between atoms: N_19  and  C_20
REMARK    7  A    between atoms: C_20  and  C_21
REMARK    8  A    between atoms: C_21  and  C_23
REMARK                            x       y       z     vdW  Elec       q    Type
REMARK                         _______ _______ _______ _____ _____    ______ ____
ROOT
ATOM      1  C   UNL     1       0.399   8.871  21.053  0.00  0.00    +0.000 A 
ATOM      2  N   UNL     1      -0.137   9.718  20.154  0.00  0.00    +0.000 NA
ATOM      3  C   UNL     1       0.340   9.754  18.882  0.00  0.00    +0.000 A 
ATOM      4  N   UNL     1      -0.226  10.643  17.952  0.00  0.00    +0.000 N 
ATOM      5  C   UNL     1       1.386   8.880  18.569  0.00  0.00    +0.000 A 
ATOM      6  C   UNL     1       2.167   8.532  17.449  0.00  0.00    +0.000 A 
ATOM      7  N   UNL     1       3.052   7.565  17.712  0.00  0.00    +0.000 NA
ATOM      8  N   UNL     1       2.814   7.262  19.011  0.00  0.00    +0.000 N 
ATOM      9  C   UNL     1       1.842   8.046  19.576  0.00  0.00    +0.000 A 
ATOM     10  N   UNL     1       1.399   7.999  20.841  0.00  0.00    +0.000 NA
ATOM     11  H   UNL     1       0.196  10.600  17.033  0.00  0.00    +0.000 HD
ENDROOT
BRANCH   4  12
ATOM     12  C   UNL     1      -1.585  11.018  17.884  0.00  0.00    +0.000 A 
ATOM     13  C   UNL     1      -2.347  10.642  16.770  0.00  0.00    +0.000 A 
ATOM     14  C   UNL     1      -3.702  10.977  16.684  0.00  0.00    +0.000 A 
ATOM     15  C   UNL     1      -4.315  11.678  17.720  0.00  0.00    +0.000 A 
ATOM     16  C   UNL     1      -3.567  12.048  18.835  0.00  0.00    +0.000 A 
ATOM     17 CL   UNL     1      -4.317  12.897  20.131  0.00  0.00    +0.000 Cl
ATOM     18  C   UNL     1      -2.215  11.723  18.918  0.00  0.00    +0.000 A 
ENDBRANCH   4  12
BRANCH   1  19
ATOM     19  S   UNL     1      -0.347   8.849  22.665  0.00  0.00    +0.000 S 
BRANCH  19  20
ATOM     20  C   UNL     1      -0.357  10.646  22.952  0.00  0.00    +0.000 C 
BRANCH  20  22
ATOM     21  C   UNL     1      -1.853  12.663  23.032  0.00  0.00    +0.000 C 
ATOM     22  C   UNL     1      -1.786  11.146  23.134  0.00  0.00    +0.000 C 
ENDBRANCH  20  22
ENDBRANCH  19  20
ENDBRANCH   1  19
BRANCH   8  23
ATOM     23  C   UNL     1       3.584   6.216  19.659  0.00  0.00    +0.000 C 
BRANCH  23  24
ATOM     24  C   UNL     1       3.542   4.860  18.944  0.00  0.00    +0.000 C 
ATOM     25 CL   UNL     1       2.016   4.642  18.012  0.00  0.00    +0.000 Cl
BRANCH  24  26
ATOM     26  C   UNL     1       4.721   4.654  18.005  0.00  0.00    +0.000 A 
ATOM     27  C   UNL     1       4.499   4.256  16.677  0.00  0.00    +0.000 A 
ATOM     28  C   UNL     1       5.567   4.109  15.787  0.00  0.00    +0.000 A 
ATOM     29  C   UNL     1       6.869   4.356  16.211  0.00  0.00    +0.000 A 
ATOM     30  C   UNL     1       7.111   4.739  17.527  0.00  0.00    +0.000 A 
ATOM     31  C   UNL     1       6.046   4.883  18.421  0.00  0.00    +0.000 A 
ENDBRANCH  24  26
ENDBRANCH  23  24
ENDBRANCH   8  23
TORSDOF 7
ENDMDL
MODEL 6
REMARK VINA RESULT:      -7.5      0.883      1.025
REMARK  Name = 
REMARK  8 active torsions:
REMARK  status: ('A' for Active; 'I' for Inactive)
REMARK    1  A    between atoms: C_1  and  C_2
REMARK    2  A    between atoms: C_2  and  C_3
REMARK    3  A    between atoms: C_3  and  S_4
REMARK    4  A    between atoms: S_4  and  C_5
REMARK    5  A    between atoms: N_8  and  C_9
REMARK    6  A    between atoms: N_19  and  C_20
REMARK    7  A    between atoms: C_20  and  C_21
REMARK    8  A    between atoms: C_21  and  C_23
REMARK                            x       y       z     vdW  Elec       q    Type
REMARK                         _______ _______ _______ _____ _____    ______ ____
ROOT
ATOM      1  C   UNL     1       2.124   6.206  20.053  0.00  0.00    +0.000 A 
ATOM      2  N   UNL     1       2.917   6.030  18.979  0.00  0.00    +0.000 NA
ATOM      3  C   UNL     1       3.074   7.031  18.075  0.00  0.00    +0.000 A 
ATOM      4  N   UNL     1       3.903   6.835  16.957  0.00  0.00    +0.000 N 
ATOM      5  C   UNL     1       2.387   8.224  18.320  0.00  0.00    +0.000 A 
ATOM      6  C   UNL     1       2.246   9.497  17.733  0.00  0.00    +0.000 A 
ATOM      7  N   UNL     1       1.447  10.309  18.435  0.00  0.00    +0.000 NA
ATOM      8  N   UNL     1       1.097   9.558  19.507  0.00  0.00    +0.000 N 
ATOM      9  C   UNL     1       1.613   8.289  19.466  0.00  0.00    +0.000 A 
ATOM     10  N   UNL     1       1.431   7.313  20.368  0.00  0.00    +0.000 NA
ATOM     11  H   UNL     1       3.955   7.636  16.339  0.00  0.00    +0.000 HD
ENDROOT
BRANCH   4  12
ATOM     12  C   UNL     1       5.094   6.078  16.930  0.00  0.00    +0.000 A 
ATOM     13  C   UNL     1       5.379   5.283  15.812  0.00  0.00    +0.000 A 
ATOM     14  C   UNL     1       6.562   4.541  15.744  0.00  0.00    +0.000 A 
ATOM     15  C   UNL     1       7.483   4.598  16.789  0.00  0.00    +0.000 A 
ATOM     16  C   UNL     1       7.212   5.393  17.899  0.00  0.00    +0.000 A 
ATOM     17 CL   UNL     1       8.350   5.488  19.187  0.00  0.00    +0.000 Cl
ATOM     18  C   UNL     1       6.029   6.126  17.972  0.00  0.00    +0.000 A 
ENDBRANCH   4  12
BRANCH   1  19
ATOM     19  S   UNL     1       2.049   4.863  21.213  0.00  0.00    +0.000 S 
BRANCH  19  20
ATOM     20  C   UNL     1       0.861   3.825  20.305  0.00  0.00    +0.000 C 
BRANCH  20  22
ATOM     21  C   UNL     1       1.535   2.363  18.375  0.00  0.00    +0.000 C 
ATOM     22  C   UNL     1       1.515   2.510  19.890  0.00  0.00    +0.000 C 
ENDBRANCH  20  22
ENDBRANCH  19  20
ENDBRANCH   1  19
BRANCH   8  23
ATOM     23  C   UNL     1       0.232  10.121  20.528  0.00  0.00    +0.000 C 
BRANCH  23  24
ATOM     24  C   UNL     1      -0.397  11.469  20.155  0.00  0.00    +0.000 C 
ATOM     25 CL   UNL     1      -1.893  11.259  19.172  0.00  0.00    +0.000 Cl
BRANCH  24  26
ATOM     26  C   UNL     1      -0.728  12.321  21.372  0.00  0.00    +0.000 A 
ATOM     27  C   UNL     1      -0.033  13.519  21.598  0.00  0.00    +0.000 A 
ATOM     28  C   UNL     1      -0.355  14.338  22.685  0.00  0.00    +0.000 A 
ATOM     29  C   UNL     1      -1.376  13.970  23.558  0.00  0.00    +0.000 A 
ATOM     30  C   UNL     1      -2.067  12.780  23.357  0.00  0.00    +0.000 A 
ATOM     31  C   UNL     1      -1.744  11.956  22.274  0.00  0.00    +0.000 A 
ENDBRANCH  24  26
ENDBRANCH  23  24
ENDBRANCH   8  23
TORSDOF 7
ENDMDL
MODEL 7
REMARK VINA RESULT:      -7.4      3.213      9.715
REMARK  Name = 
REMARK  8 active torsions:
REMARK  status: ('A' for Active; 'I' for Inactive)
REMARK    1  A    between atoms: C_1  and  C_2
REMARK    2  A    between atoms: C_2  and  C_3
REMARK    3  A    between atoms: C_3  and  S_4
REMARK    4  A    between atoms: S_4  and  C_5
REMARK    5  A    between atoms: N_8  and  C_9
REMARK    6  A    between atoms: N_19  and  C_20
REMARK    7  A    between atoms: C_20  and  C_21
REMARK    8  A    between atoms: C_21  and  C_23
REMARK                            x       y       z     vdW  Elec       q    Type
REMARK                         _______ _______ _______ _____ _____    ______ ____
ROOT
ATOM      1  C   UNL     1      -1.012  10.973  19.161  0.00  0.00    +0.000 A 
ATOM      2  N   UNL     1      -1.425  11.361  20.382  0.00  0.00    +0.000 NA
ATOM      3  C   UNL     1      -0.896  10.789  21.494  0.00  0.00    +0.000 A 
ATOM      4  N   UNL     1      -1.337  11.202  22.764  0.00  0.00    +0.000 N 
ATOM      5  C   UNL     1       0.079   9.806  21.303  0.00  0.00    +0.000 A 
ATOM      6  C   UNL     1       0.906   8.978  22.087  0.00  0.00    +0.000 A 
ATOM      7  N   UNL     1       1.714   8.205  21.354  0.00  0.00    +0.000 NA
ATOM      8  N   UNL     1       1.428   8.566  20.080  0.00  0.00    +0.000 N 
ATOM      9  C   UNL     1       0.431   9.503  19.999  0.00  0.00    +0.000 A 
ATOM     10  N   UNL     1      -0.083  10.043  18.883  0.00  0.00    +0.000 NA
ATOM     11  H   UNL     1      -0.888  10.717  23.532  0.00  0.00    +0.000 HD
ENDROOT
BRANCH   4  12
ATOM     12  C   UNL     1      -1.716  12.513  23.126  0.00  0.00    +0.000 A 
ATOM     13  C   UNL     1      -3.013  12.747  23.601  0.00  0.00    +0.000 A 
ATOM     14  C   UNL     1      -3.412  14.030  23.990  0.00  0.00    +0.000 A 
ATOM     15  C   UNL     1      -2.510  15.091  23.925  0.00  0.00    +0.000 A 
ATOM     16  C   UNL     1      -1.216  14.864  23.463  0.00  0.00    +0.000 A 
ATOM     17 CL   UNL     1      -0.087  16.162  23.396  0.00  0.00    +0.000 Cl
ATOM     18  C   UNL     1      -0.821  13.588  23.065  0.00  0.00    +0.000 A 
ENDBRANCH   4  12
BRANCH   1  19
ATOM     19  S   UNL     1      -1.710  11.837  17.775  0.00  0.00    +0.000 S 
BRANCH  19  20
ATOM     20  C   UNL     1      -3.397  11.165  17.895  0.00  0.00    +0.000 C 
BRANCH  20  22
ATOM     21  C   UNL     1      -2.920  10.692  15.474  0.00  0.00    +0.000 C 
ATOM     22  C   UNL     1      -3.999  10.991  16.505  0.00  0.00    +0.000 C 
ENDBRANCH  20  22
ENDBRANCH  19  20
ENDBRANCH   1  19
BRANCH   8  23
ATOM     23  C   UNL     1       2.139   7.944  18.978  0.00  0.00    +0.000 C 
BRANCH  23  24
ATOM     24  C   UNL     1       2.831   6.622  19.334  0.00  0.00    +0.000 C 
ATOM     25 CL   UNL     1       1.648   5.366  19.852  0.00  0.00    +0.000 Cl
BRANCH  24  26
ATOM     26  C   UNL     1       3.662   6.067  18.187  0.00  0.00    +0.000 A 
ATOM     27  C   UNL     1       3.688   4.685  17.945  0.00  0.00    +0.000 A 
ATOM     28  C   UNL     1       4.408   4.161  16.867  0.00  0.00    +0.000 A 
ATOM     29  C   UNL     1       5.112   5.011  16.018  0.00  0.00    +0.000 A 
ATOM     30  C   UNL     1       5.109   6.383  16.249  0.00  0.00    +0.000 A 
ATOM     31  C   UNL     1       4.393   6.909  17.329  0.00  0.00    +0.000 A 
ENDBRANCH  24  26
ENDBRANCH  23  24
ENDBRANCH   8  23
TORSDOF 7
ENDMDL
MODEL 8
REMARK VINA RESULT:      -7.4      2.930      9.562
REMARK  Name = 
REMARK  8 active torsions:
REMARK  status: ('A' for Active; 'I' for Inactive)
REMARK    1  A    between atoms: C_1  and  C_2
REMARK    2  A    between atoms: C_2  and  C_3
REMARK    3  A    between atoms: C_3  and  S_4
REMARK    4  A    between atoms: S_4  and  C_5
REMARK    5  A    between atoms: N_8  and  C_9
REMARK    6  A    between atoms: N_19  and  C_20
REMARK    7  A    between atoms: C_20  and  C_21
REMARK    8  A    between atoms: C_21  and  C_23
REMARK                            x       y       z     vdW  Elec       q    Type
REMARK                         _______ _______ _______ _____ _____    ______ ____
ROOT
ATOM      1  C   UNL     1       2.683   4.566  17.767  0.00  0.00    +0.000 A 
ATOM      2  N   UNL     1       2.518   5.747  18.392  0.00  0.00    +0.000 NA
ATOM      3  C   UNL     1       3.397   6.760  18.177  0.00  0.00    +0.000 A 
ATOM      4  N   UNL     1       3.216   7.989  18.836  0.00  0.00    +0.000 N 
ATOM      5  C   UNL     1       4.450   6.513  17.290  0.00  0.00    +0.000 A 
ATOM      6  C   UNL     1       5.548   7.205  16.741  0.00  0.00    +0.000 A 
ATOM      7  N   UNL     1       6.251   6.465  15.879  0.00  0.00    +0.000 NA
ATOM      8  N   UNL     1       5.576   5.290  15.845  0.00  0.00    +0.000 N 
ATOM      9  C   UNL     1       4.504   5.263  16.699  0.00  0.00    +0.000 A 
ATOM     10  N   UNL     1       3.658   4.242  16.902  0.00  0.00    +0.000 NA
ATOM     11  H   UNL     1       3.922   8.681  18.615  0.00  0.00    +0.000 HD
ENDROOT
BRANCH   4  12
ATOM     12  C   UNL     1       1.977   8.589  19.146  0.00  0.00    +0.000 A 
ATOM     13  C   UNL     1       1.278   9.279  18.146  0.00  0.00    +0.000 A 
ATOM     14  C   UNL     1       0.036   9.864  18.415  0.00  0.00    +0.000 A 
ATOM     15  C   UNL     1      -0.529   9.750  19.684  0.00  0.00    +0.000 A 
ATOM     16  C   UNL     1       0.155   9.058  20.680  0.00  0.00    +0.000 A 
ATOM     17 CL   UNL     1      -0.541   8.894  22.246  0.00  0.00    +0.000 Cl
ATOM     18  C   UNL     1       1.397   8.484  20.416  0.00  0.00    +0.000 A 
ENDBRANCH   4  12
BRANCH   1  19
ATOM     19  S   UNL     1       1.436   3.334  18.058  0.00  0.00    +0.000 S 
BRANCH  19  20
ATOM     20  C   UNL     1       2.441   2.206  19.072  0.00  0.00    +0.000 C 
BRANCH  20  22
ATOM     21  C   UNL     1       1.115   3.387  20.850  0.00  0.00    +0.000 C 
ATOM     22  C   UNL     1       2.397   2.629  20.538  0.00  0.00    +0.000 C 
ENDBRANCH  20  22
ENDBRANCH  19  20
ENDBRANCH   1  19
BRANCH   8  23
ATOM     23  C   UNL     1       6.037   4.219  14.981  0.00  0.00    +0.000 C 
BRANCH  23  24
ATOM     24  C   UNL     1       6.385   4.658  13.553  0.00  0.00    +0.000 C 
ATOM     25 CL   UNL     1       8.051   5.335  13.449  0.00  0.00    +0.000 Cl
BRANCH  24  26
ATOM     26  C   UNL     1       6.252   3.529  12.542  0.00  0.00    +0.000 A 
ATOM     27  C   UNL     1       7.401   2.894  12.046  0.00  0.00    +0.000 A 
ATOM     28  C   UNL     1       7.296   1.823  11.153  0.00  0.00    +0.000 A 
ATOM     29  C   UNL     1       6.043   1.374  10.745  0.00  0.00    +0.000 A 
ATOM     30  C   UNL     1       4.893   1.999  11.216  0.00  0.00    +0.000 A 
ATOM     31  C   UNL     1       4.994   3.073  12.105  0.00  0.00    +0.000 A 
ENDBRANCH  24  26
ENDBRANCH  23  24
ENDBRANCH   8  23
TORSDOF 7
ENDMDL
MODEL 9
REMARK VINA RESULT:      -7.4      3.355      9.766
REMARK  Name = 
REMARK  8 active torsions:
REMARK  status: ('A' for Active; 'I' for Inactive)
REMARK    1  A    between atoms: C_1  and  C_2
REMARK    2  A    between atoms: C_2  and  C_3
REMARK    3  A    between atoms: C_3  and  S_4
REMARK    4  A    between atoms: S_4  and  C_5
REMARK    5  A    between atoms: N_8  and  C_9
REMARK    6  A    between atoms: N_19  and  C_20
REMARK    7  A    between atoms: C_20  and  C_21
REMARK    8  A    between atoms: C_21  and  C_23
REMARK                            x       y       z     vdW  Elec       q    Type
REMARK                         _______ _______ _______ _____ _____    ______ ____
ROOT
ATOM      1  C   UNL     1      -1.042  11.043  19.245  0.00  0.00    +0.000 A 
ATOM      2  N   UNL     1      -1.369  11.576  20.437  0.00  0.00    +0.000 NA
ATOM      3  C   UNL     1      -0.803  11.098  21.576  0.00  0.00    +0.000 A 
ATOM      4  N   UNL     1      -1.154  11.661  22.815  0.00  0.00    +0.000 N 
ATOM      5  C   UNL     1       0.118  10.055  21.441  0.00  0.00    +0.000 A 
ATOM      6  C   UNL     1       0.952   9.274  22.265  0.00  0.00    +0.000 A 
ATOM      7  N   UNL     1       1.684   8.391  21.578  0.00  0.00    +0.000 NA
ATOM      8  N   UNL     1       1.342   8.631  20.288  0.00  0.00    +0.000 N 
ATOM      9  C   UNL     1       0.382   9.601  20.160  0.00  0.00    +0.000 A 
ATOM     10  N   UNL     1      -0.171  10.045  19.021  0.00  0.00    +0.000 NA
ATOM     11  H   UNL     1      -0.683  11.238  23.606  0.00  0.00    +0.000 HD
ENDROOT
BRANCH   4  12
ATOM     12  C   UNL     1      -1.455  13.020  23.054  0.00  0.00    +0.000 A 
ATOM     13  C   UNL     1      -0.479  13.994  22.806  0.00  0.00    +0.000 A 
ATOM     14  C   UNL     1      -0.755  15.350  23.010  0.00  0.00    +0.000 A 
ATOM     15  C   UNL     1      -2.017  15.748  23.447  0.00  0.00    +0.000 A 
ATOM     16  C   UNL     1      -2.995  14.786  23.685  0.00  0.00    +0.000 A 
ATOM     17 CL   UNL     1      -4.564  15.266  24.207  0.00  0.00    +0.000 Cl
ATOM     18  C   UNL     1      -2.719  13.434  23.493  0.00  0.00    +0.000 A 
ENDBRANCH   4  12
BRANCH   1  19
ATOM     19  S   UNL     1      -1.781  11.790  17.813  0.00  0.00    +0.000 S 
BRANCH  19  20
ATOM     20  C   UNL     1      -3.162  10.621  17.614  0.00  0.00    +0.000 C 
BRANCH  20  22
ATOM     21  C   UNL     1      -2.949  10.513  15.113  0.00  0.00    +0.000 C 
ATOM     22  C   UNL     1      -2.921   9.717  16.410  0.00  0.00    +0.000 C 
ENDBRANCH  20  22
ENDBRANCH  19  20
ENDBRANCH   1  19
BRANCH   8  23
ATOM     23  C   UNL     1       1.962   7.864  19.224  0.00  0.00    +0.000 C 
BRANCH  23  24
ATOM     24  C   UNL     1       2.638   6.566  19.686  0.00  0.00    +0.000 C 
ATOM     25 CL   UNL     1       1.481   5.476  20.535  0.00  0.00    +0.000 Cl
BRANCH  24  26
ATOM     26  C   UNL     1       3.282   5.799  18.541  0.00  0.00    +0.000 A 
ATOM     27  C   UNL     1       4.337   6.375  17.818  0.00  0.00    +0.000 A 
ATOM     28  C   UNL     1       4.973   5.666  16.793  0.00  0.00    +0.000 A 
ATOM     29  C   UNL     1       4.561   4.374  16.480  0.00  0.00    +0.000 A 
ATOM     30  C   UNL     1       3.508   3.791  17.177  0.00  0.00    +0.000 A 
ATOM     31  C   UNL     1       2.868   4.499  18.199  0.00  0.00    +0.000 A 
ENDBRANCH  24  26
ENDBRANCH  23  24
ENDBRANCH   8  23
TORSDOF 7
ENDMDL
