MODEL 1
REMARK VINA RESULT:      -7.6      0.000      0.000
REMARK  Name = 
REMARK  2 active torsions:
REMARK  status: ('A' for Active; 'I' for Inactive)
REMARK    1  A    between atoms: N_10  and  N_11
REMARK    2  A    between atoms: C_12  and  C_13
REMARK                            x       y       z     vdW  Elec       q    Type
REMARK                         _______ _______ _______ _____ _____    ______ ____
ROOT
ATOM      1  O   UNL     1       5.537   7.276  16.087  0.00  0.00    +0.000 OA
ATOM      2  C   UNL     1       6.153   6.708  16.984  0.00  0.00    +0.000 A 
ATOM      3  C   UNL     1       5.725   5.435  17.496  0.00  0.00    +0.000 A 
ATOM      4  C   UNL     1       4.697   4.540  17.179  0.00  0.00    +0.000 A 
ATOM      5  N   UNL     1       4.707   3.462  17.976  0.00  0.00    +0.000 NA
ATOM      6  N   UNL     1       5.747   3.694  18.810  0.00  0.00    +0.000 N 
ATOM      7  C   UNL     1       6.385   4.872  18.553  0.00  0.00    +0.000 A 
ATOM      8  N   UNL     1       7.446   5.360  19.234  0.00  0.00    +0.000 NA
ATOM      9  C   UNL     1       7.850   6.503  18.752  0.00  0.00    +0.000 A 
ATOM     10  N   UNL     1       7.305   7.182  17.656  0.00  0.00    +0.000 N 
ATOM     11  H   UNL     1       5.964   3.015  19.531  0.00  0.00    +0.000 HD
ENDROOT
BRANCH  10  12
ATOM     12  N   UNL     1       7.919   8.390  17.377  0.00  0.00    +0.000 NA
ATOM     13  C   UNL     1       8.297   9.147  18.355  0.00  0.00    +0.000 C 
BRANCH  13  14
ATOM     14  C   UNL     1       8.917  10.459  18.091  0.00  0.00    +0.000 A 
ATOM     15  C   UNL     1       8.138  11.532  17.606  0.00  0.00    +0.000 A 
ATOM     16  C   UNL     1       8.676  12.819  17.538  0.00  0.00    +0.000 A 
ATOM     17  C   UNL     1       9.970  12.987  17.981  0.00  0.00    +0.000 A 
ATOM     18  C   UNL     1      10.740  11.926  18.408  0.00  0.00    +0.000 A 
ATOM     19  C   UNL     1      10.254  10.640  18.453  0.00  0.00    +0.000 A 
ATOM     20  O   UNL     1      11.971  12.324  18.833  0.00  0.00    +0.000 OA
ATOM     21  C   UNL     1      11.774  13.752  18.865  0.00  0.00    +0.000 C 
ATOM     22  O   UNL     1      10.620  14.175  18.109  0.00  0.00    +0.000 OA
ENDBRANCH  13  14
ENDBRANCH  10  12
TORSDOF 2
ENDMDL
MODEL 2
REMARK VINA RESULT:      -7.4      0.998      1.373
REMARK  Name = 
REMARK  2 active torsions:
REMARK  status: ('A' for Active; 'I' for Inactive)
REMARK    1  A    between atoms: N_10  and  N_11
REMARK    2  A    between atoms: C_12  and  C_13
REMARK                            x       y       z     vdW  Elec       q    Type
REMARK                         _______ _______ _______ _____ _____    ______ ____
ROOT
ATOM      1  O   UNL     1       5.858   7.714  16.340  0.00  0.00    +0.000 OA
ATOM      2  C   UNL     1       6.398   6.954  17.138  0.00  0.00    +0.000 A 
ATOM      3  C   UNL     1       5.891   5.629  17.370  0.00  0.00    +0.000 A 
ATOM      4  C   UNL     1       4.851   4.864  16.832  0.00  0.00    +0.000 A 
ATOM      5  N   UNL     1       4.772   3.653  17.403  0.00  0.00    +0.000 NA
ATOM      6  N   UNL     1       5.768   3.668  18.317  0.00  0.00    +0.000 N 
ATOM      7  C   UNL     1       6.466   4.840  18.328  0.00  0.00    +0.000 A 
ATOM      8  N   UNL     1       7.503   5.135  19.144  0.00  0.00    +0.000 NA
ATOM      9  C   UNL     1       7.979   6.328  18.915  0.00  0.00    +0.000 A 
ATOM     10  N   UNL     1       7.526   7.232  17.947  0.00  0.00    +0.000 N 
ATOM     11  H   UNL     1       5.917   2.852  18.901  0.00  0.00    +0.000 HD
ENDROOT
BRANCH  10  12
ATOM     12  N   UNL     1       8.201   8.439  17.941  0.00  0.00    +0.000 NA
ATOM     13  C   UNL     1       8.592   8.950  19.062  0.00  0.00    +0.000 C 
BRANCH  13  14
ATOM     14  C   UNL     1       9.278  10.255  19.094  0.00  0.00    +0.000 A 
ATOM     15  C   UNL     1       9.719  10.800  20.320  0.00  0.00    +0.000 A 
ATOM     16  C   UNL     1      10.533  11.935  20.334  0.00  0.00    +0.000 A 
ATOM     17  C   UNL     1      10.894  12.469  19.116  0.00  0.00    +0.000 A 
ATOM     18  C   UNL     1      10.420  11.961  17.925  0.00  0.00    +0.000 A 
ATOM     19  C   UNL     1       9.587  10.867  17.876  0.00  0.00    +0.000 A 
ATOM     20  O   UNL     1      10.930  12.617  16.848  0.00  0.00    +0.000 OA
ATOM     21  C   UNL     1      11.956  13.398  17.494  0.00  0.00    +0.000 C 
ATOM     22  O   UNL     1      11.772  13.489  18.922  0.00  0.00    +0.000 OA
ENDBRANCH  13  14
ENDBRANCH  10  12
TORSDOF 2
ENDMDL
MODEL 3
REMARK VINA RESULT:      -7.4      7.142      7.999
REMARK  Name = 
REMARK  2 active torsions:
REMARK  status: ('A' for Active; 'I' for Inactive)
REMARK    1  A    between atoms: N_10  and  N_11
REMARK    2  A    between atoms: C_12  and  C_13
REMARK                            x       y       z     vdW  Elec       q    Type
REMARK                         _______ _______ _______ _____ _____    ______ ____
ROOT
ATOM      1  O   UNL     1       0.682   4.057  20.222  0.00  0.00    +0.000 OA
ATOM      2  C   UNL     1       1.828   4.294  19.852  0.00  0.00    +0.000 A 
ATOM      3  C   UNL     1       2.657   3.268  19.281  0.00  0.00    +0.000 A 
ATOM      4  C   UNL     1       2.472   1.921  18.951  0.00  0.00    +0.000 A 
ATOM      5  N   UNL     1       3.582   1.373  18.437  0.00  0.00    +0.000 NA
ATOM      6  N   UNL     1       4.476   2.388  18.458  0.00  0.00    +0.000 N 
ATOM      7  C   UNL     1       3.957   3.546  18.959  0.00  0.00    +0.000 A 
ATOM      8  N   UNL     1       4.625   4.712  19.107  0.00  0.00    +0.000 NA
ATOM      9  C   UNL     1       3.864   5.650  19.600  0.00  0.00    +0.000 A 
ATOM     10  N   UNL     1       2.512   5.530  19.940  0.00  0.00    +0.000 N 
ATOM     11  H   UNL     1       5.419   2.225  18.122  0.00  0.00    +0.000 HD
ENDROOT
BRANCH  10  12
ATOM     12  N   UNL     1       1.957   6.682  20.467  0.00  0.00    +0.000 NA
ATOM     13  C   UNL     1       1.795   7.712  19.702  0.00  0.00    +0.000 C 
BRANCH  13  14
ATOM     14  C   UNL     1       1.244   8.969  20.243  0.00  0.00    +0.000 A 
ATOM     15  C   UNL     1       0.895  10.027  19.375  0.00  0.00    +0.000 A 
ATOM     16  C   UNL     1       0.199  11.136  19.861  0.00  0.00    +0.000 A 
ATOM     17  C   UNL     1      -0.140  11.135  21.197  0.00  0.00    +0.000 A 
ATOM     18  C   UNL     1       0.247  10.122  22.048  0.00  0.00    +0.000 A 
ATOM     19  C   UNL     1       0.964   9.032  21.611  0.00  0.00    +0.000 A 
ATOM     20  O   UNL     1      -0.225  10.304  23.311  0.00  0.00    +0.000 OA
ATOM     21  C   UNL     1      -1.149  11.387  23.078  0.00  0.00    +0.000 C 
ATOM     22  O   UNL     1      -0.917  12.059  21.822  0.00  0.00    +0.000 OA
ENDBRANCH  13  14
ENDBRANCH  10  12
TORSDOF 2
ENDMDL
MODEL 4
REMARK VINA RESULT:      -7.4      6.354      7.674
REMARK  Name = 
REMARK  2 active torsions:
REMARK  status: ('A' for Active; 'I' for Inactive)
REMARK    1  A    between atoms: N_10  and  N_11
REMARK    2  A    between atoms: C_12  and  C_13
REMARK                            x       y       z     vdW  Elec       q    Type
REMARK                         _______ _______ _______ _____ _____    ______ ____
ROOT
ATOM      1  O   UNL     1       5.091   2.852  19.892  0.00  0.00    +0.000 OA
ATOM      2  C   UNL     1       3.956   2.937  19.433  0.00  0.00    +0.000 A 
ATOM      3  C   UNL     1       2.800   2.908  20.286  0.00  0.00    +0.000 A 
ATOM      4  C   UNL     1       2.596   2.847  21.668  0.00  0.00    +0.000 A 
ATOM      5  N   UNL     1       1.294   2.834  21.984  0.00  0.00    +0.000 NA
ATOM      6  N   UNL     1       0.676   2.872  20.781  0.00  0.00    +0.000 N 
ATOM      7  C   UNL     1       1.549   2.918  19.734  0.00  0.00    +0.000 A 
ATOM      8  N   UNL     1       1.211   2.953  18.425  0.00  0.00    +0.000 NA
ATOM      9  C   UNL     1       2.261   3.006  17.652  0.00  0.00    +0.000 A 
ATOM     10  N   UNL     1       3.597   3.043  18.068  0.00  0.00    +0.000 N 
ATOM     11  H   UNL     1      -0.338   2.862  20.744  0.00  0.00    +0.000 HD
ENDROOT
BRANCH  10  12
ATOM     12  N   UNL     1       4.511   3.073  17.030  0.00  0.00    +0.000 NA
ATOM     13  C   UNL     1       4.469   4.047  16.180  0.00  0.00    +0.000 C 
BRANCH  13  14
ATOM     14  C   UNL     1       5.403   4.087  15.039  0.00  0.00    +0.000 A 
ATOM     15  C   UNL     1       5.044   3.508  13.802  0.00  0.00    +0.000 A 
ATOM     16  C   UNL     1       5.839   3.711  12.672  0.00  0.00    +0.000 A 
ATOM     17  C   UNL     1       6.955   4.506  12.819  0.00  0.00    +0.000 A 
ATOM     18  C   UNL     1       7.325   5.028  14.039  0.00  0.00    +0.000 A 
ATOM     19  C   UNL     1       6.586   4.819  15.180  0.00  0.00    +0.000 A 
ATOM     20  O   UNL     1       8.435   5.810  13.948  0.00  0.00    +0.000 OA
ATOM     21  C   UNL     1       8.546   5.920  12.514  0.00  0.00    +0.000 C 
ATOM     22  O   UNL     1       7.777   4.918  11.816  0.00  0.00    +0.000 OA
ENDBRANCH  13  14
ENDBRANCH  10  12
TORSDOF 2
ENDMDL
MODEL 5
REMARK VINA RESULT:      -7.3      2.824      8.295
REMARK  Name = 
REMARK  2 active torsions:
REMARK  status: ('A' for Active; 'I' for Inactive)
REMARK    1  A    between atoms: N_10  and  N_11
REMARK    2  A    between atoms: C_12  and  C_13
REMARK                            x       y       z     vdW  Elec       q    Type
REMARK                         _______ _______ _______ _____ _____    ______ ____
ROOT
ATOM      1  O   UNL     1      11.109  11.060  19.581  0.00  0.00    +0.000 OA
ATOM      2  C   UNL     1      10.260  11.583  18.864  0.00  0.00    +0.000 A 
ATOM      3  C   UNL     1      10.343  12.969  18.494  0.00  0.00    +0.000 A 
ATOM      4  C   UNL     1      11.267  13.995  18.720  0.00  0.00    +0.000 A 
ATOM      5  N   UNL     1      10.880  15.150  18.159  0.00  0.00    +0.000 NA
ATOM      6  N   UNL     1       9.693  14.843  17.587  0.00  0.00    +0.000 N 
ATOM      7  C   UNL     1       9.336  13.539  17.767  0.00  0.00    +0.000 A 
ATOM      8  N   UNL     1       8.200  12.962  17.314  0.00  0.00    +0.000 NA
ATOM      9  C   UNL     1       8.137  11.698  17.627  0.00  0.00    +0.000 A 
ATOM     10  N   UNL     1       9.103  10.967  18.330  0.00  0.00    +0.000 N 
ATOM     11  H   UNL     1       9.179  15.565  17.095  0.00  0.00    +0.000 HD
ENDROOT
BRANCH  10  12
ATOM     12  N   UNL     1       8.764   9.643  18.544  0.00  0.00    +0.000 NA
ATOM     13  C   UNL     1       8.029   9.030  17.675  0.00  0.00    +0.000 C 
BRANCH  13  14
ATOM     14  C   UNL     1       7.617   7.631  17.893  0.00  0.00    +0.000 A 
ATOM     15  C   UNL     1       8.250   6.846  18.882  0.00  0.00    +0.000 A 
ATOM     16  C   UNL     1       7.737   5.593  19.221  0.00  0.00    +0.000 A 
ATOM     17  C   UNL     1       6.595   5.180  18.571  0.00  0.00    +0.000 A 
ATOM     18  C   UNL     1       6.010   5.929  17.573  0.00  0.00    +0.000 A 
ATOM     19  C   UNL     1       6.509   7.152  17.188  0.00  0.00    +0.000 A 
ATOM     20  O   UNL     1       4.875   5.351  17.094  0.00  0.00    +0.000 OA
ATOM     21  C   UNL     1       4.690   4.313  18.078  0.00  0.00    +0.000 C 
ATOM     22  O   UNL     1       5.882   4.056  18.850  0.00  0.00    +0.000 OA
ENDBRANCH  13  14
ENDBRANCH  10  12
TORSDOF 2
ENDMDL
MODEL 6
REMARK VINA RESULT:      -7.3      5.774      7.651
REMARK  Name = 
REMARK  2 active torsions:
REMARK  status: ('A' for Active; 'I' for Inactive)
REMARK    1  A    between atoms: N_10  and  N_11
REMARK    2  A    between atoms: C_12  and  C_13
REMARK                            x       y       z     vdW  Elec       q    Type
REMARK                         _______ _______ _______ _____ _____    ______ ____
ROOT
ATOM      1  O   UNL     1       5.087   5.405  19.661  0.00  0.00    +0.000 OA
ATOM      2  C   UNL     1       5.081   5.771  18.489  0.00  0.00    +0.000 A 
ATOM      3  C   UNL     1       6.108   5.361  17.572  0.00  0.00    +0.000 A 
ATOM      4  C   UNL     1       7.222   4.519  17.652  0.00  0.00    +0.000 A 
ATOM      5  N   UNL     1       7.897   4.467  16.495  0.00  0.00    +0.000 NA
ATOM      6  N   UNL     1       7.202   5.299  15.685  0.00  0.00    +0.000 N 
ATOM      7  C   UNL     1       6.118   5.856  16.297  0.00  0.00    +0.000 A 
ATOM      8  N   UNL     1       5.254   6.730  15.733  0.00  0.00    +0.000 NA
ATOM      9  C   UNL     1       4.307   7.081  16.558  0.00  0.00    +0.000 A 
ATOM     10  N   UNL     1       4.141   6.631  17.873  0.00  0.00    +0.000 N 
ATOM     11  H   UNL     1       7.520   5.445  14.733  0.00  0.00    +0.000 HD
ENDROOT
BRANCH  10  12
ATOM     12  N   UNL     1       3.059   7.189  18.529  0.00  0.00    +0.000 NA
ATOM     13  C   UNL     1       2.537   8.280  18.072  0.00  0.00    +0.000 C 
BRANCH  13  14
ATOM     14  C   UNL     1       1.409   8.923  18.772  0.00  0.00    +0.000 A 
ATOM     15  C   UNL     1       1.254   8.770  20.167  0.00  0.00    +0.000 A 
ATOM     16  C   UNL     1       0.306   9.528  20.858  0.00  0.00    +0.000 A 
ATOM     17  C   UNL     1      -0.439  10.427  20.126  0.00  0.00    +0.000 A 
ATOM     18  C   UNL     1      -0.317  10.536  18.758  0.00  0.00    +0.000 A 
ATOM     19  C   UNL     1       0.582   9.780  18.041  0.00  0.00    +0.000 A 
ATOM     20  O   UNL     1      -1.119  11.509  18.246  0.00  0.00    +0.000 OA
ATOM     21  C   UNL     1      -1.542  12.150  19.466  0.00  0.00    +0.000 C 
ATOM     22  O   UNL     1      -1.316  11.334  20.634  0.00  0.00    +0.000 OA
ENDBRANCH  13  14
ENDBRANCH  10  12
TORSDOF 2
ENDMDL
MODEL 7
REMARK VINA RESULT:      -7.2      3.075      8.237
REMARK  Name = 
REMARK  2 active torsions:
REMARK  status: ('A' for Active; 'I' for Inactive)
REMARK    1  A    between atoms: N_10  and  N_11
REMARK    2  A    between atoms: C_12  and  C_13
REMARK                            x       y       z     vdW  Elec       q    Type
REMARK                         _______ _______ _______ _____ _____    ______ ____
ROOT
ATOM      1  O   UNL     1       9.005  11.158  21.392  0.00  0.00    +0.000 OA
ATOM      2  C   UNL     1       9.479  11.471  20.303  0.00  0.00    +0.000 A 
ATOM      3  C   UNL     1      10.067  12.764  20.086  0.00  0.00    +0.000 A 
ATOM      4  C   UNL     1      10.316  13.881  20.891  0.00  0.00    +0.000 A 
ATOM      5  N   UNL     1      10.893  14.876  20.203  0.00  0.00    +0.000 NA
ATOM      6  N   UNL     1      10.993  14.379  18.949  0.00  0.00    +0.000 N 
ATOM      7  C   UNL     1      10.507  13.109  18.838  0.00  0.00    +0.000 A 
ATOM      8  N   UNL     1      10.470  12.373  17.704  0.00  0.00    +0.000 NA
ATOM      9  C   UNL     1       9.961  11.190  17.908  0.00  0.00    +0.000 A 
ATOM     10  N   UNL     1       9.506  10.680  19.129  0.00  0.00    +0.000 N 
ATOM     11  H   UNL     1      11.397  14.954  18.218  0.00  0.00    +0.000 HD
ENDROOT
BRANCH  10  12
ATOM     12  N   UNL     1       8.990   9.398  19.050  0.00  0.00    +0.000 NA
ATOM     13  C   UNL     1       8.309   9.055  18.006  0.00  0.00    +0.000 C 
BRANCH  13  14
ATOM     14  C   UNL     1       7.711   7.710  17.909  0.00  0.00    +0.000 A 
ATOM     15  C   UNL     1       8.139   6.675  18.769  0.00  0.00    +0.000 A 
ATOM     16  C   UNL     1       7.448   5.463  18.811  0.00  0.00    +0.000 A 
ATOM     17  C   UNL     1       6.338   5.340  18.004  0.00  0.00    +0.000 A 
ATOM     18  C   UNL     1       5.955   6.336  17.132  0.00  0.00    +0.000 A 
ATOM     19  C   UNL     1       6.634   7.529  17.038  0.00  0.00    +0.000 A 
ATOM     20  O   UNL     1       4.814   6.020  16.460  0.00  0.00    +0.000 OA
ATOM     21  C   UNL     1       4.404   4.852  17.200  0.00  0.00    +0.000 C 
ATOM     22  O   UNL     1       5.470   4.293  17.996  0.00  0.00    +0.000 OA
ENDBRANCH  13  14
ENDBRANCH  10  12
TORSDOF 2
ENDMDL
MODEL 8
REMARK VINA RESULT:      -7.1      5.687      7.394
REMARK  Name = 
REMARK  2 active torsions:
REMARK  status: ('A' for Active; 'I' for Inactive)
REMARK    1  A    between atoms: N_10  and  N_11
REMARK    2  A    between atoms: C_12  and  C_13
REMARK                            x       y       z     vdW  Elec       q    Type
REMARK                         _______ _______ _______ _____ _____    ______ ____
ROOT
ATOM      1  O   UNL     1       3.494   4.104  16.990  0.00  0.00    +0.000 OA
ATOM      2  C   UNL     1       4.350   4.969  16.823  0.00  0.00    +0.000 A 
ATOM      3  C   UNL     1       5.463   4.760  15.938  0.00  0.00    +0.000 A 
ATOM      4  C   UNL     1       5.858   3.729  15.079  0.00  0.00    +0.000 A 
ATOM      5  N   UNL     1       7.014   4.009  14.459  0.00  0.00    +0.000 NA
ATOM      6  N   UNL     1       7.351   5.224  14.949  0.00  0.00    +0.000 N 
ATOM      7  C   UNL     1       6.442   5.710  15.842  0.00  0.00    +0.000 A 
ATOM      8  N   UNL     1       6.529   6.891  16.494  0.00  0.00    +0.000 NA
ATOM      9  C   UNL     1       5.504   7.092  17.276  0.00  0.00    +0.000 A 
ATOM     10  N   UNL     1       4.411   6.236  17.450  0.00  0.00    +0.000 N 
ATOM     11  H   UNL     1       8.210   5.663  14.637  0.00  0.00    +0.000 HD
ENDROOT
BRANCH  10  12
ATOM     12  N   UNL     1       3.476   6.691  18.363  0.00  0.00    +0.000 NA
ATOM     13  C   UNL     1       2.809   7.767  18.101  0.00  0.00    +0.000 C 
BRANCH  13  14
ATOM     14  C   UNL     1       1.835   8.301  19.072  0.00  0.00    +0.000 A 
ATOM     15  C   UNL     1       1.745   7.750  20.369  0.00  0.00    +0.000 A 
ATOM     16  C   UNL     1       0.965   8.373  21.346  0.00  0.00    +0.000 A 
ATOM     17  C   UNL     1       0.321   9.538  20.992  0.00  0.00    +0.000 A 
ATOM     18  C   UNL     1       0.374  10.043  19.711  0.00  0.00    +0.000 A 
ATOM     19  C   UNL     1       1.103   9.436  18.715  0.00  0.00    +0.000 A 
ATOM     20  O   UNL     1      -0.303  11.218  19.593  0.00  0.00    +0.000 OA
ATOM     21  C   UNL     1      -0.550  11.504  20.985  0.00  0.00    +0.000 C 
ATOM     22  O   UNL     1      -0.378  10.348  21.832  0.00  0.00    +0.000 OA
ENDBRANCH  13  14
ENDBRANCH  10  12
TORSDOF 2
ENDMDL
MODEL 9
REMARK VINA RESULT:      -7.1      5.768      8.048
REMARK  Name = 
REMARK  2 active torsions:
REMARK  status: ('A' for Active; 'I' for Inactive)
REMARK    1  A    between atoms: N_10  and  N_11
REMARK    2  A    between atoms: C_12  and  C_13
REMARK                            x       y       z     vdW  Elec       q    Type
REMARK                         _______ _______ _______ _____ _____    ______ ____
ROOT
ATOM      1  O   UNL     1       1.803   9.849  17.478  0.00  0.00    +0.000 OA
ATOM      2  C   UNL     1       1.580   9.389  18.594  0.00  0.00    +0.000 A 
ATOM      3  C   UNL     1       0.948  10.178  19.616  0.00  0.00    +0.000 A 
ATOM      4  C   UNL     1       0.413  11.469  19.674  0.00  0.00    +0.000 A 
ATOM      5  N   UNL     1      -0.068  11.759  20.891  0.00  0.00    +0.000 NA
ATOM      6  N   UNL     1       0.183  10.638  21.606  0.00  0.00    +0.000 N 
ATOM      7  C   UNL     1       0.793   9.663  20.873  0.00  0.00    +0.000 A 
ATOM      8  N   UNL     1       1.169   8.447  21.332  0.00  0.00    +0.000 NA
ATOM      9  C   UNL     1       1.718   7.722  20.397  0.00  0.00    +0.000 A 
ATOM     10  N   UNL     1       1.908   8.094  19.061  0.00  0.00    +0.000 N 
ATOM     11  H   UNL     1      -0.083  10.604  22.584  0.00  0.00    +0.000 HD
ENDROOT
BRANCH  10  12
ATOM     12  N   UNL     1       2.541   7.133  18.292  0.00  0.00    +0.000 NA
ATOM     13  C   UNL     1       3.813   6.950  18.431  0.00  0.00    +0.000 C 
BRANCH  13  14
ATOM     14  C   UNL     1       4.524   5.963  17.597  0.00  0.00    +0.000 A 
ATOM     15  C   UNL     1       3.952   4.696  17.345  0.00  0.00    +0.000 A 
ATOM     16  C   UNL     1       4.528   3.837  16.407  0.00  0.00    +0.000 A 
ATOM     17  C   UNL     1       5.645   4.289  15.739  0.00  0.00    +0.000 A 
ATOM     18  C   UNL     1       6.226   5.505  16.025  0.00  0.00    +0.000 A 
ATOM     19  C   UNL     1       5.707   6.361  16.968  0.00  0.00    +0.000 A 
ATOM     20  O   UNL     1       7.295   5.765  15.223  0.00  0.00    +0.000 OA
ATOM     21  C   UNL     1       7.144   4.707  14.255  0.00  0.00    +0.000 C 
ATOM     22  O   UNL     1       6.269   3.653  14.711  0.00  0.00    +0.000 OA
ENDBRANCH  13  14
ENDBRANCH  10  12
TORSDOF 2
ENDMDL
