MODEL 1
REMARK VINA RESULT:      -5.1      0.000      0.000
REMARK  Name = 
REMARK  7 active torsions:
REMARK  status: ('A' for Active; 'I' for Inactive)
REMARK    1  A    between atoms: C_1  and  C_2
REMARK    2  A    between atoms: C_3  and  C_4
REMARK    3  A    between atoms: C_4  and  O_5
REMARK    4  A    between atoms: O_5  and  C_6
REMARK    5  A    between atoms: C_6  and  C_8
REMARK    6  A    between atoms: C_8  and  O_9
REMARK    7  A    between atoms: O_9  and  N_10
REMARK                            x       y       z     vdW  Elec       q    Type
REMARK                         _______ _______ _______ _____ _____    ______ ____
ROOT
ATOM      1  C   UNL     1       7.527   4.988  17.398  0.00  0.00    +0.000 C 
ATOM      2  O   UNL     1       8.303   4.103  17.740  0.00  0.00    +0.000 OA
ENDROOT
BRANCH   1   3
ATOM      3  O   UNL     1       7.187   6.072  18.145  0.00  0.00    +0.000 OA
BRANCH   3   4
ATOM      4  C   UNL     1       7.411   7.344  17.518  0.00  0.00    +0.000 C 
BRANCH   4   7
ATOM      5  C   UNL     1       9.366  10.315  19.123  0.00  0.00    +0.000 C 
ATOM      6  C   UNL     1       8.508   9.500  18.211  0.00  0.00    +0.000 C 
ATOM      7  C   UNL     1       8.279   8.191  18.399  0.00  0.00    +0.000 C 
ENDBRANCH   4   7
ENDBRANCH   3   4
ENDBRANCH   1   3
BRANCH   1   8
ATOM      8  C   UNL     1       6.799   4.993  16.080  0.00  0.00    +0.000 C 
BRANCH   8   9
ATOM      9  O   UNL     1       7.790   4.990  15.068  0.00  0.00    +0.000 OA
BRANCH   9  10
ATOM     10  N   UNL     1       7.231   4.869  13.780  0.00  0.00    +0.000 N 
ATOM     11  O   UNL     1       6.266   4.114  13.653  0.00  0.00    +0.000 OA
ATOM     12  O   UNL     1       7.814   5.551  12.942  0.00  0.00    +0.000 OA
ENDBRANCH   9  10
ENDBRANCH   8   9
ENDBRANCH   1   8
TORSDOF 6
ENDMDL
MODEL 2
REMARK VINA RESULT:      -5.0      2.722      4.597
REMARK  Name = 
REMARK  7 active torsions:
REMARK  status: ('A' for Active; 'I' for Inactive)
REMARK    1  A    between atoms: C_1  and  C_2
REMARK    2  A    between atoms: C_3  and  C_4
REMARK    3  A    between atoms: C_4  and  O_5
REMARK    4  A    between atoms: O_5  and  C_6
REMARK    5  A    between atoms: C_6  and  C_8
REMARK    6  A    between atoms: C_8  and  O_9
REMARK    7  A    between atoms: O_9  and  N_10
REMARK                            x       y       z     vdW  Elec       q    Type
REMARK                         _______ _______ _______ _____ _____    ______ ____
ROOT
ATOM      1  C   UNL     1       7.245   5.186  18.871  0.00  0.00    +0.000 C 
ATOM      2  O   UNL     1       8.052   5.425  19.762  0.00  0.00    +0.000 OA
ENDROOT
BRANCH   1   3
ATOM      3  O   UNL     1       6.123   4.429  19.005  0.00  0.00    +0.000 OA
BRANCH   3   4
ATOM      4  C   UNL     1       4.884   5.145  18.897  0.00  0.00    +0.000 C 
BRANCH   4   7
ATOM      5  C   UNL     1       2.545   2.287  17.639  0.00  0.00    +0.000 C 
ATOM      6  C   UNL     1       3.548   3.065  18.426  0.00  0.00    +0.000 C 
ATOM      7  C   UNL     1       3.896   4.325  18.122  0.00  0.00    +0.000 C 
ENDBRANCH   4   7
ENDBRANCH   3   4
ENDBRANCH   1   3
BRANCH   1   8
ATOM      8  C   UNL     1       7.391   5.686  17.458  0.00  0.00    +0.000 C 
BRANCH   8   9
ATOM      9  O   UNL     1       7.795   4.578  16.675  0.00  0.00    +0.000 OA
BRANCH   9  10
ATOM     10  N   UNL     1       7.120   4.529  15.439  0.00  0.00    +0.000 N 
ATOM     11  O   UNL     1       6.189   3.730  15.337  0.00  0.00    +0.000 OA
ATOM     12  O   UNL     1       7.582   5.312  14.613  0.00  0.00    +0.000 OA
ENDBRANCH   9  10
ENDBRANCH   8   9
ENDBRANCH   1   8
TORSDOF 6
ENDMDL
MODEL 3
REMARK VINA RESULT:      -5.0      4.015      4.677
REMARK  Name = 
REMARK  7 active torsions:
REMARK  status: ('A' for Active; 'I' for Inactive)
REMARK    1  A    between atoms: C_1  and  C_2
REMARK    2  A    between atoms: C_3  and  C_4
REMARK    3  A    between atoms: C_4  and  O_5
REMARK    4  A    between atoms: O_5  and  C_6
REMARK    5  A    between atoms: C_6  and  C_8
REMARK    6  A    between atoms: C_8  and  O_9
REMARK    7  A    between atoms: O_9  and  N_10
REMARK                            x       y       z     vdW  Elec       q    Type
REMARK                         _______ _______ _______ _____ _____    ______ ____
ROOT
ATOM      1  C   UNL     1       4.843   4.473  19.122  0.00  0.00    +0.000 C 
ATOM      2  O   UNL     1       4.187   5.463  19.426  0.00  0.00    +0.000 OA
ENDROOT
BRANCH   1   3
ATOM      3  O   UNL     1       6.201   4.396  19.120  0.00  0.00    +0.000 OA
BRANCH   3   4
ATOM      4  C   UNL     1       6.844   4.941  17.958  0.00  0.00    +0.000 C 
BRANCH   4   7
ATOM      5  C   UNL     1       8.152   8.617  17.922  0.00  0.00    +0.000 C 
ATOM      6  C   UNL     1       7.503   7.330  17.526  0.00  0.00    +0.000 C 
ATOM      7  C   UNL     1       7.499   6.242  18.311  0.00  0.00    +0.000 C 
ENDBRANCH   4   7
ENDBRANCH   3   4
ENDBRANCH   1   3
BRANCH   1   8
ATOM      8  C   UNL     1       4.229   3.174  18.670  0.00  0.00    +0.000 C 
BRANCH   8   9
ATOM      9  O   UNL     1       3.450   3.469  17.526  0.00  0.00    +0.000 OA
BRANCH   9  10
ATOM     10  N   UNL     1       2.080   3.218  17.741  0.00  0.00    +0.000 N 
ATOM     11  O   UNL     1       1.284   4.084  17.375  0.00  0.00    +0.000 OA
ATOM     12  O   UNL     1       1.873   2.139  18.290  0.00  0.00    +0.000 OA
ENDBRANCH   9  10
ENDBRANCH   8   9
ENDBRANCH   1   8
TORSDOF 6
ENDMDL
MODEL 4
REMARK VINA RESULT:      -5.0      4.366      5.890
REMARK  Name = 
REMARK  7 active torsions:
REMARK  status: ('A' for Active; 'I' for Inactive)
REMARK    1  A    between atoms: C_1  and  C_2
REMARK    2  A    between atoms: C_3  and  C_4
REMARK    3  A    between atoms: C_4  and  O_5
REMARK    4  A    between atoms: O_5  and  C_6
REMARK    5  A    between atoms: C_6  and  C_8
REMARK    6  A    between atoms: C_8  and  O_9
REMARK    7  A    between atoms: O_9  and  N_10
REMARK                            x       y       z     vdW  Elec       q    Type
REMARK                         _______ _______ _______ _____ _____    ______ ____
ROOT
ATOM      1  C   UNL     1       4.110   4.990  17.704  0.00  0.00    +0.000 C 
ATOM      2  O   UNL     1       3.859   6.115  18.121  0.00  0.00    +0.000 OA
ENDROOT
BRANCH   1   3
ATOM      3  O   UNL     1       3.199   4.109  17.211  0.00  0.00    +0.000 OA
BRANCH   3   4
ATOM      4  C   UNL     1       1.887   4.198  17.787  0.00  0.00    +0.000 C 
BRANCH   4   7
ATOM      5  C   UNL     1       1.310   2.830  21.395  0.00  0.00    +0.000 C 
ATOM      6  C   UNL     1       1.386   3.735  20.209  0.00  0.00    +0.000 C 
ATOM      7  C   UNL     1       1.813   3.326  19.004  0.00  0.00    +0.000 C 
ENDBRANCH   4   7
ENDBRANCH   3   4
ENDBRANCH   1   3
BRANCH   1   8
ATOM      8  C   UNL     1       5.493   4.393  17.699  0.00  0.00    +0.000 C 
BRANCH   8   9
ATOM      9  O   UNL     1       5.887   4.295  16.342  0.00  0.00    +0.000 OA
BRANCH   9  10
ATOM     10  N   UNL     1       7.221   4.707  16.149  0.00  0.00    +0.000 N 
ATOM     11  O   UNL     1       7.474   5.332  15.119  0.00  0.00    +0.000 OA
ATOM     12  O   UNL     1       7.965   4.360  17.064  0.00  0.00    +0.000 OA
ENDBRANCH   9  10
ENDBRANCH   8   9
ENDBRANCH   1   8
TORSDOF 6
ENDMDL
MODEL 5
REMARK VINA RESULT:      -4.9      3.834      5.975
REMARK  Name = 
REMARK  7 active torsions:
REMARK  status: ('A' for Active; 'I' for Inactive)
REMARK    1  A    between atoms: C_1  and  C_2
REMARK    2  A    between atoms: C_3  and  C_4
REMARK    3  A    between atoms: C_4  and  O_5
REMARK    4  A    between atoms: O_5  and  C_6
REMARK    5  A    between atoms: C_6  and  C_8
REMARK    6  A    between atoms: C_8  and  O_9
REMARK    7  A    between atoms: O_9  and  N_10
REMARK                            x       y       z     vdW  Elec       q    Type
REMARK                         _______ _______ _______ _____ _____    ______ ____
ROOT
ATOM      1  C   UNL     1       6.642   4.646  17.923  0.00  0.00    +0.000 C 
ATOM      2  O   UNL     1       7.854   4.489  18.027  0.00  0.00    +0.000 OA
ENDROOT
BRANCH   1   3
ATOM      3  O   UNL     1       5.952   4.716  16.754  0.00  0.00    +0.000 OA
BRANCH   3   4
ATOM      4  C   UNL     1       6.742   4.558  15.566  0.00  0.00    +0.000 C 
BRANCH   4   7
ATOM      5  C   UNL     1       5.412   3.282  12.127  0.00  0.00    +0.000 C 
ATOM      6  C   UNL     1       6.312   3.773  13.214  0.00  0.00    +0.000 C 
ATOM      7  C   UNL     1       5.871   4.080  14.444  0.00  0.00    +0.000 C 
ENDBRANCH   4   7
ENDBRANCH   3   4
ENDBRANCH   1   3
BRANCH   1   8
ATOM      8  C   UNL     1       5.721   4.816  19.103  0.00  0.00    +0.000 C 
BRANCH   8   9
ATOM      9  O   UNL     1       5.409   3.515  19.565  0.00  0.00    +0.000 OA
BRANCH   9  10
ATOM     10  N   UNL     1       4.040   3.215  19.419  0.00  0.00    +0.000 N 
ATOM     11  O   UNL     1       3.253   4.162  19.421  0.00  0.00    +0.000 OA
ATOM     12  O   UNL     1       3.824   2.010  19.318  0.00  0.00    +0.000 OA
ENDBRANCH   9  10
ENDBRANCH   8   9
ENDBRANCH   1   8
TORSDOF 6
ENDMDL
MODEL 6
REMARK VINA RESULT:      -4.9      3.873      5.536
REMARK  Name = 
REMARK  7 active torsions:
REMARK  status: ('A' for Active; 'I' for Inactive)
REMARK    1  A    between atoms: C_1  and  C_2
REMARK    2  A    between atoms: C_3  and  C_4
REMARK    3  A    between atoms: C_4  and  O_5
REMARK    4  A    between atoms: O_5  and  C_6
REMARK    5  A    between atoms: C_6  and  C_8
REMARK    6  A    between atoms: C_8  and  O_9
REMARK    7  A    between atoms: O_9  and  N_10
REMARK                            x       y       z     vdW  Elec       q    Type
REMARK                         _______ _______ _______ _____ _____    ______ ____
ROOT
ATOM      1  C   UNL     1       5.965   5.214  19.217  0.00  0.00    +0.000 C 
ATOM      2  O   UNL     1       6.990   5.352  19.875  0.00  0.00    +0.000 OA
ENDROOT
BRANCH   1   3
ATOM      3  O   UNL     1       5.015   4.263  19.425  0.00  0.00    +0.000 OA
BRANCH   3   4
ATOM      4  C   UNL     1       3.672   4.755  19.548  0.00  0.00    +0.000 C 
BRANCH   4   7
ATOM      5  C   UNL     1       0.628   2.420  18.842  0.00  0.00    +0.000 C 
ATOM      6  C   UNL     1       1.560   3.390  19.493  0.00  0.00    +0.000 C 
ATOM      7  C   UNL     1       2.719   3.772  18.937  0.00  0.00    +0.000 C 
ENDBRANCH   4   7
ENDBRANCH   3   4
ENDBRANCH   1   3
BRANCH   1   8
ATOM      8  C   UNL     1       5.610   6.080  18.037  0.00  0.00    +0.000 C 
BRANCH   8   9
ATOM      9  O   UNL     1       5.888   5.318  16.876  0.00  0.00    +0.000 OA
BRANCH   9  10
ATOM     10  N   UNL     1       7.210   5.505  16.424  0.00  0.00    +0.000 N 
ATOM     11  O   UNL     1       7.844   4.499  16.107  0.00  0.00    +0.000 OA
ATOM     12  O   UNL     1       7.550   6.686  16.423  0.00  0.00    +0.000 OA
ENDBRANCH   9  10
ENDBRANCH   8   9
ENDBRANCH   1   8
TORSDOF 6
ENDMDL
MODEL 7
REMARK VINA RESULT:      -4.8      3.887      5.391
REMARK  Name = 
REMARK  7 active torsions:
REMARK  status: ('A' for Active; 'I' for Inactive)
REMARK    1  A    between atoms: C_1  and  C_2
REMARK    2  A    between atoms: C_3  and  C_4
REMARK    3  A    between atoms: C_4  and  O_5
REMARK    4  A    between atoms: O_5  and  C_6
REMARK    5  A    between atoms: C_6  and  C_8
REMARK    6  A    between atoms: C_8  and  O_9
REMARK    7  A    between atoms: O_9  and  N_10
REMARK                            x       y       z     vdW  Elec       q    Type
REMARK                         _______ _______ _______ _____ _____    ______ ____
ROOT
ATOM      1  C   UNL     1       4.446   4.763  16.945  0.00  0.00    +0.000 C 
ATOM      2  O   UNL     1       4.092   5.869  17.336  0.00  0.00    +0.000 OA
ENDROOT
BRANCH   1   3
ATOM      3  O   UNL     1       4.320   3.602  17.640  0.00  0.00    +0.000 OA
BRANCH   3   4
ATOM      4  C   UNL     1       4.666   3.679  19.031  0.00  0.00    +0.000 C 
BRANCH   4   7
ATOM      5  C   UNL     1       1.010   3.355  20.354  0.00  0.00    +0.000 C 
ATOM      6  C   UNL     1       2.194   3.672  19.500  0.00  0.00    +0.000 C 
ATOM      7  C   UNL     1       3.454   3.393  19.866  0.00  0.00    +0.000 C 
ENDBRANCH   4   7
ENDBRANCH   3   4
ENDBRANCH   1   3
BRANCH   1   8
ATOM      8  C   UNL     1       5.114   4.525  15.616  0.00  0.00    +0.000 C 
BRANCH   8   9
ATOM      9  O   UNL     1       6.286   3.776  15.879  0.00  0.00    +0.000 OA
BRANCH   9  10
ATOM     10  N   UNL     1       7.370   4.600  16.245  0.00  0.00    +0.000 N 
ATOM     11  O   UNL     1       8.054   4.238  17.202  0.00  0.00    +0.000 OA
ATOM     12  O   UNL     1       7.469   5.599  15.536  0.00  0.00    +0.000 OA
ENDBRANCH   9  10
ENDBRANCH   8   9
ENDBRANCH   1   8
TORSDOF 6
ENDMDL
MODEL 8
REMARK VINA RESULT:      -4.8      3.359      5.810
REMARK  Name = 
REMARK  7 active torsions:
REMARK  status: ('A' for Active; 'I' for Inactive)
REMARK    1  A    between atoms: C_1  and  C_2
REMARK    2  A    between atoms: C_3  and  C_4
REMARK    3  A    between atoms: C_4  and  O_5
REMARK    4  A    between atoms: O_5  and  C_6
REMARK    5  A    between atoms: C_6  and  C_8
REMARK    6  A    between atoms: C_8  and  O_9
REMARK    7  A    between atoms: O_9  and  N_10
REMARK                            x       y       z     vdW  Elec       q    Type
REMARK                         _______ _______ _______ _____ _____    ______ ____
ROOT
ATOM      1  C   UNL     1       4.990   5.150  16.753  0.00  0.00    +0.000 C 
ATOM      2  O   UNL     1       4.280   4.155  16.836  0.00  0.00    +0.000 OA
ENDROOT
BRANCH   1   3
ATOM      3  O   UNL     1       5.570   5.613  15.614  0.00  0.00    +0.000 OA
BRANCH   3   4
ATOM      4  C   UNL     1       6.431   4.682  14.941  0.00  0.00    +0.000 C 
BRANCH   4   7
ATOM      5  C   UNL     1       5.417   2.815  11.669  0.00  0.00    +0.000 C 
ATOM      6  C   UNL     1       6.211   3.518  12.721  0.00  0.00    +0.000 C 
ATOM      7  C   UNL     1       5.667   3.987  13.854  0.00  0.00    +0.000 C 
ENDBRANCH   4   7
ENDBRANCH   3   4
ENDBRANCH   1   3
BRANCH   1   8
ATOM      8  C   UNL     1       5.356   6.013  17.932  0.00  0.00    +0.000 C 
BRANCH   8   9
ATOM      9  O   UNL     1       6.762   6.170  17.900  0.00  0.00    +0.000 OA
BRANCH   9  10
ATOM     10  N   UNL     1       7.415   5.267  18.763  0.00  0.00    +0.000 N 
ATOM     11  O   UNL     1       7.294   5.458  19.974  0.00  0.00    +0.000 OA
ATOM     12  O   UNL     1       8.039   4.397  18.160  0.00  0.00    +0.000 OA
ENDBRANCH   9  10
ENDBRANCH   8   9
ENDBRANCH   1   8
TORSDOF 6
ENDMDL
MODEL 9
REMARK VINA RESULT:      -4.7      4.411      5.944
REMARK  Name = 
REMARK  7 active torsions:
REMARK  status: ('A' for Active; 'I' for Inactive)
REMARK    1  A    between atoms: C_1  and  C_2
REMARK    2  A    between atoms: C_3  and  C_4
REMARK    3  A    between atoms: C_4  and  O_5
REMARK    4  A    between atoms: O_5  and  C_6
REMARK    5  A    between atoms: C_6  and  C_8
REMARK    6  A    between atoms: C_8  and  O_9
REMARK    7  A    between atoms: O_9  and  N_10
REMARK                            x       y       z     vdW  Elec       q    Type
REMARK                         _______ _______ _______ _____ _____    ______ ____
ROOT
ATOM      1  C   UNL     1       4.356   5.947  17.717  0.00  0.00    +0.000 C 
ATOM      2  O   UNL     1       4.650   6.866  16.961  0.00  0.00    +0.000 OA
ENDROOT
BRANCH   1   3
ATOM      3  O   UNL     1       3.141   5.341  17.788  0.00  0.00    +0.000 OA
BRANCH   3   4
ATOM      4  C   UNL     1       2.359   5.667  18.947  0.00  0.00    +0.000 C 
BRANCH   4   7
ATOM      5  C   UNL     1       1.439   2.820  21.452  0.00  0.00    +0.000 C 
ATOM      6  C   UNL     1       1.990   4.078  20.863  0.00  0.00    +0.000 C 
ATOM      7  C   UNL     1       1.838   4.407  19.571  0.00  0.00    +0.000 C 
ENDBRANCH   4   7
ENDBRANCH   3   4
ENDBRANCH   1   3
BRANCH   1   8
ATOM      8  C   UNL     1       5.310   5.357  18.722  0.00  0.00    +0.000 C 
BRANCH   8   9
ATOM      9  O   UNL     1       5.973   4.288  18.073  0.00  0.00    +0.000 OA
BRANCH   9  10
ATOM     10  N   UNL     1       7.313   4.602  17.770  0.00  0.00    +0.000 N 
ATOM     11  O   UNL     1       7.634   4.616  16.582  0.00  0.00    +0.000 OA
ATOM     12  O   UNL     1       7.991   4.814  18.773  0.00  0.00    +0.000 OA
ENDBRANCH   9  10
ENDBRANCH   8   9
ENDBRANCH   1   8
TORSDOF 6
ENDMDL
