MODEL 1
REMARK VINA RESULT:      -8.6      0.000      0.000
REMARK  Name = 
REMARK  7 active torsions:
REMARK  status: ('A' for Active; 'I' for Inactive)
REMARK    1  A    between atoms: C_2  and  C_3
REMARK    2  A    between atoms: C_2  and  O_17
REMARK    3  A    between atoms: C_3  and  N_4
REMARK    4  A    between atoms: C_5  and  C_6
REMARK    5  A    between atoms: O_17  and  C_18
REMARK    6  A    between atoms: C_18  and  C_19
REMARK    7  A    between atoms: C_19  and  C_21
REMARK                            x       y       z     vdW  Elec       q    Type
REMARK                         _______ _______ _______ _____ _____    ______ ____
ROOT
ATOM      1  O   UNL     1       5.132   7.108  15.049  0.00  0.00    +0.000 OA
ATOM      2  C   UNL     1       4.973   6.387  16.026  0.00  0.00    +0.000 C 
ENDROOT
BRANCH   2   3
ATOM      3  C   UNL     1       5.307   4.924  16.074  0.00  0.00    +0.000 C 
BRANCH   3   4
ATOM      4  N   UNL     1       5.223   4.346  17.403  0.00  0.00    +0.000 N 
ATOM      5  C   UNL     1       6.151   4.441  18.429  0.00  0.00    +0.000 A 
ATOM      6  N   UNL     1       5.630   3.974  19.557  0.00  0.00    +0.000 NA
ATOM      7  C   UNL     1       4.368   3.546  19.259  0.00  0.00    +0.000 A 
ATOM      8  C   UNL     1       3.400   2.983  20.104  0.00  0.00    +0.000 A 
ATOM      9  C   UNL     1       2.167   2.613  19.563  0.00  0.00    +0.000 A 
ATOM     10  C   UNL     1       1.905   2.794  18.205  0.00  0.00    +0.000 A 
ATOM     11  C   UNL     1       2.858   3.361  17.347  0.00  0.00    +0.000 A 
ATOM     12  C   UNL     1       4.087   3.737  17.909  0.00  0.00    +0.000 A 
BRANCH   5  13
ATOM     13  C   UNL     1       7.539   4.998  18.295  0.00  0.00    +0.000 C 
ATOM     14  F   UNL     1       7.586   6.180  17.632  0.00  0.00    +0.000 F 
ATOM     15  F   UNL     1       8.109   5.226  19.509  0.00  0.00    +0.000 F 
ATOM     16  F   UNL     1       8.361   4.148  17.626  0.00  0.00    +0.000 F 
ENDBRANCH   5  13
ENDBRANCH   3   4
ENDBRANCH   2   3
BRANCH   2  17
ATOM     17  O   UNL     1       4.527   6.818  17.239  0.00  0.00    +0.000 OA
BRANCH  17  18
ATOM     18  C   UNL     1       3.410   7.717  17.184  0.00  0.00    +0.000 C 
BRANCH  18  19
ATOM     19  C   UNL     1       2.604   7.623  18.478  0.00  0.00    +0.000 C 
ATOM     20  O   UNL     1       2.741   6.643  19.220  0.00  0.00    +0.000 OA
BRANCH  19  21
ATOM     21  C   UNL     1       1.669   8.699  18.826  0.00  0.00    +0.000 A 
ATOM     22  C   UNL     1       1.155   9.578  17.885  0.00  0.00    +0.000 A 
ATOM     23  N   UNL     1       0.288  10.432  18.505  0.00  0.00    +0.000 N 
ATOM     24  C   UNL     1       0.231  10.151  19.848  0.00  0.00    +0.000 A 
ATOM     25  C   UNL     1      -0.526  10.767  20.853  0.00  0.00    +0.000 A 
ATOM     26  C   UNL     1      -0.389  10.288  22.157  0.00  0.00    +0.000 A 
ATOM     27  C   UNL     1       0.475   9.239  22.442  0.00  0.00    +0.000 A 
ATOM     28  C   UNL     1       1.220   8.631  21.424  0.00  0.00    +0.000 A 
ATOM     29  C   UNL     1       1.100   9.081  20.090  0.00  0.00    +0.000 A 
ATOM     30  H   UNL     1      -0.237  11.165  18.046  0.00  0.00    +0.000 HD
ENDBRANCH  19  21
ENDBRANCH  18  19
ENDBRANCH  17  18
ENDBRANCH   2  17
TORSDOF 7
ENDMDL
MODEL 2
REMARK VINA RESULT:      -8.3      1.198      1.589
REMARK  Name = 
REMARK  7 active torsions:
REMARK  status: ('A' for Active; 'I' for Inactive)
REMARK    1  A    between atoms: C_2  and  C_3
REMARK    2  A    between atoms: C_2  and  O_17
REMARK    3  A    between atoms: C_3  and  N_4
REMARK    4  A    between atoms: C_5  and  C_6
REMARK    5  A    between atoms: O_17  and  C_18
REMARK    6  A    between atoms: C_18  and  C_19
REMARK    7  A    between atoms: C_19  and  C_21
REMARK                            x       y       z     vdW  Elec       q    Type
REMARK                         _______ _______ _______ _____ _____    ______ ____
ROOT
ATOM      1  O   UNL     1       5.368   6.861  15.200  0.00  0.00    +0.000 OA
ATOM      2  C   UNL     1       4.918   6.100  16.047  0.00  0.00    +0.000 C 
ENDROOT
BRANCH   2   3
ATOM      3  C   UNL     1       5.458   4.730  16.340  0.00  0.00    +0.000 C 
BRANCH   3   4
ATOM      4  N   UNL     1       5.235   4.290  17.705  0.00  0.00    +0.000 N 
ATOM      5  C   UNL     1       5.961   4.636  18.835  0.00  0.00    +0.000 A 
ATOM      6  N   UNL     1       5.329   4.217  19.925  0.00  0.00    +0.000 NA
ATOM      7  C   UNL     1       4.203   3.571  19.503  0.00  0.00    +0.000 A 
ATOM      8  C   UNL     1       3.195   2.959  20.262  0.00  0.00    +0.000 A 
ATOM      9  C   UNL     1       2.128   2.349  19.598  0.00  0.00    +0.000 A 
ATOM     10  C   UNL     1       2.071   2.342  18.204  0.00  0.00    +0.000 A 
ATOM     11  C   UNL     1       3.067   2.954  17.430  0.00  0.00    +0.000 A 
ATOM     12  C   UNL     1       4.124   3.572  18.113  0.00  0.00    +0.000 A 
BRANCH   5  13
ATOM     13  C   UNL     1       7.264   5.382  18.836  0.00  0.00    +0.000 C 
ATOM     14  F   UNL     1       7.177   6.624  18.300  0.00  0.00    +0.000 F 
ATOM     15  F   UNL     1       7.746   5.550  20.097  0.00  0.00    +0.000 F 
ATOM     16  F   UNL     1       8.221   4.724  18.131  0.00  0.00    +0.000 F 
ENDBRANCH   5  13
ENDBRANCH   3   4
ENDBRANCH   2   3
BRANCH   2  17
ATOM     17  O   UNL     1       3.896   6.405  16.895  0.00  0.00    +0.000 OA
BRANCH  17  18
ATOM     18  C   UNL     1       4.064   7.631  17.622  0.00  0.00    +0.000 C 
BRANCH  18  19
ATOM     19  C   UNL     1       2.698   8.251  17.914  0.00  0.00    +0.000 C 
ATOM     20  O   UNL     1       2.126   8.919  17.045  0.00  0.00    +0.000 OA
BRANCH  19  21
ATOM     21  C   UNL     1       2.081   8.049  19.229  0.00  0.00    +0.000 A 
ATOM     22  C   UNL     1       2.232   6.878  19.956  0.00  0.00    +0.000 A 
ATOM     23  N   UNL     1       1.578   7.009  21.147  0.00  0.00    +0.000 N 
ATOM     24  C   UNL     1       0.975   8.241  21.219  0.00  0.00    +0.000 A 
ATOM     25  C   UNL     1       0.211   8.798  22.254  0.00  0.00    +0.000 A 
ATOM     26  C   UNL     1      -0.302  10.083  22.066  0.00  0.00    +0.000 A 
ATOM     27  C   UNL     1      -0.063  10.778  20.888  0.00  0.00    +0.000 A 
ATOM     28  C   UNL     1       0.707  10.209  19.866  0.00  0.00    +0.000 A 
ATOM     29  C   UNL     1       1.252   8.914  20.024  0.00  0.00    +0.000 A 
ATOM     30  H   UNL     1       1.541   6.306  21.874  0.00  0.00    +0.000 HD
ENDBRANCH  19  21
ENDBRANCH  18  19
ENDBRANCH  17  18
ENDBRANCH   2  17
TORSDOF 7
ENDMDL
MODEL 3
REMARK VINA RESULT:      -8.3      4.973      6.778
REMARK  Name = 
REMARK  7 active torsions:
REMARK  status: ('A' for Active; 'I' for Inactive)
REMARK    1  A    between atoms: C_2  and  C_3
REMARK    2  A    between atoms: C_2  and  O_17
REMARK    3  A    between atoms: C_3  and  N_4
REMARK    4  A    between atoms: C_5  and  C_6
REMARK    5  A    between atoms: O_17  and  C_18
REMARK    6  A    between atoms: C_18  and  C_19
REMARK    7  A    between atoms: C_19  and  C_21
REMARK                            x       y       z     vdW  Elec       q    Type
REMARK                         _______ _______ _______ _____ _____    ______ ____
ROOT
ATOM      1  O   UNL     1       7.180   5.436  19.151  0.00  0.00    +0.000 OA
ATOM      2  C   UNL     1       7.069   6.308  18.299  0.00  0.00    +0.000 C 
ENDROOT
BRANCH   2   3
ATOM      3  C   UNL     1       5.794   6.646  17.580  0.00  0.00    +0.000 C 
BRANCH   3   4
ATOM      4  N   UNL     1       4.911   5.510  17.385  0.00  0.00    +0.000 N 
ATOM      5  C   UNL     1       5.075   4.452  16.504  0.00  0.00    +0.000 A 
ATOM      6  N   UNL     1       4.184   3.503  16.766  0.00  0.00    +0.000 NA
ATOM      7  C   UNL     1       3.420   3.956  17.802  0.00  0.00    +0.000 A 
ATOM      8  C   UNL     1       2.353   3.325  18.459  0.00  0.00    +0.000 A 
ATOM      9  C   UNL     1       1.712   3.998  19.502  0.00  0.00    +0.000 A 
ATOM     10  C   UNL     1       2.121   5.278  19.878  0.00  0.00    +0.000 A 
ATOM     11  C   UNL     1       3.189   5.921  19.236  0.00  0.00    +0.000 A 
ATOM     12  C   UNL     1       3.828   5.226  18.199  0.00  0.00    +0.000 A 
BRANCH   5  13
ATOM     13  C   UNL     1       6.109   4.377  15.418  0.00  0.00    +0.000 C 
ATOM     14  F   UNL     1       6.124   5.466  14.610  0.00  0.00    +0.000 F 
ATOM     15  F   UNL     1       7.366   4.270  15.926  0.00  0.00    +0.000 F 
ATOM     16  F   UNL     1       5.915   3.302  14.611  0.00  0.00    +0.000 F 
ENDBRANCH   5  13
ENDBRANCH   3   4
ENDBRANCH   2   3
BRANCH   2  17
ATOM     17  O   UNL     1       8.072   7.148  17.918  0.00  0.00    +0.000 OA
BRANCH  17  18
ATOM     18  C   UNL     1       8.587   7.984  18.964  0.00  0.00    +0.000 C 
BRANCH  18  19
ATOM     19  C   UNL     1       8.574   9.444  18.514  0.00  0.00    +0.000 C 
ATOM     20  O   UNL     1       7.923   9.776  17.517  0.00  0.00    +0.000 OA
BRANCH  19  21
ATOM     21  C   UNL     1       9.342  10.439  19.271  0.00  0.00    +0.000 A 
ATOM     22  C   UNL     1       9.203  10.609  20.640  0.00  0.00    +0.000 A 
ATOM     23  N   UNL     1      10.076  11.573  21.057  0.00  0.00    +0.000 N 
ATOM     24  C   UNL     1      10.780  12.065  19.984  0.00  0.00    +0.000 A 
ATOM     25  C   UNL     1      11.775  13.051  19.951  0.00  0.00    +0.000 A 
ATOM     26  C   UNL     1      12.330  13.375  18.712  0.00  0.00    +0.000 A 
ATOM     27  C   UNL     1      11.902  12.740  17.554  0.00  0.00    +0.000 A 
ATOM     28  C   UNL     1      10.910  11.752  17.606  0.00  0.00    +0.000 A 
ATOM     29  C   UNL     1      10.332  11.390  18.843  0.00  0.00    +0.000 A 
ATOM     30  H   UNL     1      10.190  11.884  22.012  0.00  0.00    +0.000 HD
ENDBRANCH  19  21
ENDBRANCH  18  19
ENDBRANCH  17  18
ENDBRANCH   2  17
TORSDOF 7
ENDMDL
MODEL 4
REMARK VINA RESULT:      -8.2      2.656      4.844
REMARK  Name = 
REMARK  7 active torsions:
REMARK  status: ('A' for Active; 'I' for Inactive)
REMARK    1  A    between atoms: C_2  and  C_3
REMARK    2  A    between atoms: C_2  and  O_17
REMARK    3  A    between atoms: C_3  and  N_4
REMARK    4  A    between atoms: C_5  and  C_6
REMARK    5  A    between atoms: O_17  and  C_18
REMARK    6  A    between atoms: C_18  and  C_19
REMARK    7  A    between atoms: C_19  and  C_21
REMARK                            x       y       z     vdW  Elec       q    Type
REMARK                         _______ _______ _______ _____ _____    ______ ____
ROOT
ATOM      1  O   UNL     1       5.696   3.632  18.420  0.00  0.00    +0.000 OA
ATOM      2  C   UNL     1       4.827   3.723  17.563  0.00  0.00    +0.000 C 
ENDROOT
BRANCH   2   3
ATOM      3  C   UNL     1       4.630   4.911  16.666  0.00  0.00    +0.000 C 
BRANCH   3   4
ATOM      4  N   UNL     1       5.747   5.167  15.775  0.00  0.00    +0.000 N 
ATOM      5  C   UNL     1       6.925   5.837  16.067  0.00  0.00    +0.000 A 
ATOM      6  N   UNL     1       7.794   5.680  15.074  0.00  0.00    +0.000 NA
ATOM      7  C   UNL     1       7.168   4.929  14.121  0.00  0.00    +0.000 A 
ATOM      8  C   UNL     1       7.658   4.476  12.887  0.00  0.00    +0.000 A 
ATOM      9  C   UNL     1       6.820   3.717  12.067  0.00  0.00    +0.000 A 
ATOM     10  C   UNL     1       5.516   3.421  12.466  0.00  0.00    +0.000 A 
ATOM     11  C   UNL     1       5.012   3.861  13.698  0.00  0.00    +0.000 A 
ATOM     12  C   UNL     1       5.871   4.612  14.513  0.00  0.00    +0.000 A 
BRANCH   5  13
ATOM     13  C   UNL     1       7.193   6.620  17.320  0.00  0.00    +0.000 C 
ATOM     14  F   UNL     1       6.068   7.078  17.922  0.00  0.00    +0.000 F 
ATOM     15  F   UNL     1       7.839   5.870  18.253  0.00  0.00    +0.000 F 
ATOM     16  F   UNL     1       7.971   7.707  17.079  0.00  0.00    +0.000 F 
ENDBRANCH   5  13
ENDBRANCH   3   4
ENDBRANCH   2   3
BRANCH   2  17
ATOM     17  O   UNL     1       3.943   2.734  17.251  0.00  0.00    +0.000 OA
BRANCH  17  18
ATOM     18  C   UNL     1       3.338   2.090  18.381  0.00  0.00    +0.000 C 
BRANCH  18  19
ATOM     19  C   UNL     1       2.005   2.761  18.707  0.00  0.00    +0.000 C 
ATOM     20  O   UNL     1       0.950   2.275  18.284  0.00  0.00    +0.000 OA
BRANCH  19  21
ATOM     21  C   UNL     1       1.992   3.983  19.519  0.00  0.00    +0.000 A 
ATOM     22  C   UNL     1       1.994   3.961  20.906  0.00  0.00    +0.000 A 
ATOM     23  N   UNL     1       2.022   5.246  21.368  0.00  0.00    +0.000 N 
ATOM     24  C   UNL     1       2.018   6.126  20.312  0.00  0.00    +0.000 A 
ATOM     25  C   UNL     1       2.047   7.526  20.323  0.00  0.00    +0.000 A 
ATOM     26  C   UNL     1       2.024   8.188  19.094  0.00  0.00    +0.000 A 
ATOM     27  C   UNL     1       1.970   7.474  17.904  0.00  0.00    +0.000 A 
ATOM     28  C   UNL     1       1.947   6.073  17.912  0.00  0.00    +0.000 A 
ATOM     29  C   UNL     1       1.979   5.369  19.136  0.00  0.00    +0.000 A 
ATOM     30  H   UNL     1       2.044   5.516  22.342  0.00  0.00    +0.000 HD
ENDBRANCH  19  21
ENDBRANCH  18  19
ENDBRANCH  17  18
ENDBRANCH   2  17
TORSDOF 7
ENDMDL
MODEL 5
REMARK VINA RESULT:      -8.2      2.113      3.493
REMARK  Name = 
REMARK  7 active torsions:
REMARK  status: ('A' for Active; 'I' for Inactive)
REMARK    1  A    between atoms: C_2  and  C_3
REMARK    2  A    between atoms: C_2  and  O_17
REMARK    3  A    between atoms: C_3  and  N_4
REMARK    4  A    between atoms: C_5  and  C_6
REMARK    5  A    between atoms: O_17  and  C_18
REMARK    6  A    between atoms: C_18  and  C_19
REMARK    7  A    between atoms: C_19  and  C_21
REMARK                            x       y       z     vdW  Elec       q    Type
REMARK                         _______ _______ _______ _____ _____    ______ ____
ROOT
ATOM      1  O   UNL     1       1.139   3.545  18.038  0.00  0.00    +0.000 OA
ATOM      2  C   UNL     1       2.014   4.318  17.670  0.00  0.00    +0.000 C 
ENDROOT
BRANCH   2   3
ATOM      3  C   UNL     1       3.376   3.906  17.192  0.00  0.00    +0.000 C 
BRANCH   3   4
ATOM      4  N   UNL     1       4.451   4.266  18.099  0.00  0.00    +0.000 N 
ATOM      5  C   UNL     1       4.835   3.610  19.259  0.00  0.00    +0.000 A 
ATOM      6  N   UNL     1       5.988   4.103  19.697  0.00  0.00    +0.000 NA
ATOM      7  C   UNL     1       6.342   5.101  18.836  0.00  0.00    +0.000 A 
ATOM      8  C   UNL     1       7.478   5.923  18.850  0.00  0.00    +0.000 A 
ATOM      9  C   UNL     1       7.621   6.892  17.854  0.00  0.00    +0.000 A 
ATOM     10  C   UNL     1       6.647   7.043  16.866  0.00  0.00    +0.000 A 
ATOM     11  C   UNL     1       5.508   6.227  16.834  0.00  0.00    +0.000 A 
ATOM     12  C   UNL     1       5.386   5.252  17.835  0.00  0.00    +0.000 A 
BRANCH   5  13
ATOM     13  C   UNL     1       4.072   2.501  19.923  0.00  0.00    +0.000 C 
ATOM     14  F   UNL     1       3.678   1.527  19.066  0.00  0.00    +0.000 F 
ATOM     15  F   UNL     1       4.816   1.881  20.879  0.00  0.00    +0.000 F 
ATOM     16  F   UNL     1       2.947   2.957  20.532  0.00  0.00    +0.000 F 
ENDBRANCH   5  13
ENDBRANCH   3   4
ENDBRANCH   2   3
BRANCH   2  17
ATOM     17  O   UNL     1       1.862   5.670  17.582  0.00  0.00    +0.000 OA
BRANCH  17  18
ATOM     18  C   UNL     1       2.085   6.381  18.808  0.00  0.00    +0.000 C 
BRANCH  18  19
ATOM     19  C   UNL     1       2.339   7.858  18.511  0.00  0.00    +0.000 C 
ATOM     20  O   UNL     1       3.344   8.195  17.874  0.00  0.00    +0.000 OA
BRANCH  19  21
ATOM     21  C   UNL     1       1.385   8.865  18.990  0.00  0.00    +0.000 A 
ATOM     22  C   UNL     1       0.716   9.729  18.137  0.00  0.00    +0.000 A 
ATOM     23  N   UNL     1      -0.126  10.513  18.873  0.00  0.00    +0.000 N 
ATOM     24  C   UNL     1      -0.014  10.201  20.206  0.00  0.00    +0.000 A 
ATOM     25  C   UNL     1      -0.690  10.746  21.306  0.00  0.00    +0.000 A 
ATOM     26  C   UNL     1      -0.378  10.250  22.573  0.00  0.00    +0.000 A 
ATOM     27  C   UNL     1       0.575   9.252  22.730  0.00  0.00    +0.000 A 
ATOM     28  C   UNL     1       1.237   8.715  21.619  0.00  0.00    +0.000 A 
ATOM     29  C   UNL     1       0.940   9.184  20.320  0.00  0.00    +0.000 A 
ATOM     30  H   UNL     1      -0.744  11.220  18.496  0.00  0.00    +0.000 HD
ENDBRANCH  19  21
ENDBRANCH  18  19
ENDBRANCH  17  18
ENDBRANCH   2  17
TORSDOF 7
ENDMDL
MODEL 6
REMARK VINA RESULT:      -8.2      2.103      3.599
REMARK  Name = 
REMARK  7 active torsions:
REMARK  status: ('A' for Active; 'I' for Inactive)
REMARK    1  A    between atoms: C_2  and  C_3
REMARK    2  A    between atoms: C_2  and  O_17
REMARK    3  A    between atoms: C_3  and  N_4
REMARK    4  A    between atoms: C_5  and  C_6
REMARK    5  A    between atoms: O_17  and  C_18
REMARK    6  A    between atoms: C_18  and  C_19
REMARK    7  A    between atoms: C_19  and  C_21
REMARK                            x       y       z     vdW  Elec       q    Type
REMARK                         _______ _______ _______ _____ _____    ______ ____
ROOT
ATOM      1  O   UNL     1       3.054   2.909  16.748  0.00  0.00    +0.000 OA
ATOM      2  C   UNL     1       3.870   3.788  16.994  0.00  0.00    +0.000 C 
ENDROOT
BRANCH   2   3
ATOM      3  C   UNL     1       5.355   3.579  17.076  0.00  0.00    +0.000 C 
BRANCH   3   4
ATOM      4  N   UNL     1       6.116   4.409  16.161  0.00  0.00    +0.000 N 
ATOM      5  C   UNL     1       7.027   5.405  16.479  0.00  0.00    +0.000 A 
ATOM      6  N   UNL     1       7.681   5.787  15.388  0.00  0.00    +0.000 NA
ATOM      7  C   UNL     1       7.174   5.057  14.351  0.00  0.00    +0.000 A 
ATOM      8  C   UNL     1       7.534   5.075  12.996  0.00  0.00    +0.000 A 
ATOM      9  C   UNL     1       6.861   4.231  12.109  0.00  0.00    +0.000 A 
ATOM     10  C   UNL     1       5.844   3.391  12.563  0.00  0.00    +0.000 A 
ATOM     11  C   UNL     1       5.475   3.356  13.915  0.00  0.00    +0.000 A 
ATOM     12  C   UNL     1       6.169   4.202  14.793  0.00  0.00    +0.000 A 
BRANCH   5  13
ATOM     13  C   UNL     1       7.255   5.968  17.852  0.00  0.00    +0.000 C 
ATOM     14  F   UNL     1       6.107   6.251  18.517  0.00  0.00    +0.000 F 
ATOM     15  F   UNL     1       7.943   5.103  18.643  0.00  0.00    +0.000 F 
ATOM     16  F   UNL     1       7.970   7.122  17.811  0.00  0.00    +0.000 F 
ENDBRANCH   5  13
ENDBRANCH   3   4
ENDBRANCH   2   3
BRANCH   2  17
ATOM     17  O   UNL     1       3.559   5.103  17.169  0.00  0.00    +0.000 OA
BRANCH  17  18
ATOM     18  C   UNL     1       2.403   5.344  17.986  0.00  0.00    +0.000 C 
BRANCH  18  19
ATOM     19  C   UNL     1       2.742   6.360  19.075  0.00  0.00    +0.000 C 
ATOM     20  O   UNL     1       3.484   6.038  20.010  0.00  0.00    +0.000 OA
BRANCH  19  21
ATOM     21  C   UNL     1       2.176   7.712  19.001  0.00  0.00    +0.000 A 
ATOM     22  C   UNL     1       2.252   8.494  17.858  0.00  0.00    +0.000 A 
ATOM     23  N   UNL     1       1.603   9.674  18.086  0.00  0.00    +0.000 N 
ATOM     24  C   UNL     1       1.112   9.701  19.369  0.00  0.00    +0.000 A 
ATOM     25  C   UNL     1       0.383  10.703  20.021  0.00  0.00    +0.000 A 
ATOM     26  C   UNL     1       0.010  10.480  21.348  0.00  0.00    +0.000 A 
ATOM     27  C   UNL     1       0.360   9.302  21.995  0.00  0.00    +0.000 A 
ATOM     28  C   UNL     1       1.085   8.308  21.327  0.00  0.00    +0.000 A 
ATOM     29  C   UNL     1       1.471   8.494  19.981  0.00  0.00    +0.000 A 
ATOM     30  H   UNL     1       1.495  10.420  17.413  0.00  0.00    +0.000 HD
ENDBRANCH  19  21
ENDBRANCH  18  19
ENDBRANCH  17  18
ENDBRANCH   2  17
TORSDOF 7
ENDMDL
MODEL 7
REMARK VINA RESULT:      -8.1      3.460      4.831
REMARK  Name = 
REMARK  7 active torsions:
REMARK  status: ('A' for Active; 'I' for Inactive)
REMARK    1  A    between atoms: C_2  and  C_3
REMARK    2  A    between atoms: C_2  and  O_17
REMARK    3  A    between atoms: C_3  and  N_4
REMARK    4  A    between atoms: C_5  and  C_6
REMARK    5  A    between atoms: O_17  and  C_18
REMARK    6  A    between atoms: C_18  and  C_19
REMARK    7  A    between atoms: C_19  and  C_21
REMARK                            x       y       z     vdW  Elec       q    Type
REMARK                         _______ _______ _______ _____ _____    ______ ____
ROOT
ATOM      1  O   UNL     1       2.816   8.866  17.098  0.00  0.00    +0.000 OA
ATOM      2  C   UNL     1       2.209   8.214  17.938  0.00  0.00    +0.000 C 
ENDROOT
BRANCH   2   3
ATOM      3  C   UNL     1       2.062   6.719  17.919  0.00  0.00    +0.000 C 
BRANCH   3   4
ATOM      4  N   UNL     1       3.180   6.011  18.517  0.00  0.00    +0.000 N 
ATOM      5  C   UNL     1       3.175   5.243  19.671  0.00  0.00    +0.000 A 
ATOM      6  N   UNL     1       4.321   4.579  19.778  0.00  0.00    +0.000 NA
ATOM      7  C   UNL     1       5.084   4.938  18.705  0.00  0.00    +0.000 A 
ATOM      8  C   UNL     1       6.371   4.509  18.349  0.00  0.00    +0.000 A 
ATOM      9  C   UNL     1       6.959   5.028  17.193  0.00  0.00    +0.000 A 
ATOM     10  C   UNL     1       6.281   5.963  16.410  0.00  0.00    +0.000 A 
ATOM     11  C   UNL     1       4.992   6.399  16.748  0.00  0.00    +0.000 A 
ATOM     12  C   UNL     1       4.412   5.859  17.905  0.00  0.00    +0.000 A 
BRANCH   5  13
ATOM     13  C   UNL     1       2.045   5.159  20.655  0.00  0.00    +0.000 C 
ATOM     14  F   UNL     1       1.581   6.371  21.050  0.00  0.00    +0.000 F 
ATOM     15  F   UNL     1       0.974   4.498  20.138  0.00  0.00    +0.000 F 
ATOM     16  F   UNL     1       2.408   4.500  21.786  0.00  0.00    +0.000 F 
ENDBRANCH   5  13
ENDBRANCH   3   4
ENDBRANCH   2   3
BRANCH   2  17
ATOM     17  O   UNL     1       1.626   8.740  19.052  0.00  0.00    +0.000 OA
BRANCH  17  18
ATOM     18  C   UNL     1       1.005  10.019  18.858  0.00  0.00    +0.000 C 
BRANCH  18  19
ATOM     19  C   UNL     1      -0.235  10.132  19.744  0.00  0.00    +0.000 C 
ATOM     20  O   UNL     1      -0.222   9.659  20.886  0.00  0.00    +0.000 OA
BRANCH  19  21
ATOM     21  C   UNL     1      -1.433  10.800  19.225  0.00  0.00    +0.000 A 
ATOM     22  C   UNL     1      -2.081  11.816  19.911  0.00  0.00    +0.000 A 
ATOM     23  N   UNL     1      -3.130  12.260  19.157  0.00  0.00    +0.000 N 
ATOM     24  C   UNL     1      -3.206  11.543  17.988  0.00  0.00    +0.000 A 
ATOM     25  C   UNL     1      -4.114  11.664  16.929  0.00  0.00    +0.000 A 
ATOM     26  C   UNL     1      -3.974  10.792  15.847  0.00  0.00    +0.000 A 
ATOM     27  C   UNL     1      -2.967   9.835  15.832  0.00  0.00    +0.000 A 
ATOM     28  C   UNL     1      -2.065   9.731  16.898  0.00  0.00    +0.000 A 
ATOM     29  C   UNL     1      -2.168  10.604  18.004  0.00  0.00    +0.000 A 
ATOM     30  H   UNL     1      -3.761  13.007  19.417  0.00  0.00    +0.000 HD
ENDBRANCH  19  21
ENDBRANCH  18  19
ENDBRANCH  17  18
ENDBRANCH   2  17
TORSDOF 7
ENDMDL
MODEL 8
REMARK VINA RESULT:      -8.0      2.541      4.097
REMARK  Name = 
REMARK  7 active torsions:
REMARK  status: ('A' for Active; 'I' for Inactive)
REMARK    1  A    between atoms: C_2  and  C_3
REMARK    2  A    between atoms: C_2  and  O_17
REMARK    3  A    between atoms: C_3  and  N_4
REMARK    4  A    between atoms: C_5  and  C_6
REMARK    5  A    between atoms: O_17  and  C_18
REMARK    6  A    between atoms: C_18  and  C_19
REMARK    7  A    between atoms: C_19  and  C_21
REMARK                            x       y       z     vdW  Elec       q    Type
REMARK                         _______ _______ _______ _____ _____    ______ ____
ROOT
ATOM      1  O   UNL     1       1.277   4.995  19.237  0.00  0.00    +0.000 OA
ATOM      2  C   UNL     1       2.016   5.455  18.376  0.00  0.00    +0.000 C 
ENDROOT
BRANCH   2   3
ATOM      3  C   UNL     1       3.090   4.681  17.668  0.00  0.00    +0.000 C 
BRANCH   3   4
ATOM      4  N   UNL     1       4.376   4.709  18.342  0.00  0.00    +0.000 N 
ATOM      5  C   UNL     1       4.903   3.754  19.197  0.00  0.00    +0.000 A 
ATOM      6  N   UNL     1       6.182   4.019  19.440  0.00  0.00    +0.000 NA
ATOM      7  C   UNL     1       6.480   5.166  18.763  0.00  0.00    +0.000 A 
ATOM      8  C   UNL     1       7.698   5.857  18.682  0.00  0.00    +0.000 A 
ATOM      9  C   UNL     1       7.760   7.028  17.923  0.00  0.00    +0.000 A 
ATOM     10  C   UNL     1       6.627   7.505  17.262  0.00  0.00    +0.000 A 
ATOM     11  C   UNL     1       5.403   6.824  17.327  0.00  0.00    +0.000 A 
ATOM     12  C   UNL     1       5.362   5.645  18.085  0.00  0.00    +0.000 A 
BRANCH   5  13
ATOM     13  C   UNL     1       4.151   2.584  19.764  0.00  0.00    +0.000 C 
ATOM     14  F   UNL     1       3.095   2.942  20.535  0.00  0.00    +0.000 F 
ATOM     15  F   UNL     1       3.646   1.788  18.783  0.00  0.00    +0.000 F 
ATOM     16  F   UNL     1       4.946   1.801  20.539  0.00  0.00    +0.000 F 
ENDBRANCH   5  13
ENDBRANCH   3   4
ENDBRANCH   2   3
BRANCH   2  17
ATOM     17  O   UNL     1       1.935   6.724  17.885  0.00  0.00    +0.000 OA
BRANCH  17  18
ATOM     18  C   UNL     1       2.011   7.758  18.877  0.00  0.00    +0.000 C 
BRANCH  18  19
ATOM     19  C   UNL     1       1.717   9.113  18.235  0.00  0.00    +0.000 C 
ATOM     20  O   UNL     1       2.337   9.465  17.225  0.00  0.00    +0.000 OA
BRANCH  19  21
ATOM     21  C   UNL     1       0.699   9.987  18.831  0.00  0.00    +0.000 A 
ATOM     22  C   UNL     1       0.925  10.720  19.986  0.00  0.00    +0.000 A 
ATOM     23  N   UNL     1      -0.187  11.462  20.263  0.00  0.00    +0.000 N 
ATOM     24  C   UNL     1      -1.160  11.220  19.324  0.00  0.00    +0.000 A 
ATOM     25  C   UNL     1      -2.447  11.764  19.217  0.00  0.00    +0.000 A 
ATOM     26  C   UNL     1      -3.249  11.335  18.159  0.00  0.00    +0.000 A 
ATOM     27  C   UNL     1      -2.783  10.395  17.249  0.00  0.00    +0.000 A 
ATOM     28  C   UNL     1      -1.492   9.865  17.368  0.00  0.00    +0.000 A 
ATOM     29  C   UNL     1      -0.646  10.284  18.420  0.00  0.00    +0.000 A 
ATOM     30  H   UNL     1      -0.285  12.098  21.044  0.00  0.00    +0.000 HD
ENDBRANCH  19  21
ENDBRANCH  18  19
ENDBRANCH  17  18
ENDBRANCH   2  17
TORSDOF 7
ENDMDL
MODEL 9
REMARK VINA RESULT:      -8.0      3.424      4.995
REMARK  Name = 
REMARK  7 active torsions:
REMARK  status: ('A' for Active; 'I' for Inactive)
REMARK    1  A    between atoms: C_2  and  C_3
REMARK    2  A    between atoms: C_2  and  O_17
REMARK    3  A    between atoms: C_3  and  N_4
REMARK    4  A    between atoms: C_5  and  C_6
REMARK    5  A    between atoms: O_17  and  C_18
REMARK    6  A    between atoms: C_18  and  C_19
REMARK    7  A    between atoms: C_19  and  C_21
REMARK                            x       y       z     vdW  Elec       q    Type
REMARK                         _______ _______ _______ _____ _____    ______ ____
ROOT
ATOM      1  O   UNL     1       2.261   7.187  20.065  0.00  0.00    +0.000 OA
ATOM      2  C   UNL     1       2.245   7.748  18.977  0.00  0.00    +0.000 C 
ENDROOT
BRANCH   2   3
ATOM      3  C   UNL     1       2.509   7.073  17.662  0.00  0.00    +0.000 C 
BRANCH   3   4
ATOM      4  N   UNL     1       3.399   5.930  17.756  0.00  0.00    +0.000 N 
ATOM      5  C   UNL     1       3.051   4.590  17.830  0.00  0.00    +0.000 A 
ATOM      6  N   UNL     1       4.132   3.832  17.682  0.00  0.00    +0.000 NA
ATOM      7  C   UNL     1       5.190   4.682  17.540  0.00  0.00    +0.000 A 
ATOM      8  C   UNL     1       6.547   4.383  17.342  0.00  0.00    +0.000 A 
ATOM      9  C   UNL     1       7.459   5.435  17.230  0.00  0.00    +0.000 A 
ATOM     10  C   UNL     1       7.029   6.759  17.318  0.00  0.00    +0.000 A 
ATOM     11  C   UNL     1       5.677   7.076  17.510  0.00  0.00    +0.000 A 
ATOM     12  C   UNL     1       4.773   6.008  17.610  0.00  0.00    +0.000 A 
BRANCH   5  13
ATOM     13  C   UNL     1       1.660   4.063  18.037  0.00  0.00    +0.000 C 
ATOM     14  F   UNL     1       1.576   2.712  17.957  0.00  0.00    +0.000 F 
ATOM     15  F   UNL     1       1.173   4.397  19.261  0.00  0.00    +0.000 F 
ATOM     16  F   UNL     1       0.792   4.558  17.116  0.00  0.00    +0.000 F 
ENDBRANCH   5  13
ENDBRANCH   3   4
ENDBRANCH   2   3
BRANCH   2  17
ATOM     17  O   UNL     1       1.925   9.059  18.788  0.00  0.00    +0.000 OA
BRANCH  17  18
ATOM     18  C   UNL     1       0.845   9.537  19.603  0.00  0.00    +0.000 C 
BRANCH  18  19
ATOM     19  C   UNL     1       0.512  10.980  19.226  0.00  0.00    +0.000 C 
ATOM     20  O   UNL     1       1.417  11.817  19.131  0.00  0.00    +0.000 OA
BRANCH  19  21
ATOM     21  C   UNL     1      -0.885  11.359  18.985  0.00  0.00    +0.000 A 
ATOM     22  C   UNL     1      -1.554  12.291  19.765  0.00  0.00    +0.000 A 
ATOM     23  N   UNL     1      -2.815  12.458  19.269  0.00  0.00    +0.000 N 
ATOM     24  C   UNL     1      -3.007  11.637  18.184  0.00  0.00    +0.000 A 
ATOM     25  C   UNL     1      -4.138  11.487  17.372  0.00  0.00    +0.000 A 
ATOM     26  C   UNL     1      -4.072  10.565  16.327  0.00  0.00    +0.000 A 
ATOM     27  C   UNL     1      -2.921   9.819  16.109  0.00  0.00    +0.000 A 
ATOM     28  C   UNL     1      -1.797   9.985  16.927  0.00  0.00    +0.000 A 
ATOM     29  C   UNL     1      -1.822  10.917  17.989  0.00  0.00    +0.000 A 
ATOM     30  H   UNL     1      -3.510  13.091  19.642  0.00  0.00    +0.000 HD
ENDBRANCH  19  21
ENDBRANCH  18  19
ENDBRANCH  17  18
ENDBRANCH   2  17
TORSDOF 7
ENDMDL
