MODEL 1
REMARK VINA RESULT:      -7.5      0.000      0.000
REMARK  Name = 
REMARK  14 active torsions:
REMARK  status: ('A' for Active; 'I' for Inactive)
REMARK    1  A    between atoms: C_1  and  C_2
REMARK    2  A    between atoms: C_2  and  C_3
REMARK    3  A    between atoms: C_3  and  C_4
REMARK    4  A    between atoms: C_4  and  C_5
REMARK    5  A    between atoms: C_4  and  C_6
REMARK    6  A    between atoms: C_6  and  O_7
REMARK    7  A    between atoms: C_6  and  C_8
REMARK    8  A    between atoms: C_8  and  C_9
REMARK    9  A    between atoms: C_9  and  N_10
REMARK   10  A    between atoms: N_15  and  C_16
REMARK   11  A    between atoms: C_16  and  C_17
REMARK   12  A    between atoms: C_17  and  C_18
REMARK   13  A    between atoms: C_21  and  C_22
REMARK   14  A    between atoms: C_22  and  O_24
REMARK                            x       y       z     vdW  Elec       q    Type
REMARK                         _______ _______ _______ _____ _____    ______ ____
ROOT
ATOM      1  N   UNL     1       5.517   4.979  16.400  0.00  0.00    +0.000 NA
ATOM      2  C   UNL     1       6.764   5.772  16.289  0.00  0.00    +0.000 C 
ATOM      3  C   UNL     1       7.037   6.293  17.680  0.00  0.00    +0.000 C 
ATOM      4  C   UNL     1       6.408   5.242  18.541  0.00  0.00    +0.000 C 
ATOM      5  O   UNL     1       6.595   5.128  19.744  0.00  0.00    +0.000 OA
ATOM      6  N   UNL     1       5.507   4.534  17.751  0.00  0.00    +0.000 N 
ENDROOT
BRANCH   1   7
ATOM      7  C   UNL     1       5.580   3.929  15.364  0.00  0.00    +0.000 C 
BRANCH   7   8
ATOM      8  C   UNL     1       5.451   4.331  13.893  0.00  0.00    +0.000 C 
BRANCH   8   9
ATOM      9  C   UNL     1       6.325   3.572  12.875  0.00  0.00    +0.000 C 
BRANCH   9  10
ATOM     10  C   UNL     1       5.465   2.691  11.927  0.00  0.00    +0.000 C 
ATOM     11  C   UNL     1       6.291   1.521  11.376  0.00  0.00    +0.000 C 
BRANCH  10  12
ATOM     12  C   UNL     1       4.841   3.545  10.801  0.00  0.00    +0.000 C 
BRANCH  12  14
ATOM     13  C   UNL     1       2.786   4.187   9.498  0.00  0.00    +0.000 C 
ATOM     14  C   UNL     1       3.323   3.392  10.676  0.00  0.00    +0.000 C 
ENDBRANCH  12  14
ENDBRANCH  10  12
ENDBRANCH   9  10
BRANCH   9  15
ATOM     15  O   UNL     1       7.141   4.440  12.096  0.00  0.00    +0.000 OA
ATOM     16  H   UNL     1       8.057   4.133  12.134  0.00  0.00    +0.000 HD
ENDBRANCH   9  15
ENDBRANCH   8   9
ENDBRANCH   7   8
ENDBRANCH   1   7
BRANCH   6  17
ATOM     17  C   UNL     1       4.420   3.764  18.351  0.00  0.00    +0.000 C 
BRANCH  17  18
ATOM     18  C   UNL     1       3.010   4.227  17.957  0.00  0.00    +0.000 C 
BRANCH  18  19
ATOM     19  C   UNL     1       2.548   5.459  18.708  0.00  0.00    +0.000 A 
ATOM     20  C   UNL     1       2.075   5.334  20.023  0.00  0.00    +0.000 A 
ATOM     21  C   UNL     1       1.688   6.459  20.760  0.00  0.00    +0.000 A 
ATOM     22  C   UNL     1       1.751   7.733  20.187  0.00  0.00    +0.000 A 
ATOM     23  C   UNL     1       2.226   7.874  18.877  0.00  0.00    +0.000 A 
ATOM     24  C   UNL     1       2.614   6.744  18.142  0.00  0.00    +0.000 A 
BRANCH  22  25
ATOM     25  C   UNL     1       1.360   8.893  21.032  0.00  0.00    +0.000 C 
ATOM     26  O   UNL     1       0.772   9.865  20.590  0.00  0.00    +0.000 OA
BRANCH  25  27
ATOM     27  O   UNL     1       1.751   8.798  22.321  0.00  0.00    +0.000 OA
ATOM     28  H   UNL     1       2.132   9.607  22.701  0.00  0.00    +0.000 HD
ENDBRANCH  25  27
ENDBRANCH  22  25
ENDBRANCH  18  19
ENDBRANCH  17  18
ENDBRANCH   6  17
TORSDOF 12
ENDMDL
MODEL 2
REMARK VINA RESULT:      -7.3      2.149      4.091
REMARK  Name = 
REMARK  14 active torsions:
REMARK  status: ('A' for Active; 'I' for Inactive)
REMARK    1  A    between atoms: C_1  and  C_2
REMARK    2  A    between atoms: C_2  and  C_3
REMARK    3  A    between atoms: C_3  and  C_4
REMARK    4  A    between atoms: C_4  and  C_5
REMARK    5  A    between atoms: C_4  and  C_6
REMARK    6  A    between atoms: C_6  and  O_7
REMARK    7  A    between atoms: C_6  and  C_8
REMARK    8  A    between atoms: C_8  and  C_9
REMARK    9  A    between atoms: C_9  and  N_10
REMARK   10  A    between atoms: N_15  and  C_16
REMARK   11  A    between atoms: C_16  and  C_17
REMARK   12  A    between atoms: C_17  and  C_18
REMARK   13  A    between atoms: C_21  and  C_22
REMARK   14  A    between atoms: C_22  and  O_24
REMARK                            x       y       z     vdW  Elec       q    Type
REMARK                         _______ _______ _______ _____ _____    ______ ____
ROOT
ATOM      1  N   UNL     1       4.057   3.662  19.184  0.00  0.00    +0.000 NA
ATOM      2  C   UNL     1       4.090   2.448  18.334  0.00  0.00    +0.000 C 
ATOM      3  C   UNL     1       2.678   2.268  17.832  0.00  0.00    +0.000 C 
ATOM      4  C   UNL     1       2.164   3.674  17.819  0.00  0.00    +0.000 C 
ATOM      5  O   UNL     1       1.140   4.033  17.255  0.00  0.00    +0.000 OA
ATOM      6  N   UNL     1       2.985   4.429  18.651  0.00  0.00    +0.000 N 
ENDROOT
BRANCH   1   7
ATOM      7  C   UNL     1       5.399   4.274  19.114  0.00  0.00    +0.000 C 
BRANCH   7   8
ATOM      8  C   UNL     1       5.801   5.037  17.849  0.00  0.00    +0.000 C 
BRANCH   8   9
ATOM      9  C   UNL     1       6.589   4.260  16.776  0.00  0.00    +0.000 C 
BRANCH   9  10
ATOM     10  C   UNL     1       6.350   4.844  15.356  0.00  0.00    +0.000 C 
ATOM     11  C   UNL     1       5.390   6.039  15.416  0.00  0.00    +0.000 C 
BRANCH  10  12
ATOM     12  C   UNL     1       5.855   3.746  14.389  0.00  0.00    +0.000 C 
BRANCH  12  14
ATOM     13  C   UNL     1       5.559   3.110  11.971  0.00  0.00    +0.000 C 
ATOM     14  C   UNL     1       6.414   3.872  12.969  0.00  0.00    +0.000 C 
ENDBRANCH  12  14
ENDBRANCH  10  12
ENDBRANCH   9  10
BRANCH   9  15
ATOM     15  O   UNL     1       7.987   4.225  17.039  0.00  0.00    +0.000 OA
ATOM     16  H   UNL     1       8.362   5.102  16.873  0.00  0.00    +0.000 HD
ENDBRANCH   9  15
ENDBRANCH   8   9
ENDBRANCH   7   8
ENDBRANCH   1   7
BRANCH   6  17
ATOM     17  C   UNL     1       2.525   5.696  19.217  0.00  0.00    +0.000 C 
BRANCH  17  18
ATOM     18  C   UNL     1       2.646   6.903  18.276  0.00  0.00    +0.000 C 
BRANCH  18  19
ATOM     19  C   UNL     1       2.043   8.172  18.842  0.00  0.00    +0.000 A 
ATOM     20  C   UNL     1       1.915   9.305  18.024  0.00  0.00    +0.000 A 
ATOM     21  C   UNL     1       1.317  10.475  18.503  0.00  0.00    +0.000 A 
ATOM     22  C   UNL     1       0.848  10.541  19.819  0.00  0.00    +0.000 A 
ATOM     23  C   UNL     1       0.964   9.415  20.645  0.00  0.00    +0.000 A 
ATOM     24  C   UNL     1       1.563   8.243  20.161  0.00  0.00    +0.000 A 
BRANCH  22  25
ATOM     25  C   UNL     1       0.189  11.800  20.259  0.00  0.00    +0.000 C 
ATOM     26  O   UNL     1       0.686  12.555  21.076  0.00  0.00    +0.000 OA
BRANCH  25  27
ATOM     27  O   UNL     1      -1.025  12.012  19.708  0.00  0.00    +0.000 OA
ATOM     28  H   UNL     1      -1.099  12.813  19.162  0.00  0.00    +0.000 HD
ENDBRANCH  25  27
ENDBRANCH  22  25
ENDBRANCH  18  19
ENDBRANCH  17  18
ENDBRANCH   6  17
TORSDOF 12
ENDMDL
MODEL 3
REMARK VINA RESULT:      -7.3      2.774      5.339
REMARK  Name = 
REMARK  14 active torsions:
REMARK  status: ('A' for Active; 'I' for Inactive)
REMARK    1  A    between atoms: C_1  and  C_2
REMARK    2  A    between atoms: C_2  and  C_3
REMARK    3  A    between atoms: C_3  and  C_4
REMARK    4  A    between atoms: C_4  and  C_5
REMARK    5  A    between atoms: C_4  and  C_6
REMARK    6  A    between atoms: C_6  and  O_7
REMARK    7  A    between atoms: C_6  and  C_8
REMARK    8  A    between atoms: C_8  and  C_9
REMARK    9  A    between atoms: C_9  and  N_10
REMARK   10  A    between atoms: N_15  and  C_16
REMARK   11  A    between atoms: C_16  and  C_17
REMARK   12  A    between atoms: C_17  and  C_18
REMARK   13  A    between atoms: C_21  and  C_22
REMARK   14  A    between atoms: C_22  and  O_24
REMARK                            x       y       z     vdW  Elec       q    Type
REMARK                         _______ _______ _______ _____ _____    ______ ____
ROOT
ATOM      1  N   UNL     1       5.013   4.370  16.056  0.00  0.00    +0.000 NA
ATOM      2  C   UNL     1       6.086   3.822  15.194  0.00  0.00    +0.000 C 
ATOM      3  C   UNL     1       7.060   4.958  14.989  0.00  0.00    +0.000 C 
ATOM      4  C   UNL     1       6.878   5.759  16.241  0.00  0.00    +0.000 C 
ATOM      5  O   UNL     1       7.639   6.641  16.616  0.00  0.00    +0.000 OA
ATOM      6  N   UNL     1       5.654   5.400  16.797  0.00  0.00    +0.000 N 
ENDROOT
BRANCH   1   7
ATOM      7  C   UNL     1       4.469   3.241  16.837  0.00  0.00    +0.000 C 
BRANCH   7   8
ATOM      8  C   UNL     1       3.952   3.502  18.255  0.00  0.00    +0.000 C 
BRANCH   8   9
ATOM      9  C   UNL     1       2.933   2.499  18.830  0.00  0.00    +0.000 C 
BRANCH   9  10
ATOM     10  C   UNL     1       1.471   2.937  18.534  0.00  0.00    +0.000 C 
ATOM     11  C   UNL     1       1.448   4.271  17.778  0.00  0.00    +0.000 C 
BRANCH  10  12
ATOM     12  C   UNL     1       0.641   2.990  19.836  0.00  0.00    +0.000 C 
BRANCH  12  14
ATOM     13  C   UNL     1       2.146   4.015  21.574  0.00  0.00    +0.000 C 
ATOM     14  C   UNL     1       1.461   2.742  21.105  0.00  0.00    +0.000 C 
ENDBRANCH  12  14
ENDBRANCH  10  12
ENDBRANCH   9  10
BRANCH   9  15
ATOM     15  O   UNL     1       3.132   1.175  18.348  0.00  0.00    +0.000 OA
ATOM     16  H   UNL     1       2.690   0.552  18.942  0.00  0.00    +0.000 HD
ENDBRANCH   9  15
ENDBRANCH   8   9
ENDBRANCH   7   8
ENDBRANCH   1   7
BRANCH   6  17
ATOM     17  C   UNL     1       4.967   6.280  17.740  0.00  0.00    +0.000 C 
BRANCH  17  18
ATOM     18  C   UNL     1       3.837   7.120  17.129  0.00  0.00    +0.000 C 
BRANCH  18  19
ATOM     19  C   UNL     1       2.893   7.703  18.161  0.00  0.00    +0.000 A 
ATOM     20  C   UNL     1       2.150   8.852  17.852  0.00  0.00    +0.000 A 
ATOM     21  C   UNL     1       1.233   9.384  18.766  0.00  0.00    +0.000 A 
ATOM     22  C   UNL     1       1.055   8.785  20.017  0.00  0.00    +0.000 A 
ATOM     23  C   UNL     1       1.786   7.634  20.337  0.00  0.00    +0.000 A 
ATOM     24  C   UNL     1       2.703   7.102  19.417  0.00  0.00    +0.000 A 
BRANCH  22  25
ATOM     25  C   UNL     1       0.041   9.376  20.931  0.00  0.00    +0.000 C 
ATOM     26  O   UNL     1      -0.314   8.834  21.963  0.00  0.00    +0.000 OA
BRANCH  25  27
ATOM     27  O   UNL     1      -0.485  10.542  20.497  0.00  0.00    +0.000 OA
ATOM     28  H   UNL     1      -0.329  10.745  19.559  0.00  0.00    +0.000 HD
ENDBRANCH  25  27
ENDBRANCH  22  25
ENDBRANCH  18  19
ENDBRANCH  17  18
ENDBRANCH   6  17
TORSDOF 12
ENDMDL
MODEL 4
REMARK VINA RESULT:      -7.2      2.833      5.465
REMARK  Name = 
REMARK  14 active torsions:
REMARK  status: ('A' for Active; 'I' for Inactive)
REMARK    1  A    between atoms: C_1  and  C_2
REMARK    2  A    between atoms: C_2  and  C_3
REMARK    3  A    between atoms: C_3  and  C_4
REMARK    4  A    between atoms: C_4  and  C_5
REMARK    5  A    between atoms: C_4  and  C_6
REMARK    6  A    between atoms: C_6  and  O_7
REMARK    7  A    between atoms: C_6  and  C_8
REMARK    8  A    between atoms: C_8  and  C_9
REMARK    9  A    between atoms: C_9  and  N_10
REMARK   10  A    between atoms: N_15  and  C_16
REMARK   11  A    between atoms: C_16  and  C_17
REMARK   12  A    between atoms: C_17  and  C_18
REMARK   13  A    between atoms: C_21  and  C_22
REMARK   14  A    between atoms: C_22  and  O_24
REMARK                            x       y       z     vdW  Elec       q    Type
REMARK                         _______ _______ _______ _____ _____    ______ ____
ROOT
ATOM      1  N   UNL     1       4.698   4.320  17.232  0.00  0.00    +0.000 NA
ATOM      2  C   UNL     1       5.403   3.695  16.089  0.00  0.00    +0.000 C 
ATOM      3  C   UNL     1       5.311   4.696  14.961  0.00  0.00    +0.000 C 
ATOM      4  C   UNL     1       5.230   5.996  15.698  0.00  0.00    +0.000 C 
ATOM      5  O   UNL     1       5.384   7.095  15.184  0.00  0.00    +0.000 OA
ATOM      6  N   UNL     1       4.834   5.717  17.002  0.00  0.00    +0.000 N 
ENDROOT
BRANCH   1   7
ATOM      7  C   UNL     1       5.321   3.794  18.463  0.00  0.00    +0.000 C 
BRANCH   7   8
ATOM      8  C   UNL     1       4.431   3.141  19.524  0.00  0.00    +0.000 C 
BRANCH   8   9
ATOM      9  C   UNL     1       3.699   1.843  19.129  0.00  0.00    +0.000 C 
BRANCH   9  10
ATOM     10  C   UNL     1       2.159   2.045  19.083  0.00  0.00    +0.000 C 
ATOM     11  C   UNL     1       1.774   3.015  17.959  0.00  0.00    +0.000 C 
BRANCH  10  12
ATOM     12  C   UNL     1       1.626   2.505  20.458  0.00  0.00    +0.000 C 
BRANCH  12  14
ATOM     13  C   UNL     1       1.908   4.910  21.146  0.00  0.00    +0.000 C 
ATOM     14  C   UNL     1       1.007   3.905  20.446  0.00  0.00    +0.000 C 
ENDBRANCH  12  14
ENDBRANCH  10  12
ENDBRANCH   9  10
BRANCH   9  15
ATOM     15  O   UNL     1       4.141   1.322  17.880  0.00  0.00    +0.000 OA
ATOM     16  H   UNL     1       5.000   0.894  18.002  0.00  0.00    +0.000 HD
ENDBRANCH   9  15
ENDBRANCH   8   9
ENDBRANCH   7   8
ENDBRANCH   1   7
BRANCH   6  17
ATOM     17  C   UNL     1       4.230   6.748  17.845  0.00  0.00    +0.000 C 
BRANCH  17  18
ATOM     18  C   UNL     1       2.702   6.665  17.967  0.00  0.00    +0.000 C 
BRANCH  18  19
ATOM     19  C   UNL     1       2.085   7.875  18.639  0.00  0.00    +0.000 A 
ATOM     20  C   UNL     1       1.717   8.986  17.866  0.00  0.00    +0.000 A 
ATOM     21  C   UNL     1       1.099  10.097  18.451  0.00  0.00    +0.000 A 
ATOM     22  C   UNL     1       0.853  10.125  19.827  0.00  0.00    +0.000 A 
ATOM     23  C   UNL     1       1.209   9.020  20.610  0.00  0.00    +0.000 A 
ATOM     24  C   UNL     1       1.827   7.907  20.020  0.00  0.00    +0.000 A 
BRANCH  22  25
ATOM     25  C   UNL     1       0.160  11.318  20.384  0.00  0.00    +0.000 C 
ATOM     26  O   UNL     1      -0.573  12.028  19.718  0.00  0.00    +0.000 OA
BRANCH  25  27
ATOM     27  O   UNL     1       0.448  11.572  21.679  0.00  0.00    +0.000 OA
ATOM     28  H   UNL     1       1.207  12.162  21.827  0.00  0.00    +0.000 HD
ENDBRANCH  25  27
ENDBRANCH  22  25
ENDBRANCH  18  19
ENDBRANCH  17  18
ENDBRANCH   6  17
TORSDOF 12
ENDMDL
MODEL 5
REMARK VINA RESULT:      -7.2      3.426      5.407
REMARK  Name = 
REMARK  14 active torsions:
REMARK  status: ('A' for Active; 'I' for Inactive)
REMARK    1  A    between atoms: C_1  and  C_2
REMARK    2  A    between atoms: C_2  and  C_3
REMARK    3  A    between atoms: C_3  and  C_4
REMARK    4  A    between atoms: C_4  and  C_5
REMARK    5  A    between atoms: C_4  and  C_6
REMARK    6  A    between atoms: C_6  and  O_7
REMARK    7  A    between atoms: C_6  and  C_8
REMARK    8  A    between atoms: C_8  and  C_9
REMARK    9  A    between atoms: C_9  and  N_10
REMARK   10  A    between atoms: N_15  and  C_16
REMARK   11  A    between atoms: C_16  and  C_17
REMARK   12  A    between atoms: C_17  and  C_18
REMARK   13  A    between atoms: C_21  and  C_22
REMARK   14  A    between atoms: C_22  and  O_24
REMARK                            x       y       z     vdW  Elec       q    Type
REMARK                         _______ _______ _______ _____ _____    ______ ____
ROOT
ATOM      1  N   UNL     1       3.850   3.338  18.110  0.00  0.00    +0.000 NA
ATOM      2  C   UNL     1       3.591   1.914  18.427  0.00  0.00    +0.000 C 
ATOM      3  C   UNL     1       2.426   1.919  19.388  0.00  0.00    +0.000 C 
ATOM      4  C   UNL     1       1.698   3.167  18.996  0.00  0.00    +0.000 C 
ATOM      5  O   UNL     1       0.560   3.445  19.348  0.00  0.00    +0.000 OA
ATOM      6  N   UNL     1       2.587   3.968  18.286  0.00  0.00    +0.000 N 
ENDROOT
BRANCH   1   7
ATOM      7  C   UNL     1       4.419   3.380  16.747  0.00  0.00    +0.000 C 
BRANCH   7   8
ATOM      8  C   UNL     1       5.301   4.565  16.349  0.00  0.00    +0.000 C 
BRANCH   8   9
ATOM      9  C   UNL     1       6.481   4.910  17.279  0.00  0.00    +0.000 C 
BRANCH   9  10
ATOM     10  C   UNL     1       6.405   6.380  17.778  0.00  0.00    +0.000 C 
ATOM     11  C   UNL     1       5.271   7.133  17.073  0.00  0.00    +0.000 C 
BRANCH  10  12
ATOM     12  C   UNL     1       7.768   7.087  17.610  0.00  0.00    +0.000 C 
BRANCH  12  14
ATOM     13  C   UNL     1       8.701   9.241  18.518  0.00  0.00    +0.000 C 
ATOM     14  C   UNL     1       7.675   8.615  17.588  0.00  0.00    +0.000 C 
ENDBRANCH  12  14
ENDBRANCH  10  12
ENDBRANCH   9  10
BRANCH   9  15
ATOM     15  O   UNL     1       6.570   4.038  18.400  0.00  0.00    +0.000 OA
ATOM     16  H   UNL     1       6.728   3.136  18.087  0.00  0.00    +0.000 HD
ENDBRANCH   9  15
ENDBRANCH   8   9
ENDBRANCH   7   8
ENDBRANCH   1   7
BRANCH   6  17
ATOM     17  C   UNL     1       2.364   5.406  18.149  0.00  0.00    +0.000 C 
BRANCH  17  18
ATOM     18  C   UNL     1       2.660   6.226  19.413  0.00  0.00    +0.000 C 
BRANCH  18  19
ATOM     19  C   UNL     1       2.073   7.622  19.378  0.00  0.00    +0.000 A 
ATOM     20  C   UNL     1       2.009   8.318  18.161  0.00  0.00    +0.000 A 
ATOM     21  C   UNL     1       1.427   9.589  18.088  0.00  0.00    +0.000 A 
ATOM     22  C   UNL     1       0.912  10.196  19.237  0.00  0.00    +0.000 A 
ATOM     23  C   UNL     1       0.963   9.510  20.457  0.00  0.00    +0.000 A 
ATOM     24  C   UNL     1       1.546   8.236  20.527  0.00  0.00    +0.000 A 
BRANCH  22  25
ATOM     25  C   UNL     1       0.274  11.532  19.089  0.00  0.00    +0.000 C 
ATOM     26  O   UNL     1      -0.779  11.699  18.498  0.00  0.00    +0.000 OA
BRANCH  25  27
ATOM     27  O   UNL     1       0.982  12.548  19.626  0.00  0.00    +0.000 OA
ATOM     28  H   UNL     1       0.566  13.424  19.561  0.00  0.00    +0.000 HD
ENDBRANCH  25  27
ENDBRANCH  22  25
ENDBRANCH  18  19
ENDBRANCH  17  18
ENDBRANCH   6  17
TORSDOF 12
ENDMDL
MODEL 6
REMARK VINA RESULT:      -7.2      3.340      5.133
REMARK  Name = 
REMARK  14 active torsions:
REMARK  status: ('A' for Active; 'I' for Inactive)
REMARK    1  A    between atoms: C_1  and  C_2
REMARK    2  A    between atoms: C_2  and  C_3
REMARK    3  A    between atoms: C_3  and  C_4
REMARK    4  A    between atoms: C_4  and  C_5
REMARK    5  A    between atoms: C_4  and  C_6
REMARK    6  A    between atoms: C_6  and  O_7
REMARK    7  A    between atoms: C_6  and  C_8
REMARK    8  A    between atoms: C_8  and  C_9
REMARK    9  A    between atoms: C_9  and  N_10
REMARK   10  A    between atoms: N_15  and  C_16
REMARK   11  A    between atoms: C_16  and  C_17
REMARK   12  A    between atoms: C_17  and  C_18
REMARK   13  A    between atoms: C_21  and  C_22
REMARK   14  A    between atoms: C_22  and  O_24
REMARK                            x       y       z     vdW  Elec       q    Type
REMARK                         _______ _______ _______ _____ _____    ______ ____
ROOT
ATOM      1  N   UNL     1       3.391   3.480  18.298  0.00  0.00    +0.000 NA
ATOM      2  C   UNL     1       2.552   2.259  18.264  0.00  0.00    +0.000 C 
ATOM      3  C   UNL     1       1.677   2.336  19.493  0.00  0.00    +0.000 C 
ATOM      4  C   UNL     1       1.561   3.813  19.707  0.00  0.00    +0.000 C 
ATOM      5  O   UNL     1       0.748   4.344  20.450  0.00  0.00    +0.000 OA
ATOM      6  N   UNL     1       2.606   4.422  19.018  0.00  0.00    +0.000 N 
ENDROOT
BRANCH   1   7
ATOM      7  C   UNL     1       3.708   3.825  16.897  0.00  0.00    +0.000 C 
BRANCH   7   8
ATOM      8  C   UNL     1       5.155   3.701  16.413  0.00  0.00    +0.000 C 
BRANCH   8   9
ATOM      9  C   UNL     1       6.231   4.478  17.197  0.00  0.00    +0.000 C 
BRANCH   9  10
ATOM     10  C   UNL     1       5.876   5.987  17.312  0.00  0.00    +0.000 C 
ATOM     11  C   UNL     1       5.634   6.594  15.925  0.00  0.00    +0.000 C 
BRANCH  10  12
ATOM     12  C   UNL     1       6.965   6.747  18.100  0.00  0.00    +0.000 C 
BRANCH  12  14
ATOM     13  C   UNL     1       8.206   8.937  18.065  0.00  0.00    +0.000 C 
ATOM     14  C   UNL     1       7.774   7.730  17.249  0.00  0.00    +0.000 C 
ENDBRANCH  12  14
ENDBRANCH  10  12
ENDBRANCH   9  10
BRANCH   9  15
ATOM     15  O   UNL     1       6.452   3.948  18.499  0.00  0.00    +0.000 OA
ATOM     16  H   UNL     1       6.384   2.983  18.463  0.00  0.00    +0.000 HD
ENDBRANCH   9  15
ENDBRANCH   8   9
ENDBRANCH   7   8
ENDBRANCH   1   7
BRANCH   6  17
ATOM     17  C   UNL     1       3.057   5.768  19.366  0.00  0.00    +0.000 C 
BRANCH  17  18
ATOM     18  C   UNL     1       2.681   6.856  18.350  0.00  0.00    +0.000 C 
BRANCH  18  19
ATOM     19  C   UNL     1       1.943   8.027  18.965  0.00  0.00    +0.000 A 
ATOM     20  C   UNL     1       1.618   8.003  20.330  0.00  0.00    +0.000 A 
ATOM     21  C   UNL     1       0.981   9.091  20.937  0.00  0.00    +0.000 A 
ATOM     22  C   UNL     1       0.640  10.219  20.185  0.00  0.00    +0.000 A 
ATOM     23  C   UNL     1       0.963  10.259  18.822  0.00  0.00    +0.000 A 
ATOM     24  C   UNL     1       1.603   9.167  18.217  0.00  0.00    +0.000 A 
BRANCH  22  25
ATOM     25  C   UNL     1      -0.004  11.358  20.894  0.00  0.00    +0.000 C 
ATOM     26  O   UNL     1      -1.189  11.619  20.787  0.00  0.00    +0.000 OA
BRANCH  25  27
ATOM     27  O   UNL     1       0.847  12.103  21.632  0.00  0.00    +0.000 OA
ATOM     28  H   UNL     1       1.576  12.514  21.138  0.00  0.00    +0.000 HD
ENDBRANCH  25  27
ENDBRANCH  22  25
ENDBRANCH  18  19
ENDBRANCH  17  18
ENDBRANCH   6  17
TORSDOF 12
ENDMDL
MODEL 7
REMARK VINA RESULT:      -7.1      1.560      2.502
REMARK  Name = 
REMARK  14 active torsions:
REMARK  status: ('A' for Active; 'I' for Inactive)
REMARK    1  A    between atoms: C_1  and  C_2
REMARK    2  A    between atoms: C_2  and  C_3
REMARK    3  A    between atoms: C_3  and  C_4
REMARK    4  A    between atoms: C_4  and  C_5
REMARK    5  A    between atoms: C_4  and  C_6
REMARK    6  A    between atoms: C_6  and  O_7
REMARK    7  A    between atoms: C_6  and  C_8
REMARK    8  A    between atoms: C_8  and  C_9
REMARK    9  A    between atoms: C_9  and  N_10
REMARK   10  A    between atoms: N_15  and  C_16
REMARK   11  A    between atoms: C_16  and  C_17
REMARK   12  A    between atoms: C_17  and  C_18
REMARK   13  A    between atoms: C_21  and  C_22
REMARK   14  A    between atoms: C_22  and  O_24
REMARK                            x       y       z     vdW  Elec       q    Type
REMARK                         _______ _______ _______ _____ _____    ______ ____
ROOT
ATOM      1  N   UNL     1       5.608   6.489  17.424  0.00  0.00    +0.000 NA
ATOM      2  C   UNL     1       7.046   6.358  17.756  0.00  0.00    +0.000 C 
ATOM      3  C   UNL     1       7.094   5.549  19.030  0.00  0.00    +0.000 C 
ATOM      4  C   UNL     1       5.852   4.720  18.926  0.00  0.00    +0.000 C 
ATOM      5  O   UNL     1       5.609   3.745  19.623  0.00  0.00    +0.000 OA
ATOM      6  N   UNL     1       5.011   5.336  18.004  0.00  0.00    +0.000 N 
ENDROOT
BRANCH   1   7
ATOM      7  C   UNL     1       5.513   6.606  15.955  0.00  0.00    +0.000 C 
BRANCH   7   8
ATOM      8  C   UNL     1       5.467   5.330  15.111  0.00  0.00    +0.000 C 
BRANCH   8   9
ATOM      9  C   UNL     1       6.816   4.706  14.701  0.00  0.00    +0.000 C 
BRANCH   9  10
ATOM     10  C   UNL     1       6.716   3.976  13.333  0.00  0.00    +0.000 C 
ATOM     11  C   UNL     1       7.361   4.814  12.223  0.00  0.00    +0.000 C 
BRANCH  10  12
ATOM     12  C   UNL     1       5.249   3.612  13.011  0.00  0.00    +0.000 C 
BRANCH  12  14
ATOM     13  C   UNL     1       5.678   1.748  11.375  0.00  0.00    +0.000 C 
ATOM     14  C   UNL     1       5.034   3.110  11.582  0.00  0.00    +0.000 C 
ENDBRANCH  12  14
ENDBRANCH  10  12
ENDBRANCH   9  10
BRANCH   9  15
ATOM     15  O   UNL     1       7.869   5.661  14.646  0.00  0.00    +0.000 OA
ATOM     16  H   UNL     1       8.418   5.482  13.870  0.00  0.00    +0.000 HD
ENDBRANCH   9  15
ENDBRANCH   8   9
ENDBRANCH   7   8
ENDBRANCH   1   7
BRANCH   6  17
ATOM     17  C   UNL     1       3.575   5.065  17.994  0.00  0.00    +0.000 C 
BRANCH  17  18
ATOM     18  C   UNL     1       2.844   5.416  19.298  0.00  0.00    +0.000 C 
BRANCH  18  19
ATOM     19  C   UNL     1       2.300   6.830  19.323  0.00  0.00    +0.000 A 
ATOM     20  C   UNL     1       2.259   7.579  18.137  0.00  0.00    +0.000 A 
ATOM     21  C   UNL     1       1.716   8.869  18.119  0.00  0.00    +0.000 A 
ATOM     22  C   UNL     1       1.220   9.442  19.293  0.00  0.00    +0.000 A 
ATOM     23  C   UNL     1       1.250   8.704  20.483  0.00  0.00    +0.000 A 
ATOM     24  C   UNL     1       1.793   7.411  20.497  0.00  0.00    +0.000 A 
BRANCH  22  25
ATOM     25  C   UNL     1       0.623  10.802  19.203  0.00  0.00    +0.000 C 
ATOM     26  O   UNL     1       0.480  11.526  20.172  0.00  0.00    +0.000 OA
BRANCH  25  27
ATOM     27  O   UNL     1       0.215  11.148  17.963  0.00  0.00    +0.000 OA
ATOM     28  H   UNL     1       0.926  11.270  17.311  0.00  0.00    +0.000 HD
ENDBRANCH  25  27
ENDBRANCH  22  25
ENDBRANCH  18  19
ENDBRANCH  17  18
ENDBRANCH   6  17
TORSDOF 12
ENDMDL
MODEL 8
REMARK VINA RESULT:      -7.1      3.035      4.929
REMARK  Name = 
REMARK  14 active torsions:
REMARK  status: ('A' for Active; 'I' for Inactive)
REMARK    1  A    between atoms: C_1  and  C_2
REMARK    2  A    between atoms: C_2  and  C_3
REMARK    3  A    between atoms: C_3  and  C_4
REMARK    4  A    between atoms: C_4  and  C_5
REMARK    5  A    between atoms: C_4  and  C_6
REMARK    6  A    between atoms: C_6  and  O_7
REMARK    7  A    between atoms: C_6  and  C_8
REMARK    8  A    between atoms: C_8  and  C_9
REMARK    9  A    between atoms: C_9  and  N_10
REMARK   10  A    between atoms: N_15  and  C_16
REMARK   11  A    between atoms: C_16  and  C_17
REMARK   12  A    between atoms: C_17  and  C_18
REMARK   13  A    between atoms: C_21  and  C_22
REMARK   14  A    between atoms: C_22  and  O_24
REMARK                            x       y       z     vdW  Elec       q    Type
REMARK                         _______ _______ _______ _____ _____    ______ ____
ROOT
ATOM      1  N   UNL     1       3.459   3.980  19.741  0.00  0.00    +0.000 NA
ATOM      2  C   UNL     1       3.376   2.787  20.616  0.00  0.00    +0.000 C 
ATOM      3  C   UNL     1       1.905   2.455  20.708  0.00  0.00    +0.000 C 
ATOM      4  C   UNL     1       1.382   2.971  19.403  0.00  0.00    +0.000 C 
ATOM      5  O   UNL     1       0.282   2.702  18.943  0.00  0.00    +0.000 OA
ATOM      6  N   UNL     1       2.311   3.880  18.907  0.00  0.00    +0.000 N 
ENDROOT
BRANCH   1   7
ATOM      7  C   UNL     1       4.769   3.927  19.062  0.00  0.00    +0.000 C 
BRANCH   7   8
ATOM      8  C   UNL     1       5.698   5.140  19.147  0.00  0.00    +0.000 C 
BRANCH   8   9
ATOM      9  C   UNL     1       7.081   5.020  18.475  0.00  0.00    +0.000 C 
BRANCH   9  10
ATOM     10  C   UNL     1       7.222   5.999  17.277  0.00  0.00    +0.000 C 
ATOM     11  C   UNL     1       7.686   7.380  17.757  0.00  0.00    +0.000 C 
BRANCH  10  12
ATOM     12  C   UNL     1       5.905   6.074  16.472  0.00  0.00    +0.000 C 
BRANCH  12  14
ATOM     13  C   UNL     1       5.901   3.836  15.320  0.00  0.00    +0.000 C 
ATOM     14  C   UNL     1       5.957   5.343  15.128  0.00  0.00    +0.000 C 
ENDBRANCH  12  14
ENDBRANCH  10  12
ENDBRANCH   9  10
BRANCH   9  15
ATOM     15  O   UNL     1       8.154   5.235  19.385  0.00  0.00    +0.000 OA
ATOM     16  H   UNL     1       8.400   6.171  19.367  0.00  0.00    +0.000 HD
ENDBRANCH   9  15
ENDBRANCH   8   9
ENDBRANCH   7   8
ENDBRANCH   1   7
BRANCH   6  17
ATOM     17  C   UNL     1       1.930   4.884  17.916  0.00  0.00    +0.000 C 
BRANCH  17  18
ATOM     18  C   UNL     1       2.816   6.137  17.895  0.00  0.00    +0.000 C 
BRANCH  18  19
ATOM     19  C   UNL     1       2.212   7.315  18.632  0.00  0.00    +0.000 A 
ATOM     20  C   UNL     1       1.833   8.462  17.917  0.00  0.00    +0.000 A 
ATOM     21  C   UNL     1       1.228   9.545  18.563  0.00  0.00    +0.000 A 
ATOM     22  C   UNL     1       1.005   9.510  19.943  0.00  0.00    +0.000 A 
ATOM     23  C   UNL     1       1.373   8.370  20.669  0.00  0.00    +0.000 A 
ATOM     24  C   UNL     1       1.979   7.285  20.018  0.00  0.00    +0.000 A 
BRANCH  22  25
ATOM     25  C   UNL     1       0.325  10.678  20.566  0.00  0.00    +0.000 C 
ATOM     26  O   UNL     1       0.284  11.776  20.040  0.00  0.00    +0.000 OA
BRANCH  25  27
ATOM     27  O   UNL     1      -0.205  10.427  21.782  0.00  0.00    +0.000 OA
ATOM     28  H   UNL     1       0.369  10.640  22.537  0.00  0.00    +0.000 HD
ENDBRANCH  25  27
ENDBRANCH  22  25
ENDBRANCH  18  19
ENDBRANCH  17  18
ENDBRANCH   6  17
TORSDOF 12
ENDMDL
MODEL 9
REMARK VINA RESULT:      -7.0      2.352      4.253
REMARK  Name = 
REMARK  14 active torsions:
REMARK  status: ('A' for Active; 'I' for Inactive)
REMARK    1  A    between atoms: C_1  and  C_2
REMARK    2  A    between atoms: C_2  and  C_3
REMARK    3  A    between atoms: C_3  and  C_4
REMARK    4  A    between atoms: C_4  and  C_5
REMARK    5  A    between atoms: C_4  and  C_6
REMARK    6  A    between atoms: C_6  and  O_7
REMARK    7  A    between atoms: C_6  and  C_8
REMARK    8  A    between atoms: C_8  and  C_9
REMARK    9  A    between atoms: C_9  and  N_10
REMARK   10  A    between atoms: N_15  and  C_16
REMARK   11  A    between atoms: C_16  and  C_17
REMARK   12  A    between atoms: C_17  and  C_18
REMARK   13  A    between atoms: C_21  and  C_22
REMARK   14  A    between atoms: C_22  and  O_24
REMARK                            x       y       z     vdW  Elec       q    Type
REMARK                         _______ _______ _______ _____ _____    ______ ____
ROOT
ATOM      1  N   UNL     1       4.116   3.861  19.473  0.00  0.00    +0.000 NA
ATOM      2  C   UNL     1       4.066   2.524  20.110  0.00  0.00    +0.000 C 
ATOM      3  C   UNL     1       2.882   2.568  21.047  0.00  0.00    +0.000 C 
ATOM      4  C   UNL     1       1.986   3.564  20.379  0.00  0.00    +0.000 C 
ATOM      5  O   UNL     1       0.808   3.736  20.660  0.00  0.00    +0.000 OA
ATOM      6  N   UNL     1       2.767   4.311  19.502  0.00  0.00    +0.000 N 
ENDROOT
BRANCH   1   7
ATOM      7  C   UNL     1       4.717   3.680  18.136  0.00  0.00    +0.000 C 
BRANCH   7   8
ATOM      8  C   UNL     1       5.774   4.678  17.657  0.00  0.00    +0.000 C 
BRANCH   8   9
ATOM      9  C   UNL     1       6.668   4.248  16.477  0.00  0.00    +0.000 C 
BRANCH   9  10
ATOM     10  C   UNL     1       6.259   4.963  15.160  0.00  0.00    +0.000 C 
ATOM     11  C   UNL     1       5.323   6.142  15.451  0.00  0.00    +0.000 C 
BRANCH  10  12
ATOM     12  C   UNL     1       5.639   3.959  14.162  0.00  0.00    +0.000 C 
BRANCH  12  14
ATOM     13  C   UNL     1       5.672   2.939  11.861  0.00  0.00    +0.000 C 
ATOM     14  C   UNL     1       6.381   3.876  12.825  0.00  0.00    +0.000 C 
ENDBRANCH  12  14
ENDBRANCH  10  12
ENDBRANCH   9  10
BRANCH   9  15
ATOM     15  O   UNL     1       8.051   4.477  16.725  0.00  0.00    +0.000 OA
ATOM     16  H   UNL     1       8.154   4.874  17.601  0.00  0.00    +0.000 HD
ENDBRANCH   9  15
ENDBRANCH   8   9
ENDBRANCH   7   8
ENDBRANCH   1   7
BRANCH   6  17
ATOM     17  C   UNL     1       2.333   5.628  19.039  0.00  0.00    +0.000 C 
BRANCH  17  18
ATOM     18  C   UNL     1       2.581   6.773  20.032  0.00  0.00    +0.000 C 
BRANCH  18  19
ATOM     19  C   UNL     1       1.802   8.031  19.708  0.00  0.00    +0.000 A 
ATOM     20  C   UNL     1       1.821   8.542  18.401  0.00  0.00    +0.000 A 
ATOM     21  C   UNL     1       1.072   9.674  18.060  0.00  0.00    +0.000 A 
ATOM     22  C   UNL     1       0.301  10.328  19.026  0.00  0.00    +0.000 A 
ATOM     23  C   UNL     1       0.268   9.825  20.334  0.00  0.00    +0.000 A 
ATOM     24  C   UNL     1       1.019   8.690  20.671  0.00  0.00    +0.000 A 
BRANCH  22  25
ATOM     25  C   UNL     1      -0.501  11.504  18.595  0.00  0.00    +0.000 C 
ATOM     26  O   UNL     1      -1.709  11.570  18.742  0.00  0.00    +0.000 OA
BRANCH  25  27
ATOM     27  O   UNL     1       0.217  12.473  17.987  0.00  0.00    +0.000 OA
ATOM     28  H   UNL     1       0.283  13.310  18.477  0.00  0.00    +0.000 HD
ENDBRANCH  25  27
ENDBRANCH  22  25
ENDBRANCH  18  19
ENDBRANCH  17  18
ENDBRANCH   6  17
TORSDOF 12
ENDMDL
