MODEL 1
REMARK VINA RESULT:      -7.0      0.000      0.000
REMARK  Name = 
REMARK  4 active torsions:
REMARK  status: ('A' for Active; 'I' for Inactive)
REMARK    1  A    between atoms: C_1  and  C_2
REMARK    2  A    between atoms: C_4  and  N_5
REMARK    3  A    between atoms: C_9  and  C_10
REMARK    4  A    between atoms: C_10  and  N_11
REMARK                            x       y       z     vdW  Elec       q    Type
REMARK                         _______ _______ _______ _____ _____    ______ ____
ROOT
ATOM      1  N   UNL     1       5.326   5.747  16.910  0.00  0.00    +0.000 NA
ATOM      2  C   UNL     1       6.005   6.234  18.136  0.00  0.00    +0.000 C 
ATOM      3  C   UNL     1       5.470   5.604  19.431  0.00  0.00    +0.000 C 
ATOM      4  O   UNL     1       4.057   5.780  19.571  0.00  0.00    +0.000 OA
ATOM      5  C   UNL     1       3.289   5.334  18.438  0.00  0.00    +0.000 C 
ATOM      6  C   UNL     1       3.873   5.910  17.123  0.00  0.00    +0.000 C 
ENDROOT
BRANCH   1  10
ATOM      7  C   UNL     1       6.562   4.046  12.872  0.00  0.00    +0.000 C 
ATOM      8  C   UNL     1       6.387   4.692  14.235  0.00  0.00    +0.000 C 
ATOM      9  C   UNL     1       5.373   3.975  15.095  0.00  0.00    +0.000 C 
ATOM     10  C   UNL     1       5.783   4.400  16.499  0.00  0.00    +0.000 C 
ATOM     11  C   UNL     1       7.302   4.381  16.293  0.00  0.00    +0.000 C 
ATOM     12  O   UNL     1       8.136   4.197  17.166  0.00  0.00    +0.000 OA
ATOM     13  O   UNL     1       7.607   4.591  14.974  0.00  0.00    +0.000 OA
ENDBRANCH   1  10
BRANCH   5  14
ATOM     14  C   UNL     1       3.113   3.813  18.404  0.00  0.00    +0.000 C 
BRANCH  14  15
ATOM     15  N   UNL     1       2.583   3.294  19.651  0.00  0.00    +0.000 N 
ATOM     16  C   UNL     1       1.303   3.429  20.110  0.00  0.00    +0.000 A 
ATOM     17  C   UNL     1       1.276   2.826  21.344  0.00  0.00    +0.000 A 
ATOM     18  C   UNL     1       2.594   2.378  21.549  0.00  0.00    +0.000 A 
ATOM     19  N   UNL     1       3.402   2.681  20.528  0.00  0.00    +0.000 NA
ENDBRANCH  14  15
ENDBRANCH   5  14
TORSDOF 3
ENDMDL
MODEL 2
REMARK VINA RESULT:      -6.6      1.874      6.078
REMARK  Name = 
REMARK  4 active torsions:
REMARK  status: ('A' for Active; 'I' for Inactive)
REMARK    1  A    between atoms: C_1  and  C_2
REMARK    2  A    between atoms: C_4  and  N_5
REMARK    3  A    between atoms: C_9  and  C_10
REMARK    4  A    between atoms: C_10  and  N_11
REMARK                            x       y       z     vdW  Elec       q    Type
REMARK                         _______ _______ _______ _____ _____    ______ ____
ROOT
ATOM      1  N   UNL     1       3.925   5.570  19.138  0.00  0.00    +0.000 NA
ATOM      2  C   UNL     1       3.476   6.595  18.161  0.00  0.00    +0.000 C 
ATOM      3  C   UNL     1       4.262   6.576  16.842  0.00  0.00    +0.000 C 
ATOM      4  O   UNL     1       5.671   6.707  17.051  0.00  0.00    +0.000 OA
ATOM      5  C   UNL     1       6.223   5.755  17.980  0.00  0.00    +0.000 C 
ATOM      6  C   UNL     1       5.387   5.720  19.285  0.00  0.00    +0.000 C 
ENDROOT
BRANCH   1  10
ATOM      7  C   UNL     1       1.617   2.492  21.570  0.00  0.00    +0.000 C 
ATOM      8  C   UNL     1       2.161   3.616  20.708  0.00  0.00    +0.000 C 
ATOM      9  C   UNL     1       3.421   3.227  19.970  0.00  0.00    +0.000 C 
ATOM     10  C   UNL     1       3.432   4.212  18.809  0.00  0.00    +0.000 C 
ATOM     11  C   UNL     1       1.925   4.234  18.532  0.00  0.00    +0.000 C 
ATOM     12  O   UNL     1       1.402   4.484  17.457  0.00  0.00    +0.000 OA
ATOM     13  O   UNL     1       1.227   3.918  19.668  0.00  0.00    +0.000 OA
ENDBRANCH   1  10
BRANCH   5  14
ATOM     14  C   UNL     1       6.427   4.371  17.357  0.00  0.00    +0.000 C 
BRANCH  14  15
ATOM     15  N   UNL     1       6.530   4.430  15.911  0.00  0.00    +0.000 N 
ATOM     16  C   UNL     1       5.760   3.749  15.012  0.00  0.00    +0.000 A 
ATOM     17  C   UNL     1       6.248   4.074  13.769  0.00  0.00    +0.000 A 
ATOM     18  C   UNL     1       7.327   4.940  14.028  0.00  0.00    +0.000 A 
ATOM     19  N   UNL     1       7.518   5.143  15.335  0.00  0.00    +0.000 NA
ENDBRANCH  14  15
ENDBRANCH   5  14
TORSDOF 3
ENDMDL
MODEL 3
REMARK VINA RESULT:      -6.6      2.761      4.096
REMARK  Name = 
REMARK  4 active torsions:
REMARK  status: ('A' for Active; 'I' for Inactive)
REMARK    1  A    between atoms: C_1  and  C_2
REMARK    2  A    between atoms: C_4  and  N_5
REMARK    3  A    between atoms: C_9  and  C_10
REMARK    4  A    between atoms: C_10  and  N_11
REMARK                            x       y       z     vdW  Elec       q    Type
REMARK                         _______ _______ _______ _____ _____    ______ ____
ROOT
ATOM      1  N   UNL     1       4.943   4.540  18.091  0.00  0.00    +0.000 NA
ATOM      2  C   UNL     1       4.062   3.400  17.732  0.00  0.00    +0.000 C 
ATOM      3  C   UNL     1       2.581   3.784  17.597  0.00  0.00    +0.000 C 
ATOM      4  O   UNL     1       2.078   4.417  18.778  0.00  0.00    +0.000 OA
ATOM      5  C   UNL     1       2.853   5.547  19.219  0.00  0.00    +0.000 C 
ATOM      6  C   UNL     1       4.359   5.183  19.286  0.00  0.00    +0.000 C 
ENDROOT
BRANCH   1  10
ATOM      7  C   UNL     1       7.860   7.992  17.553  0.00  0.00    +0.000 C 
ATOM      8  C   UNL     1       7.082   6.695  17.672  0.00  0.00    +0.000 C 
ATOM      9  C   UNL     1       5.626   6.852  17.301  0.00  0.00    +0.000 C 
ATOM     10  C   UNL     1       5.229   5.427  16.940  0.00  0.00    +0.000 C 
ATOM     11  C   UNL     1       6.531   5.012  16.245  0.00  0.00    +0.000 C 
ATOM     12  O   UNL     1       6.634   4.158  15.377  0.00  0.00    +0.000 OA
ATOM     13  O   UNL     1       7.582   5.746  16.725  0.00  0.00    +0.000 OA
ENDBRANCH   1  10
BRANCH   5  14
ATOM     14  C   UNL     1       2.575   6.812  18.402  0.00  0.00    +0.000 C 
BRANCH  14  15
ATOM     15  N   UNL     1       1.961   7.856  19.199  0.00  0.00    +0.000 N 
ATOM     16  C   UNL     1       1.667   7.798  20.532  0.00  0.00    +0.000 A 
ATOM     17  C   UNL     1       1.054   8.988  20.841  0.00  0.00    +0.000 A 
ATOM     18  C   UNL     1       1.005   9.688  19.620  0.00  0.00    +0.000 A 
ATOM     19  N   UNL     1       1.537   8.992  18.610  0.00  0.00    +0.000 NA
ENDBRANCH  14  15
ENDBRANCH   5  14
TORSDOF 3
ENDMDL
MODEL 4
REMARK VINA RESULT:      -6.4      0.879      1.122
REMARK  Name = 
REMARK  4 active torsions:
REMARK  status: ('A' for Active; 'I' for Inactive)
REMARK    1  A    between atoms: C_1  and  C_2
REMARK    2  A    between atoms: C_4  and  N_5
REMARK    3  A    between atoms: C_9  and  C_10
REMARK    4  A    between atoms: C_10  and  N_11
REMARK                            x       y       z     vdW  Elec       q    Type
REMARK                         _______ _______ _______ _____ _____    ______ ____
ROOT
ATOM      1  N   UNL     1       5.395   5.707  16.854  0.00  0.00    +0.000 NA
ATOM      2  C   UNL     1       6.352   6.332  17.800  0.00  0.00    +0.000 C 
ATOM      3  C   UNL     1       6.303   5.733  19.214  0.00  0.00    +0.000 C 
ATOM      4  O   UNL     1       4.986   5.778  19.773  0.00  0.00    +0.000 OA
ATOM      5  C   UNL     1       3.969   5.191  18.940  0.00  0.00    +0.000 C 
ATOM      6  C   UNL     1       4.064   5.740  17.494  0.00  0.00    +0.000 C 
ENDROOT
BRANCH   1  10
ATOM      7  C   UNL     1       6.681   4.269  12.730  0.00  0.00    +0.000 C 
ATOM      8  C   UNL     1       6.490   4.826  14.129  0.00  0.00    +0.000 C 
ATOM      9  C   UNL     1       5.463   4.057  14.928  0.00  0.00    +0.000 C 
ATOM     10  C   UNL     1       5.856   4.388  16.361  0.00  0.00    +0.000 C 
ATOM     11  C   UNL     1       7.377   4.379  16.174  0.00  0.00    +0.000 C 
ATOM     12  O   UNL     1       8.200   4.136  17.044  0.00  0.00    +0.000 OA
ATOM     13  O   UNL     1       7.699   4.673  14.876  0.00  0.00    +0.000 OA
ENDBRANCH   1  10
BRANCH   5  14
ATOM     14  C   UNL     1       3.962   3.661  19.005  0.00  0.00    +0.000 C 
BRANCH  14  15
ATOM     15  N   UNL     1       2.626   3.126  19.187  0.00  0.00    +0.000 N 
ATOM     16  C   UNL     1       1.869   2.487  18.247  0.00  0.00    +0.000 A 
ATOM     17  C   UNL     1       0.667   2.206  18.850  0.00  0.00    +0.000 A 
ATOM     18  C   UNL     1       0.791   2.735  20.149  0.00  0.00    +0.000 A 
ATOM     19  N   UNL     1       1.976   3.318  20.353  0.00  0.00    +0.000 NA
ENDBRANCH  14  15
ENDBRANCH   5  14
TORSDOF 3
ENDMDL
MODEL 5
REMARK VINA RESULT:      -6.4      2.033      6.039
REMARK  Name = 
REMARK  4 active torsions:
REMARK  status: ('A' for Active; 'I' for Inactive)
REMARK    1  A    between atoms: C_1  and  C_2
REMARK    2  A    between atoms: C_4  and  N_5
REMARK    3  A    between atoms: C_9  and  C_10
REMARK    4  A    between atoms: C_10  and  N_11
REMARK                            x       y       z     vdW  Elec       q    Type
REMARK                         _______ _______ _______ _____ _____    ______ ____
ROOT
ATOM      1  N   UNL     1       5.719   4.759  18.134  0.00  0.00    +0.000 NA
ATOM      2  C   UNL     1       6.371   6.031  18.534  0.00  0.00    +0.000 C 
ATOM      3  C   UNL     1       6.689   6.960  17.353  0.00  0.00    +0.000 C 
ATOM      4  O   UNL     1       7.485   6.313  16.356  0.00  0.00    +0.000 OA
ATOM      5  C   UNL     1       6.944   5.065  15.884  0.00  0.00    +0.000 C 
ATOM      6  C   UNL     1       6.554   4.154  17.077  0.00  0.00    +0.000 C 
ENDROOT
BRANCH   1  10
ATOM      7  C   UNL     1       2.158   1.953  18.542  0.00  0.00    +0.000 C 
ATOM      8  C   UNL     1       3.302   2.945  18.647  0.00  0.00    +0.000 C 
ATOM      9  C   UNL     1       3.567   3.668  17.347  0.00  0.00    +0.000 C 
ATOM     10  C   UNL     1       4.281   4.928  17.820  0.00  0.00    +0.000 C 
ATOM     11  C   UNL     1       3.470   5.166  19.098  0.00  0.00    +0.000 C 
ATOM     12  O   UNL     1       3.291   6.249  19.636  0.00  0.00    +0.000 OA
ATOM     13  O   UNL     1       2.953   3.986  19.561  0.00  0.00    +0.000 OA
ENDBRANCH   1  10
BRANCH   5  14
ATOM     14  C   UNL     1       5.807   5.256  14.876  0.00  0.00    +0.000 C 
BRANCH  14  15
ATOM     15  N   UNL     1       6.012   4.485  13.665  0.00  0.00    +0.000 N 
ATOM     16  C   UNL     1       5.142   3.588  13.113  0.00  0.00    +0.000 A 
ATOM     17  C   UNL     1       5.777   3.069  12.011  0.00  0.00    +0.000 A 
ATOM     18  C   UNL     1       7.034   3.701  11.996  0.00  0.00    +0.000 A 
ATOM     19  N   UNL     1       7.192   4.550  13.016  0.00  0.00    +0.000 NA
ENDBRANCH  14  15
ENDBRANCH   5  14
TORSDOF 3
ENDMDL
MODEL 6
REMARK VINA RESULT:      -6.4      1.907      6.287
REMARK  Name = 
REMARK  4 active torsions:
REMARK  status: ('A' for Active; 'I' for Inactive)
REMARK    1  A    between atoms: C_1  and  C_2
REMARK    2  A    between atoms: C_4  and  N_5
REMARK    3  A    between atoms: C_9  and  C_10
REMARK    4  A    between atoms: C_10  and  N_11
REMARK                            x       y       z     vdW  Elec       q    Type
REMARK                         _______ _______ _______ _____ _____    ______ ____
ROOT
ATOM      1  N   UNL     1       4.850   5.418  18.763  0.00  0.00    +0.000 NA
ATOM      2  C   UNL     1       4.346   6.660  18.124  0.00  0.00    +0.000 C 
ATOM      3  C   UNL     1       4.676   6.762  16.627  0.00  0.00    +0.000 C 
ATOM      4  O   UNL     1       6.079   6.635  16.374  0.00  0.00    +0.000 OA
ATOM      5  C   UNL     1       6.679   5.457  16.944  0.00  0.00    +0.000 C 
ATOM      6  C   UNL     1       6.287   5.313  18.437  0.00  0.00    +0.000 C 
ENDROOT
BRANCH   1  10
ATOM      7  C   UNL     1       2.461   2.588  21.408  0.00  0.00    +0.000 C 
ATOM      8  C   UNL     1       3.053   3.677  20.533  0.00  0.00    +0.000 C 
ATOM      9  C   UNL     1       4.023   3.138  19.507  0.00  0.00    +0.000 C 
ATOM     10  C   UNL     1       4.016   4.235  18.450  0.00  0.00    +0.000 C 
ATOM     11  C   UNL     1       2.526   4.587  18.517  0.00  0.00    +0.000 C 
ATOM     12  O   UNL     1       1.866   5.064  17.606  0.00  0.00    +0.000 OA
ATOM     13  O   UNL     1       2.019   4.281  19.752  0.00  0.00    +0.000 OA
ENDBRANCH   1  10
BRANCH   5  14
ATOM     14  C   UNL     1       6.400   4.195  16.123  0.00  0.00    +0.000 C 
BRANCH  14  15
ATOM     15  N   UNL     1       6.703   4.378  14.716  0.00  0.00    +0.000 N 
ATOM     16  C   UNL     1       6.161   3.688  13.669  0.00  0.00    +0.000 A 
ATOM     17  C   UNL     1       6.779   4.161  12.538  0.00  0.00    +0.000 A 
ATOM     18  C   UNL     1       7.695   5.120  13.010  0.00  0.00    +0.000 A 
ATOM     19  N   UNL     1       7.669   5.240  14.341  0.00  0.00    +0.000 NA
ENDBRANCH  14  15
ENDBRANCH   5  14
TORSDOF 3
ENDMDL
MODEL 7
REMARK VINA RESULT:      -6.3      1.762      6.245
REMARK  Name = 
REMARK  4 active torsions:
REMARK  status: ('A' for Active; 'I' for Inactive)
REMARK    1  A    between atoms: C_1  and  C_2
REMARK    2  A    between atoms: C_4  and  N_5
REMARK    3  A    between atoms: C_9  and  C_10
REMARK    4  A    between atoms: C_10  and  N_11
REMARK                            x       y       z     vdW  Elec       q    Type
REMARK                         _______ _______ _______ _____ _____    ______ ____
ROOT
ATOM      1  N   UNL     1       4.914   4.531  18.516  0.00  0.00    +0.000 NA
ATOM      2  C   UNL     1       5.713   5.690  18.987  0.00  0.00    +0.000 C 
ATOM      3  C   UNL     1       6.372   6.487  17.852  0.00  0.00    +0.000 C 
ATOM      4  O   UNL     1       7.187   5.661  17.015  0.00  0.00    +0.000 OA
ATOM      5  C   UNL     1       6.512   4.502  16.491  0.00  0.00    +0.000 C 
ATOM      6  C   UNL     1       5.784   3.736  17.625  0.00  0.00    +0.000 C 
ENDROOT
BRANCH   1  10
ATOM      7  C   UNL     1       0.803   2.590  18.744  0.00  0.00    +0.000 C 
ATOM      8  C   UNL     1       2.115   3.338  18.890  0.00  0.00    +0.000 C 
ATOM      9  C   UNL     1       2.688   3.776  17.562  0.00  0.00    +0.000 C 
ATOM     10  C   UNL     1       3.597   4.929  17.967  0.00  0.00    +0.000 C 
ATOM     11  C   UNL     1       2.709   5.526  19.064  0.00  0.00    +0.000 C 
ATOM     12  O   UNL     1       2.707   6.695  19.420  0.00  0.00    +0.000 OA
ATOM     13  O   UNL     1       1.894   4.563  19.595  0.00  0.00    +0.000 OA
ENDBRANCH   1  10
BRANCH   5  14
ATOM     14  C   UNL     1       5.600   4.833  15.306  0.00  0.00    +0.000 C 
BRANCH  14  15
ATOM     15  N   UNL     1       6.254   4.606  14.031  0.00  0.00    +0.000 N 
ATOM     16  C   UNL     1       5.956   3.627  13.126  0.00  0.00    +0.000 A 
ATOM     17  C   UNL     1       6.860   3.766  12.102  0.00  0.00    +0.000 A 
ATOM     18  C   UNL     1       7.676   4.844  12.493  0.00  0.00    +0.000 A 
ATOM     19  N   UNL     1       7.324   5.346  13.681  0.00  0.00    +0.000 NA
ENDBRANCH  14  15
ENDBRANCH   5  14
TORSDOF 3
ENDMDL
MODEL 8
REMARK VINA RESULT:      -6.0      2.319      4.870
REMARK  Name = 
REMARK  4 active torsions:
REMARK  status: ('A' for Active; 'I' for Inactive)
REMARK    1  A    between atoms: C_1  and  C_2
REMARK    2  A    between atoms: C_4  and  N_5
REMARK    3  A    between atoms: C_9  and  C_10
REMARK    4  A    between atoms: C_10  and  N_11
REMARK                            x       y       z     vdW  Elec       q    Type
REMARK                         _______ _______ _______ _____ _____    ______ ____
ROOT
ATOM      1  N   UNL     1       4.108   6.578  18.617  0.00  0.00    +0.000 NA
ATOM      2  C   UNL     1       4.854   6.683  17.338  0.00  0.00    +0.000 C 
ATOM      3  C   UNL     1       4.802   5.407  16.486  0.00  0.00    +0.000 C 
ATOM      4  O   UNL     1       5.258   4.258  17.206  0.00  0.00    +0.000 OA
ATOM      5  C   UNL     1       4.597   4.049  18.468  0.00  0.00    +0.000 C 
ATOM      6  C   UNL     1       4.584   5.357  19.300  0.00  0.00    +0.000 C 
ENDROOT
BRANCH   1  10
ATOM      7  C   UNL     1       0.815   8.096  21.369  0.00  0.00    +0.000 C 
ATOM      8  C   UNL     1       1.944   7.831  20.390  0.00  0.00    +0.000 C 
ATOM      9  C   UNL     1       1.814   6.494  19.697  0.00  0.00    +0.000 C 
ATOM     10  C   UNL     1       2.643   6.702  18.437  0.00  0.00    +0.000 C 
ATOM     11  C   UNL     1       2.252   8.158  18.161  0.00  0.00    +0.000 C 
ATOM     12  O   UNL     1       2.247   8.698  17.065  0.00  0.00    +0.000 OA
ATOM     13  O   UNL     1       1.889   8.783  19.324  0.00  0.00    +0.000 OA
ENDBRANCH   1  10
BRANCH   5  14
ATOM     14  C   UNL     1       3.209   3.421  18.312  0.00  0.00    +0.000 C 
BRANCH  14  15
ATOM     15  N   UNL     1       2.621   3.062  19.589  0.00  0.00    +0.000 N 
ATOM     16  C   UNL     1       1.302   3.151  19.933  0.00  0.00    +0.000 A 
ATOM     17  C   UNL     1       1.223   2.755  21.245  0.00  0.00    +0.000 A 
ATOM     18  C   UNL     1       2.552   2.468  21.610  0.00  0.00    +0.000 A 
ATOM     19  N   UNL     1       3.413   2.675  20.609  0.00  0.00    +0.000 NA
ENDBRANCH  14  15
ENDBRANCH   5  14
TORSDOF 3
ENDMDL
MODEL 9
REMARK VINA RESULT:      -6.0      2.370      6.328
REMARK  Name = 
REMARK  4 active torsions:
REMARK  status: ('A' for Active; 'I' for Inactive)
REMARK    1  A    between atoms: C_1  and  C_2
REMARK    2  A    between atoms: C_4  and  N_5
REMARK    3  A    between atoms: C_9  and  C_10
REMARK    4  A    between atoms: C_10  and  N_11
REMARK                            x       y       z     vdW  Elec       q    Type
REMARK                         _______ _______ _______ _____ _____    ______ ____
ROOT
ATOM      1  N   UNL     1       2.202   3.592  18.885  0.00  0.00    +0.000 NA
ATOM      2  C   UNL     1       2.279   2.126  19.104  0.00  0.00    +0.000 C 
ATOM      3  C   UNL     1       3.596   1.499  18.624  0.00  0.00    +0.000 C 
ATOM      4  O   UNL     1       3.861   1.787  17.248  0.00  0.00    +0.000 OA
ATOM      5  C   UNL     1       3.820   3.188  16.917  0.00  0.00    +0.000 C 
ATOM      6  C   UNL     1       2.524   3.839  17.465  0.00  0.00    +0.000 C 
ENDROOT
BRANCH   1  10
ATOM      7  C   UNL     1       1.823   7.858  20.429  0.00  0.00    +0.000 C 
ATOM      8  C   UNL     1       1.777   6.380  20.089  0.00  0.00    +0.000 C 
ATOM      9  C   UNL     1       3.106   5.853  19.599  0.00  0.00    +0.000 C 
ATOM     10  C   UNL     1       2.985   4.361  19.881  0.00  0.00    +0.000 C 
ATOM     11  C   UNL     1       2.229   4.455  21.211  0.00  0.00    +0.000 C 
ATOM     12  O   UNL     1       2.257   3.622  22.105  0.00  0.00    +0.000 OA
ATOM     13  O   UNL     1       1.516   5.622  21.272  0.00  0.00    +0.000 OA
ENDBRANCH   1  10
BRANCH   5  14
ATOM     14  C   UNL     1       5.091   3.932  17.335  0.00  0.00    +0.000 C 
BRANCH  14  15
ATOM     15  N   UNL     1       5.895   4.327  16.194  0.00  0.00    +0.000 N 
ATOM     16  C   UNL     1       5.543   4.235  14.878  0.00  0.00    +0.000 A 
ATOM     17  C   UNL     1       6.628   4.676  14.160  0.00  0.00    +0.000 A 
ATOM     18  C   UNL     1       7.593   4.991  15.135  0.00  0.00    +0.000 A 
ATOM     19  N   UNL     1       7.159   4.758  16.378  0.00  0.00    +0.000 NA
ENDBRANCH  14  15
ENDBRANCH   5  14
TORSDOF 3
ENDMDL
