MODEL 1
REMARK VINA RESULT:      -7.0      0.000      0.000
REMARK  Name = 
REMARK  13 active torsions:
REMARK  status: ('A' for Active; 'I' for Inactive)
REMARK    1  A    between atoms: CD1_1  and  CG1_2
REMARK    2  A    between atoms: CG1_2  and  CB_3
REMARK    3  A    between atoms: CB_3  and  CG2_4
REMARK    4  A    between atoms: CB_3  and  CA_5
REMARK    5  A    between atoms: CA_5  and  N_6
REMARK    6  A    between atoms: CA_5  and  C_14
REMARK    7  A    between atoms: C_7  and  C_9
REMARK    8  A    between atoms: C_9  and  S_10
REMARK    9  A    between atoms: C_9  and  C_11
REMARK   10  A    between atoms: C_11  and  C_12
REMARK   11  A    between atoms: C_11  and  C_13
REMARK   12  A    between atoms: C_17  and  C_18
REMARK   13  A    between atoms: C_18  and  O_20
REMARK                            x       y       z     vdW  Elec       q    Type
REMARK                         _______ _______ _______ _____ _____    ______ ____
ROOT
ATOM      1  CA  ILE A   1       5.393   4.612  16.517  0.00  0.00    +0.000 C 
ENDROOT
BRANCH   1   2
ATOM      2  C   ILE A   1       4.462   3.626  17.309  0.00  0.00    +0.000 C 
ATOM      3  O   ILE A   1       4.422   2.460  16.856  0.00  0.00    +0.000 OA
ATOM      4  N   UNK A   2       3.616   3.872  18.377  0.00  0.00    +0.000 N 
ATOM      5  C   UNK A   2       3.104   2.642  19.055  0.00  0.00    +0.000 C 
ATOM      6  C   UNK A   2       2.248   3.100  20.245  0.00  0.00    +0.000 C 
ATOM      7  C   UNK A   2       1.924   4.530  19.907  0.00  0.00    +0.000 C 
ATOM      8  C   UNK A   2       1.588   5.417  21.101  0.00  0.00    +0.000 C 
ATOM      9  C   UNK A   2       1.303   6.841  20.625  0.00  0.00    +0.000 C 
ATOM     10  C   UNK A   2       2.358   7.354  19.632  0.00  0.00    +0.000 C 
ATOM     11  C   UNK A   2       2.664   6.341  18.500  0.00  0.00    +0.000 C 
ATOM     12  C   UNK A   2       3.171   5.047  19.148  0.00  0.00    +0.000 C 
BRANCH   5  13
ATOM     13  C   UNK A   2       4.213   1.721  19.613  0.00  0.00    +0.000 C 
ATOM     14  O   UNK A   2       4.921   1.970  20.582  0.00  0.00    +0.000 OA
BRANCH  13  15
ATOM     15  O   UNK A   2       4.391   0.588  18.889  0.00  0.00    +0.000 OA
ATOM     16  H   UNK A   2       3.785  -0.124  19.214  0.00  0.00    +0.000 HD
ENDBRANCH  13  15
ENDBRANCH   5  13
ENDBRANCH   1   2
BRANCH   1  17
ATOM     17  N   ILE A   1       5.257   4.446  15.070  0.00  0.00    +0.000 N 
ATOM     18  C   UNK A   0       6.376   4.405  14.245  0.00  0.00    +0.000 C 
ATOM     19  O   UNK A   0       7.524   4.446  14.679  0.00  0.00    +0.000 OA
ATOM     20  H   ILE A   1       4.332   4.423  14.661  0.00  0.00    +0.000 HD
BRANCH  18  21
ATOM     21  C   UNK A   0       6.061   4.395  12.743  0.00  0.00    +0.000 C 
BRANCH  21  22
ATOM     22  C   UNK A   0       5.552   3.016  12.257  0.00  0.00    +0.000 C 
ATOM     23  C   UNK A   0       4.341   3.190  11.327  0.00  0.00    +0.000 C 
ATOM     24  C   UNK A   0       6.626   2.217  11.502  0.00  0.00    +0.000 C 
ENDBRANCH  21  22
BRANCH  21  25
ATOM     25  S   UNK A   0       7.622   4.898  11.898  0.00  0.00    +0.000 S 
ATOM     26  H   UNK A   0       8.426   4.073  12.589  0.00  0.00    +0.000 HD
ENDBRANCH  21  25
ENDBRANCH  18  21
ENDBRANCH   1  17
BRANCH   1  27
ATOM     27  CB  ILE A   1       5.652   6.091  16.916  0.00  0.00    +0.000 C 
ATOM     28  CG2 ILE A   1       5.077   7.097  15.916  0.00  0.00    +0.000 C 
BRANCH  27  30
ATOM     29  CD1 ILE A   1       7.461   7.840  17.419  0.00  0.00    +0.000 C 
ATOM     30  CG1 ILE A   1       7.094   6.369  17.327  0.00  0.00    +0.000 C 
ENDBRANCH  27  30
ENDBRANCH   1  27
TORSDOF 9
ENDMDL
MODEL 2
REMARK VINA RESULT:      -6.1      1.969      4.079
REMARK  Name = 
REMARK  13 active torsions:
REMARK  status: ('A' for Active; 'I' for Inactive)
REMARK    1  A    between atoms: CD1_1  and  CG1_2
REMARK    2  A    between atoms: CG1_2  and  CB_3
REMARK    3  A    between atoms: CB_3  and  CG2_4
REMARK    4  A    between atoms: CB_3  and  CA_5
REMARK    5  A    between atoms: CA_5  and  N_6
REMARK    6  A    between atoms: CA_5  and  C_14
REMARK    7  A    between atoms: C_7  and  C_9
REMARK    8  A    between atoms: C_9  and  S_10
REMARK    9  A    between atoms: C_9  and  C_11
REMARK   10  A    between atoms: C_11  and  C_12
REMARK   11  A    between atoms: C_11  and  C_13
REMARK   12  A    between atoms: C_17  and  C_18
REMARK   13  A    between atoms: C_18  and  O_20
REMARK                            x       y       z     vdW  Elec       q    Type
REMARK                         _______ _______ _______ _____ _____    ______ ____
ROOT
ATOM      1  CA  ILE A   1       5.071   4.581  16.060  0.00  0.00    +0.000 C 
ENDROOT
BRANCH   1   2
ATOM      2  C   ILE A   1       4.165   3.650  16.943  0.00  0.00    +0.000 C 
ATOM      3  O   ILE A   1       4.043   2.478  16.520  0.00  0.00    +0.000 OA
ATOM      4  N   UNK A   2       3.417   3.950  18.067  0.00  0.00    +0.000 N 
ATOM      5  C   UNK A   2       2.909   2.755  18.809  0.00  0.00    +0.000 C 
ATOM      6  C   UNK A   2       2.168   3.271  20.052  0.00  0.00    +0.000 C 
ATOM      7  C   UNK A   2       1.877   4.707  19.710  0.00  0.00    +0.000 C 
ATOM      8  C   UNK A   2       1.672   5.628  20.906  0.00  0.00    +0.000 C 
ATOM      9  C   UNK A   2       1.409   7.054  20.423  0.00  0.00    +0.000 C 
ATOM     10  C   UNK A   2       2.402   7.505  19.341  0.00  0.00    +0.000 C 
ATOM     11  C   UNK A   2       2.577   6.458  18.211  0.00  0.00    +0.000 C 
ATOM     12  C   UNK A   2       3.081   5.157  18.845  0.00  0.00    +0.000 C 
BRANCH   5  13
ATOM     13  C   UNK A   2       4.020   1.799  19.299  0.00  0.00    +0.000 C 
ATOM     14  O   UNK A   2       4.844   2.055  20.171  0.00  0.00    +0.000 OA
BRANCH  13  15
ATOM     15  O   UNK A   2       4.054   0.620  18.630  0.00  0.00    +0.000 OA
ATOM     16  H   UNK A   2       4.038  -0.137  19.268  0.00  0.00    +0.000 HD
ENDBRANCH  13  15
ENDBRANCH   5  13
ENDBRANCH   1   2
BRANCH   1  17
ATOM     17  N   ILE A   1       5.756   5.595  16.863  0.00  0.00    +0.000 N 
ATOM     18  C   UNK A   0       6.642   5.232  17.871  0.00  0.00    +0.000 C 
ATOM     19  O   UNK A   0       6.941   4.065  18.105  0.00  0.00    +0.000 OA
ATOM     20  H   ILE A   1       5.532   6.571  16.719  0.00  0.00    +0.000 HD
BRANCH  18  21
ATOM     21  C   UNK A   0       7.147   6.402  18.728  0.00  0.00    +0.000 C 
BRANCH  21  22
ATOM     22  C   UNK A   0       7.829   7.502  17.877  0.00  0.00    +0.000 C 
ATOM     23  C   UNK A   0       6.770   8.353  17.157  0.00  0.00    +0.000 C 
ATOM     24  C   UNK A   0       8.710   8.441  18.714  0.00  0.00    +0.000 C 
ENDBRANCH  21  22
BRANCH  21  25
ATOM     25  S   UNK A   0       8.301   5.661  19.961  0.00  0.00    +0.000 S 
ATOM     26  H   UNK A   0       7.469   5.766  21.011  0.00  0.00    +0.000 HD
ENDBRANCH  21  25
ENDBRANCH  18  21
ENDBRANCH   1  17
BRANCH   1  27
ATOM     27  CB  ILE A   1       5.937   4.093  14.867  0.00  0.00    +0.000 C 
ATOM     28  CG2 ILE A   1       7.198   4.934  14.652  0.00  0.00    +0.000 C 
BRANCH  27  30
ATOM     29  CD1 ILE A   1       5.959   3.393  12.399  0.00  0.00    +0.000 C 
ATOM     30  CG1 ILE A   1       5.135   3.828  13.598  0.00  0.00    +0.000 C 
ENDBRANCH  27  30
ENDBRANCH   1  27
TORSDOF 9
ENDMDL
MODEL 3
REMARK VINA RESULT:      -6.0      1.197      1.576
REMARK  Name = 
REMARK  13 active torsions:
REMARK  status: ('A' for Active; 'I' for Inactive)
REMARK    1  A    between atoms: CD1_1  and  CG1_2
REMARK    2  A    between atoms: CG1_2  and  CB_3
REMARK    3  A    between atoms: CB_3  and  CG2_4
REMARK    4  A    between atoms: CB_3  and  CA_5
REMARK    5  A    between atoms: CA_5  and  N_6
REMARK    6  A    between atoms: CA_5  and  C_14
REMARK    7  A    between atoms: C_7  and  C_9
REMARK    8  A    between atoms: C_9  and  S_10
REMARK    9  A    between atoms: C_9  and  C_11
REMARK   10  A    between atoms: C_11  and  C_12
REMARK   11  A    between atoms: C_11  and  C_13
REMARK   12  A    between atoms: C_17  and  C_18
REMARK   13  A    between atoms: C_18  and  O_20
REMARK                            x       y       z     vdW  Elec       q    Type
REMARK                         _______ _______ _______ _____ _____    ______ ____
ROOT
ATOM      1  CA  ILE A   1       5.351   4.988  16.530  0.00  0.00    +0.000 C 
ENDROOT
BRANCH   1   2
ATOM      2  C   ILE A   1       4.393   3.960  17.232  0.00  0.00    +0.000 C 
ATOM      3  O   ILE A   1       4.351   2.829  16.697  0.00  0.00    +0.000 OA
ATOM      4  N   UNK A   2       3.528   4.140  18.296  0.00  0.00    +0.000 N 
ATOM      5  C   UNK A   2       2.989   2.872  18.876  0.00  0.00    +0.000 C 
ATOM      6  C   UNK A   2       2.112   3.256  20.077  0.00  0.00    +0.000 C 
ATOM      7  C   UNK A   2       1.810   4.709  19.835  0.00  0.00    +0.000 C 
ATOM      8  C   UNK A   2       1.459   5.514  21.081  0.00  0.00    +0.000 C 
ATOM      9  C   UNK A   2       1.198   6.971  20.701  0.00  0.00    +0.000 C 
ATOM     10  C   UNK A   2       2.279   7.541  19.767  0.00  0.00    +0.000 C 
ATOM     11  C   UNK A   2       2.598   6.605  18.574  0.00  0.00    +0.000 C 
ATOM     12  C   UNK A   2       3.078   5.264  19.139  0.00  0.00    +0.000 C 
BRANCH   5  13
ATOM     13  C   UNK A   2       4.076   1.901  19.390  0.00  0.00    +0.000 C 
ATOM     14  O   UNK A   2       4.846   2.125  20.318  0.00  0.00    +0.000 OA
BRANCH  13  15
ATOM     15  O   UNK A   2       4.157   0.751  18.676  0.00  0.00    +0.000 OA
ATOM     16  H   UNK A   2       3.595   0.812  17.863  0.00  0.00    +0.000 HD
ENDBRANCH  13  15
ENDBRANCH   5  13
ENDBRANCH   1   2
BRANCH   1  17
ATOM     17  N   ILE A   1       5.656   4.598  15.154  0.00  0.00    +0.000 N 
ATOM     18  C   UNK A   0       6.968   4.391  14.742  0.00  0.00    +0.000 C 
ATOM     19  O   UNK A   0       7.925   4.466  15.506  0.00  0.00    +0.000 OA
ATOM     20  H   ILE A   1       4.903   4.537  14.480  0.00  0.00    +0.000 HD
BRANCH  18  21
ATOM     21  C   UNK A   0       7.133   4.151  13.234  0.00  0.00    +0.000 C 
BRANCH  21  22
ATOM     22  C   UNK A   0       7.486   5.449  12.467  0.00  0.00    +0.000 C 
ATOM     23  C   UNK A   0       8.902   5.919  12.835  0.00  0.00    +0.000 C 
ATOM     24  C   UNK A   0       7.420   5.276  10.942  0.00  0.00    +0.000 C 
ENDBRANCH  21  22
BRANCH  21  25
ATOM     25  S   UNK A   0       5.539   3.419  12.665  0.00  0.00    +0.000 S 
ATOM     26  H   UNK A   0       5.015   4.567  12.202  0.00  0.00    +0.000 HD
ENDBRANCH  21  25
ENDBRANCH  18  21
ENDBRANCH   1  17
BRANCH   1  27
ATOM     27  CB  ILE A   1       5.262   6.530  16.696  0.00  0.00    +0.000 C 
ATOM     28  CG2 ILE A   1       4.750   7.245  15.443  0.00  0.00    +0.000 C 
BRANCH  27  30
ATOM     29  CD1 ILE A   1       7.270   6.252  18.268  0.00  0.00    +0.000 C 
ATOM     30  CG1 ILE A   1       6.513   7.152  17.306  0.00  0.00    +0.000 C 
ENDBRANCH  27  30
ENDBRANCH   1  27
TORSDOF 9
ENDMDL
MODEL 4
REMARK VINA RESULT:      -5.9      4.655      7.993
REMARK  Name = 
REMARK  13 active torsions:
REMARK  status: ('A' for Active; 'I' for Inactive)
REMARK    1  A    between atoms: CD1_1  and  CG1_2
REMARK    2  A    between atoms: CG1_2  and  CB_3
REMARK    3  A    between atoms: CB_3  and  CG2_4
REMARK    4  A    between atoms: CB_3  and  CA_5
REMARK    5  A    between atoms: CA_5  and  N_6
REMARK    6  A    between atoms: CA_5  and  C_14
REMARK    7  A    between atoms: C_7  and  C_9
REMARK    8  A    between atoms: C_9  and  S_10
REMARK    9  A    between atoms: C_9  and  C_11
REMARK   10  A    between atoms: C_11  and  C_12
REMARK   11  A    between atoms: C_11  and  C_13
REMARK   12  A    between atoms: C_17  and  C_18
REMARK   13  A    between atoms: C_18  and  O_20
REMARK                            x       y       z     vdW  Elec       q    Type
REMARK                         _______ _______ _______ _____ _____    ______ ____
ROOT
ATOM      1  CA  ILE A   1       1.625   8.564  19.559  0.00  0.00    +0.000 C 
ENDROOT
BRANCH   1   2
ATOM      2  C   ILE A   1       2.308   7.638  18.490  0.00  0.00    +0.000 C 
ATOM      3  O   ILE A   1       2.449   8.154  17.358  0.00  0.00    +0.000 OA
ATOM      4  N   UNK A   2       2.699   6.315  18.586  0.00  0.00    +0.000 N 
ATOM      5  C   UNK A   2       3.573   5.846  17.468  0.00  0.00    +0.000 C 
ATOM      6  C   UNK A   2       3.963   4.391  17.772  0.00  0.00    +0.000 C 
ATOM      7  C   UNK A   2       2.927   3.958  18.772  0.00  0.00    +0.000 C 
ATOM      8  C   UNK A   2       3.344   2.805  19.678  0.00  0.00    +0.000 C 
ATOM      9  C   UNK A   2       2.215   2.480  20.656  0.00  0.00    +0.000 C 
ATOM     10  C   UNK A   2       1.632   3.736  21.324  0.00  0.00    +0.000 C 
ATOM     11  C   UNK A   2       1.309   4.862  20.311  0.00  0.00    +0.000 C 
ATOM     12  C   UNK A   2       2.607   5.236  19.587  0.00  0.00    +0.000 C 
BRANCH   5  13
ATOM     13  C   UNK A   2       4.884   6.651  17.311  0.00  0.00    +0.000 C 
ATOM     14  O   UNK A   2       5.722   6.820  18.190  0.00  0.00    +0.000 OA
BRANCH  13  15
ATOM     15  O   UNK A   2       5.022   7.228  16.092  0.00  0.00    +0.000 OA
ATOM     16  H   UNK A   2       4.153   7.583  15.780  0.00  0.00    +0.000 HD
ENDBRANCH  13  15
ENDBRANCH   5  13
ENDBRANCH   1   2
BRANCH   1  17
ATOM     17  N   ILE A   1       0.642   9.463  18.952  0.00  0.00    +0.000 N 
ATOM     18  C   UNK A   0       0.778  10.844  19.050  0.00  0.00    +0.000 C 
ATOM     19  O   UNK A   0       1.741  11.381  19.588  0.00  0.00    +0.000 OA
ATOM     20  H   ILE A   1      -0.179   9.070  18.510  0.00  0.00    +0.000 HD
BRANCH  18  21
ATOM     21  C   UNK A   0      -0.417  11.642  18.509  0.00  0.00    +0.000 C 
BRANCH  21  22
ATOM     22  C   UNK A   0      -1.096  12.499  19.606  0.00  0.00    +0.000 C 
ATOM     23  C   UNK A   0      -0.776  13.988  19.395  0.00  0.00    +0.000 C 
ATOM     24  C   UNK A   0      -2.623  12.336  19.628  0.00  0.00    +0.000 C 
ENDBRANCH  21  22
BRANCH  21  25
ATOM     25  S   UNK A   0      -1.569  10.395  17.788  0.00  0.00    +0.000 S 
ATOM     26  H   UNK A   0      -0.616   9.523  17.417  0.00  0.00    +0.000 HD
ENDBRANCH  21  25
ENDBRANCH  18  21
ENDBRANCH   1  17
BRANCH   1  27
ATOM     27  CB  ILE A   1       1.200   8.104  20.980  0.00  0.00    +0.000 C 
ATOM     28  CG2 ILE A   1      -0.288   7.761  21.086  0.00  0.00    +0.000 C 
BRANCH  27  30
ATOM     29  CD1 ILE A   1       0.645   9.563  23.017  0.00  0.00    +0.000 C 
ATOM     30  CG1 ILE A   1       1.717   9.009  22.094  0.00  0.00    +0.000 C 
ENDBRANCH  27  30
ENDBRANCH   1  27
TORSDOF 9
ENDMDL
MODEL 5
REMARK VINA RESULT:      -5.8      2.665      6.653
REMARK  Name = 
REMARK  13 active torsions:
REMARK  status: ('A' for Active; 'I' for Inactive)
REMARK    1  A    between atoms: CD1_1  and  CG1_2
REMARK    2  A    between atoms: CG1_2  and  CB_3
REMARK    3  A    between atoms: CB_3  and  CG2_4
REMARK    4  A    between atoms: CB_3  and  CA_5
REMARK    5  A    between atoms: CA_5  and  N_6
REMARK    6  A    between atoms: CA_5  and  C_14
REMARK    7  A    between atoms: C_7  and  C_9
REMARK    8  A    between atoms: C_9  and  S_10
REMARK    9  A    between atoms: C_9  and  C_11
REMARK   10  A    between atoms: C_11  and  C_12
REMARK   11  A    between atoms: C_11  and  C_13
REMARK   12  A    between atoms: C_17  and  C_18
REMARK   13  A    between atoms: C_18  and  O_20
REMARK                            x       y       z     vdW  Elec       q    Type
REMARK                         _______ _______ _______ _____ _____    ______ ____
ROOT
ATOM      1  CA  ILE A   1       3.315   5.822  17.726  0.00  0.00    +0.000 C 
ENDROOT
BRANCH   1   2
ATOM      2  C   ILE A   1       4.823   6.175  17.468  0.00  0.00    +0.000 C 
ATOM      3  O   ILE A   1       5.277   7.103  18.176  0.00  0.00    +0.000 OA
ATOM      4  N   UNK A   2       5.700   5.677  16.520  0.00  0.00    +0.000 N 
ATOM      5  C   UNK A   2       7.132   6.036  16.753  0.00  0.00    +0.000 C 
ATOM      6  C   UNK A   2       7.959   5.347  15.657  0.00  0.00    +0.000 C 
ATOM      7  C   UNK A   2       6.938   5.037  14.597  0.00  0.00    +0.000 C 
ATOM      8  C   UNK A   2       7.302   3.887  13.665  0.00  0.00    +0.000 C 
ATOM      9  C   UNK A   2       6.176   3.661  12.656  0.00  0.00    +0.000 C 
ATOM     10  C   UNK A   2       4.788   3.631  13.315  0.00  0.00    +0.000 C 
ATOM     11  C   UNK A   2       4.559   4.812  14.291  0.00  0.00    +0.000 C 
ATOM     12  C   UNK A   2       5.634   4.743  15.381  0.00  0.00    +0.000 C 
BRANCH   5  13
ATOM     13  C   UNK A   2       7.687   5.562  18.116  0.00  0.00    +0.000 C 
ATOM     14  O   UNK A   2       7.702   4.401  18.511  0.00  0.00    +0.000 OA
BRANCH  13  15
ATOM     15  O   UNK A   2       8.130   6.574  18.902  0.00  0.00    +0.000 OA
ATOM     16  H   UNK A   2       8.520   7.294  18.346  0.00  0.00    +0.000 HD
ENDBRANCH  13  15
ENDBRANCH   5  13
ENDBRANCH   1   2
BRANCH   1  17
ATOM     17  N   ILE A   1       3.153   4.459  18.232  0.00  0.00    +0.000 N 
ATOM     18  C   UNK A   0       2.026   3.707  17.918  0.00  0.00    +0.000 C 
ATOM     19  O   UNK A   0       1.146   4.111  17.165  0.00  0.00    +0.000 OA
ATOM     20  H   ILE A   1       3.845   4.084  18.869  0.00  0.00    +0.000 HD
BRANCH  18  21
ATOM     21  C   UNK A   0       1.928   2.365  18.659  0.00  0.00    +0.000 C 
BRANCH  21  22
ATOM     22  C   UNK A   0       1.535   2.543  20.147  0.00  0.00    +0.000 C 
ATOM     23  C   UNK A   0       2.794   2.626  21.025  0.00  0.00    +0.000 C 
ATOM     24  C   UNK A   0       0.694   3.803  20.394  0.00  0.00    +0.000 C 
ENDBRANCH  21  22
BRANCH  21  25
ATOM     25  S   UNK A   0       3.577   1.562  18.466  0.00  0.00    +0.000 S 
ATOM     26  H   UNK A   0       3.593   0.983  19.678  0.00  0.00    +0.000 HD
ENDBRANCH  21  25
ENDBRANCH  18  21
ENDBRANCH   1  17
BRANCH   1  27
ATOM     27  CB  ILE A   1       2.272   6.800  18.333  0.00  0.00    +0.000 C 
ATOM     28  CG2 ILE A   1       2.246   8.164  17.640  0.00  0.00    +0.000 C 
BRANCH  27  30
ATOM     29  CD1 ILE A   1       1.599   8.064  20.462  0.00  0.00    +0.000 C 
ATOM     30  CG1 ILE A   1       2.316   6.871  19.856  0.00  0.00    +0.000 C 
ENDBRANCH  27  30
ENDBRANCH   1  27
TORSDOF 9
ENDMDL
MODEL 6
REMARK VINA RESULT:      -5.7      9.360     11.974
REMARK  Name = 
REMARK  13 active torsions:
REMARK  status: ('A' for Active; 'I' for Inactive)
REMARK    1  A    between atoms: CD1_1  and  CG1_2
REMARK    2  A    between atoms: CG1_2  and  CB_3
REMARK    3  A    between atoms: CB_3  and  CG2_4
REMARK    4  A    between atoms: CB_3  and  CA_5
REMARK    5  A    between atoms: CA_5  and  N_6
REMARK    6  A    between atoms: CA_5  and  C_14
REMARK    7  A    between atoms: C_7  and  C_9
REMARK    8  A    between atoms: C_9  and  S_10
REMARK    9  A    between atoms: C_9  and  C_11
REMARK   10  A    between atoms: C_11  and  C_12
REMARK   11  A    between atoms: C_11  and  C_13
REMARK   12  A    between atoms: C_17  and  C_18
REMARK   13  A    between atoms: C_18  and  O_20
REMARK                            x       y       z     vdW  Elec       q    Type
REMARK                         _______ _______ _______ _____ _____    ______ ____
ROOT
ATOM      1  CA  ILE A   1      -1.542  12.665  20.711  0.00  0.00    +0.000 C 
ENDROOT
BRANCH   1   2
ATOM      2  C   ILE A   1      -2.859  12.600  21.564  0.00  0.00    +0.000 C 
ATOM      3  O   ILE A   1      -2.685  12.403  22.788  0.00  0.00    +0.000 OA
ATOM      4  N   UNK A   2      -4.181  12.643  21.158  0.00  0.00    +0.000 N 
ATOM      5  C   UNK A   2      -5.163  12.843  22.267  0.00  0.00    +0.000 C 
ATOM      6  C   UNK A   2      -6.558  12.935  21.631  0.00  0.00    +0.000 C 
ATOM      7  C   UNK A   2      -6.361  12.313  20.275  0.00  0.00    +0.000 C 
ATOM      8  C   UNK A   2      -7.363  12.748  19.212  0.00  0.00    +0.000 C 
ATOM      9  C   UNK A   2      -7.039  12.064  17.884  0.00  0.00    +0.000 C 
ATOM     10  C   UNK A   2      -5.546  12.141  17.528  0.00  0.00    +0.000 C 
ATOM     11  C   UNK A   2      -4.624  11.739  18.707  0.00  0.00    +0.000 C 
ATOM     12  C   UNK A   2      -4.911  12.687  19.877  0.00  0.00    +0.000 C 
BRANCH   5  13
ATOM     13  C   UNK A   2      -4.941  14.139  23.080  0.00  0.00    +0.000 C 
ATOM     14  O   UNK A   2      -4.954  15.276  22.620  0.00  0.00    +0.000 OA
BRANCH  13  15
ATOM     15  O   UNK A   2      -4.666  13.918  24.389  0.00  0.00    +0.000 OA
ATOM     16  H   UNK A   2      -3.739  14.194  24.596  0.00  0.00    +0.000 HD
ENDBRANCH  13  15
ENDBRANCH   5  13
ENDBRANCH   1   2
BRANCH   1  17
ATOM     17  N   ILE A   1      -0.892  11.358  20.613  0.00  0.00    +0.000 N 
ATOM     18  C   UNK A   0       0.429  11.183  21.013  0.00  0.00    +0.000 C 
ATOM     19  O   UNK A   0       1.095  12.081  21.517  0.00  0.00    +0.000 OA
ATOM     20  H   ILE A   1      -1.394  10.587  20.190  0.00  0.00    +0.000 HD
BRANCH  18  21
ATOM     21  C   UNK A   0       1.014   9.800  20.692  0.00  0.00    +0.000 C 
BRANCH  21  22
ATOM     22  C   UNK A   0       1.106   9.540  19.168  0.00  0.00    +0.000 C 
ATOM     23  C   UNK A   0       1.785  10.726  18.464  0.00  0.00    +0.000 C 
ATOM     24  C   UNK A   0       1.894   8.266  18.828  0.00  0.00    +0.000 C 
ENDBRANCH  21  22
BRANCH  21  25
ATOM     25  S   UNK A   0      -0.079   8.581  21.541  0.00  0.00    +0.000 S 
ATOM     26  H   UNK A   0       0.753   7.534  21.412  0.00  0.00    +0.000 HD
ENDBRANCH  21  25
ENDBRANCH  18  21
ENDBRANCH   1  17
BRANCH   1  27
ATOM     27  CB  ILE A   1      -1.373  13.503  19.414  0.00  0.00    +0.000 C 
ATOM     28  CG2 ILE A   1      -1.169  12.646  18.162  0.00  0.00    +0.000 C 
BRANCH  27  30
ATOM     29  CD1 ILE A   1       0.964  14.424  18.892  0.00  0.00    +0.000 C 
ATOM     30  CG1 ILE A   1      -0.382  14.653  19.556  0.00  0.00    +0.000 C 
ENDBRANCH  27  30
ENDBRANCH   1  27
TORSDOF 9
ENDMDL
MODEL 7
REMARK VINA RESULT:      -5.7      9.296     11.967
REMARK  Name = 
REMARK  13 active torsions:
REMARK  status: ('A' for Active; 'I' for Inactive)
REMARK    1  A    between atoms: CD1_1  and  CG1_2
REMARK    2  A    between atoms: CG1_2  and  CB_3
REMARK    3  A    between atoms: CB_3  and  CG2_4
REMARK    4  A    between atoms: CB_3  and  CA_5
REMARK    5  A    between atoms: CA_5  and  N_6
REMARK    6  A    between atoms: CA_5  and  C_14
REMARK    7  A    between atoms: C_7  and  C_9
REMARK    8  A    between atoms: C_9  and  S_10
REMARK    9  A    between atoms: C_9  and  C_11
REMARK   10  A    between atoms: C_11  and  C_12
REMARK   11  A    between atoms: C_11  and  C_13
REMARK   12  A    between atoms: C_17  and  C_18
REMARK   13  A    between atoms: C_18  and  O_20
REMARK                            x       y       z     vdW  Elec       q    Type
REMARK                         _______ _______ _______ _____ _____    ______ ____
ROOT
ATOM      1  CA  ILE A   1      -3.122  11.988  18.954  0.00  0.00    +0.000 C 
ENDROOT
BRANCH   1   2
ATOM      2  C   ILE A   1      -3.846  12.715  20.142  0.00  0.00    +0.000 C 
ATOM      3  O   ILE A   1      -5.062  12.444  20.265  0.00  0.00    +0.000 OA
ATOM      4  N   UNK A   2      -3.367  13.673  21.018  0.00  0.00    +0.000 N 
ATOM      5  C   UNK A   2      -4.249  13.929  22.197  0.00  0.00    +0.000 C 
ATOM      6  C   UNK A   2      -3.534  14.957  23.088  0.00  0.00    +0.000 C 
ATOM      7  C   UNK A   2      -2.533  15.584  22.156  0.00  0.00    +0.000 C 
ATOM      8  C   UNK A   2      -1.320  16.209  22.835  0.00  0.00    +0.000 C 
ATOM      9  C   UNK A   2      -0.376  16.786  21.781  0.00  0.00    +0.000 C 
ATOM     10  C   UNK A   2      -0.118  15.812  20.621  0.00  0.00    +0.000 C 
ATOM     11  C   UNK A   2      -1.420  15.190  20.056  0.00  0.00    +0.000 C 
ATOM     12  C   UNK A   2      -2.120  14.441  21.195  0.00  0.00    +0.000 C 
BRANCH   5  13
ATOM     13  C   UNK A   2      -4.521  12.679  23.065  0.00  0.00    +0.000 C 
ATOM     14  O   UNK A   2      -3.667  12.018  23.645  0.00  0.00    +0.000 OA
BRANCH  13  15
ATOM     15  O   UNK A   2      -5.828  12.317  23.098  0.00  0.00    +0.000 OA
ATOM     16  H   UNK A   2      -6.363  12.911  22.515  0.00  0.00    +0.000 HD
ENDBRANCH  13  15
ENDBRANCH   5  13
ENDBRANCH   1   2
BRANCH   1  17
ATOM     17  N   ILE A   1      -1.761  11.584  19.310  0.00  0.00    +0.000 N 
ATOM     18  C   UNK A   0      -0.664  12.055  18.596  0.00  0.00    +0.000 C 
ATOM     19  O   UNK A   0      -0.765  12.865  17.680  0.00  0.00    +0.000 OA
ATOM     20  H   ILE A   1      -1.625  10.905  20.048  0.00  0.00    +0.000 HD
BRANCH  18  21
ATOM     21  C   UNK A   0       0.674  11.410  18.985  0.00  0.00    +0.000 C 
BRANCH  21  22
ATOM     22  C   UNK A   0       0.616   9.863  18.945  0.00  0.00    +0.000 C 
ATOM     23  C   UNK A   0       1.631   9.316  17.929  0.00  0.00    +0.000 C 
ATOM     24  C   UNK A   0       0.908   9.220  20.309  0.00  0.00    +0.000 C 
ENDBRANCH  21  22
BRANCH  21  25
ATOM     25  S   UNK A   0       1.068  12.048  20.671  0.00  0.00    +0.000 S 
ATOM     26  H   UNK A   0       1.036  10.852  21.283  0.00  0.00    +0.000 HD
ENDBRANCH  21  25
ENDBRANCH  18  21
ENDBRANCH   1  17
BRANCH   1  27
ATOM     27  CB  ILE A   1      -3.803  10.972  17.996  0.00  0.00    +0.000 C 
ATOM     28  CG2 ILE A   1      -3.096   9.615  17.950  0.00  0.00    +0.000 C 
BRANCH  27  30
ATOM     29  CD1 ILE A   1      -3.344  10.964  15.472  0.00  0.00    +0.000 C 
ATOM     30  CG1 ILE A   1      -4.136  11.553  16.627  0.00  0.00    +0.000 C 
ENDBRANCH  27  30
ENDBRANCH   1  27
TORSDOF 9
ENDMDL
MODEL 8
REMARK VINA RESULT:      -5.6      9.801     12.896
REMARK  Name = 
REMARK  13 active torsions:
REMARK  status: ('A' for Active; 'I' for Inactive)
REMARK    1  A    between atoms: CD1_1  and  CG1_2
REMARK    2  A    between atoms: CG1_2  and  CB_3
REMARK    3  A    between atoms: CB_3  and  CG2_4
REMARK    4  A    between atoms: CB_3  and  CA_5
REMARK    5  A    between atoms: CA_5  and  N_6
REMARK    6  A    between atoms: CA_5  and  C_14
REMARK    7  A    between atoms: C_7  and  C_9
REMARK    8  A    between atoms: C_9  and  S_10
REMARK    9  A    between atoms: C_9  and  C_11
REMARK   10  A    between atoms: C_11  and  C_12
REMARK   11  A    between atoms: C_11  and  C_13
REMARK   12  A    between atoms: C_17  and  C_18
REMARK   13  A    between atoms: C_18  and  O_20
REMARK                            x       y       z     vdW  Elec       q    Type
REMARK                         _______ _______ _______ _____ _____    ______ ____
ROOT
ATOM      1  CA  ILE A   1      -0.958  12.519  20.464  0.00  0.00    +0.000 C 
ENDROOT
BRANCH   1   2
ATOM      2  C   ILE A   1      -1.807  12.338  19.156  0.00  0.00    +0.000 C 
ATOM      3  O   ILE A   1      -1.167  12.473  18.089  0.00  0.00    +0.000 OA
ATOM      4  N   UNK A   2      -3.167  12.136  19.005  0.00  0.00    +0.000 N 
ATOM      5  C   UNK A   2      -3.582  11.724  17.629  0.00  0.00    +0.000 C 
ATOM      6  C   UNK A   2      -5.098  11.479  17.663  0.00  0.00    +0.000 C 
ATOM      7  C   UNK A   2      -5.539  12.215  18.899  0.00  0.00    +0.000 C 
ATOM      8  C   UNK A   2      -6.839  11.716  19.519  0.00  0.00    +0.000 C 
ATOM      9  C   UNK A   2      -7.160  12.529  20.773  0.00  0.00    +0.000 C 
ATOM     10  C   UNK A   2      -5.945  12.688  21.701  0.00  0.00    +0.000 C 
ATOM     11  C   UNK A   2      -4.666  13.135  20.947  0.00  0.00    +0.000 C 
ATOM     12  C   UNK A   2      -4.350  12.078  19.883  0.00  0.00    +0.000 C 
BRANCH   5  13
ATOM     13  C   UNK A   2      -2.916  10.419  17.134  0.00  0.00    +0.000 C 
ATOM     14  O   UNK A   2      -3.014   9.323  17.675  0.00  0.00    +0.000 OA
BRANCH  13  15
ATOM     15  O   UNK A   2      -2.136  10.591  16.039  0.00  0.00    +0.000 OA
ATOM     16  H   UNK A   2      -1.816   9.716  15.705  0.00  0.00    +0.000 HD
ENDBRANCH  13  15
ENDBRANCH   5  13
ENDBRANCH   1   2
BRANCH   1  17
ATOM     17  N   ILE A   1      -1.536  13.526  21.355  0.00  0.00    +0.000 N 
ATOM     18  C   UNK A   0      -0.842  14.689  21.669  0.00  0.00    +0.000 C 
ATOM     19  O   UNK A   0       0.251  14.964  21.182  0.00  0.00    +0.000 OA
ATOM     20  H   ILE A   1      -2.429  13.341  21.795  0.00  0.00    +0.000 HD
BRANCH  18  21
ATOM     21  C   UNK A   0      -1.510  15.561  22.742  0.00  0.00    +0.000 C 
BRANCH  21  22
ATOM     22  C   UNK A   0      -1.970  14.734  23.968  0.00  0.00    +0.000 C 
ATOM     23  C   UNK A   0      -1.330  15.284  25.254  0.00  0.00    +0.000 C 
ATOM     24  C   UNK A   0      -3.495  14.739  24.151  0.00  0.00    +0.000 C 
ENDBRANCH  21  22
BRANCH  21  25
ATOM     25  S   UNK A   0      -2.919  16.402  21.901  0.00  0.00    +0.000 S 
ATOM     26  H   UNK A   0      -3.055  17.386  22.807  0.00  0.00    +0.000 HD
ENDBRANCH  21  25
ENDBRANCH  18  21
ENDBRANCH   1  17
BRANCH   1  27
ATOM     27  CB  ILE A   1      -0.289  11.358  21.249  0.00  0.00    +0.000 C 
ATOM     28  CG2 ILE A   1      -0.156  10.072  20.431  0.00  0.00    +0.000 C 
BRANCH  27  30
ATOM     29  CD1 ILE A   1      -0.482   9.844  23.312  0.00  0.00    +0.000 C 
ATOM     30  CG1 ILE A   1      -0.863  11.156  22.648  0.00  0.00    +0.000 C 
ENDBRANCH  27  30
ENDBRANCH   1  27
TORSDOF 9
ENDMDL
MODEL 9
REMARK VINA RESULT:      -5.6     10.491     13.183
REMARK  Name = 
REMARK  13 active torsions:
REMARK  status: ('A' for Active; 'I' for Inactive)
REMARK    1  A    between atoms: CD1_1  and  CG1_2
REMARK    2  A    between atoms: CG1_2  and  CB_3
REMARK    3  A    between atoms: CB_3  and  CG2_4
REMARK    4  A    between atoms: CB_3  and  CA_5
REMARK    5  A    between atoms: CA_5  and  N_6
REMARK    6  A    between atoms: CA_5  and  C_14
REMARK    7  A    between atoms: C_7  and  C_9
REMARK    8  A    between atoms: C_9  and  S_10
REMARK    9  A    between atoms: C_9  and  C_11
REMARK   10  A    between atoms: C_11  and  C_12
REMARK   11  A    between atoms: C_11  and  C_13
REMARK   12  A    between atoms: C_17  and  C_18
REMARK   13  A    between atoms: C_18  and  O_20
REMARK                            x       y       z     vdW  Elec       q    Type
REMARK                         _______ _______ _______ _____ _____    ______ ____
ROOT
ATOM      1  CA  ILE A   1      -2.896  12.980  21.438  0.00  0.00    +0.000 C 
ENDROOT
BRANCH   1   2
ATOM      2  C   ILE A   1      -4.242  12.587  20.732  0.00  0.00    +0.000 C 
ATOM      3  O   ILE A   1      -5.258  12.647  21.461  0.00  0.00    +0.000 OA
ATOM      4  N   UNK A   2      -4.463  12.104  19.454  0.00  0.00    +0.000 N 
ATOM      5  C   UNK A   2      -5.897  12.111  19.030  0.00  0.00    +0.000 C 
ATOM      6  C   UNK A   2      -5.946  11.613  17.578  0.00  0.00    +0.000 C 
ATOM      7  C   UNK A   2      -4.630  10.905  17.411  0.00  0.00    +0.000 C 
ATOM      8  C   UNK A   2      -4.129  10.799  15.975  0.00  0.00    +0.000 C 
ATOM      9  C   UNK A   2      -2.780  10.082  15.947  0.00  0.00    +0.000 C 
ATOM     10  C   UNK A   2      -1.802  10.622  17.003  0.00  0.00    +0.000 C 
ATOM     11  C   UNK A   2      -2.442  10.748  18.408  0.00  0.00    +0.000 C 
ATOM     12  C   UNK A   2      -3.640  11.698  18.300  0.00  0.00    +0.000 C 
BRANCH   5  13
ATOM     13  C   UNK A   2      -6.557  13.508  19.061  0.00  0.00    +0.000 C 
ATOM     14  O   UNK A   2      -6.218  14.469  18.379  0.00  0.00    +0.000 OA
BRANCH  13  15
ATOM     15  O   UNK A   2      -7.551  13.618  19.976  0.00  0.00    +0.000 OA
ATOM     16  H   UNK A   2      -7.454  12.922  20.673  0.00  0.00    +0.000 HD
ENDBRANCH  13  15
ENDBRANCH   5  13
ENDBRANCH   1   2
BRANCH   1  17
ATOM     17  N   ILE A   1      -2.459  14.327  21.069  0.00  0.00    +0.000 N 
ATOM     18  C   UNK A   0      -1.422  14.521  20.163  0.00  0.00    +0.000 C 
ATOM     19  O   UNK A   0      -0.862  13.595  19.585  0.00  0.00    +0.000 OA
ATOM     20  H   ILE A   1      -2.880  15.125  21.528  0.00  0.00    +0.000 HD
BRANCH  18  21
ATOM     21  C   UNK A   0      -0.974  15.982  20.010  0.00  0.00    +0.000 C 
BRANCH  21  22
ATOM     22  C   UNK A   0      -0.311  16.253  18.637  0.00  0.00    +0.000 C 
ATOM     23  C   UNK A   0      -0.855  17.557  18.030  0.00  0.00    +0.000 C 
ATOM     24  C   UNK A   0       1.218  16.366  18.726  0.00  0.00    +0.000 C 
ENDBRANCH  21  22
BRANCH  21  25
ATOM     25  S   UNK A   0       0.176  16.304  21.414  0.00  0.00    +0.000 S 
ATOM     26  H   UNK A   0      -0.340  17.500  21.746  0.00  0.00    +0.000 HD
ENDBRANCH  21  25
ENDBRANCH  18  21
ENDBRANCH   1  17
BRANCH   1  27
ATOM     27  CB  ILE A   1      -2.537  12.630  22.908  0.00  0.00    +0.000 C 
ATOM     28  CG2 ILE A   1      -2.744  13.797  23.876  0.00  0.00    +0.000 C 
BRANCH  27  30
ATOM     29  CD1 ILE A   1      -0.835  10.987  21.915  0.00  0.00    +0.000 C 
ATOM     30  CG1 ILE A   1      -1.195  11.921  23.057  0.00  0.00    +0.000 C 
ENDBRANCH  27  30
ENDBRANCH   1  27
TORSDOF 9
ENDMDL
