MODEL 1
REMARK VINA RESULT:      -7.4      0.000      0.000
REMARK  Name = 
REMARK  5 active torsions:
REMARK  status: ('A' for Active; 'I' for Inactive)
REMARK    1  A    between atoms: C_1  and  N_2
REMARK    2  A    between atoms: N_2  and  C_3
REMARK    3  A    between atoms: N_2  and  C_4
REMARK    4  A    between atoms: C_7  and  C_8
REMARK    5  A    between atoms: C_13  and  N_14
REMARK                            x       y       z     vdW  Elec       q    Type
REMARK                         _______ _______ _______ _____ _____    ______ ____
ROOT
ATOM      1  C   UNL     1       1.113   8.615  20.419  0.00  0.00    +0.000 A 
ATOM      2  N   UNL     1       1.313   7.414  20.938  0.00  0.00    +0.000 NA
ATOM      3  C   UNL     1       2.137   6.749  20.084  0.00  0.00    +0.000 A 
ATOM      4  C   UNL     1       2.649   5.453  20.197  0.00  0.00    +0.000 A 
ATOM      5  C   UNL     1       3.486   4.963  19.187  0.00  0.00    +0.000 A 
ATOM      6  C   UNL     1       3.803   5.730  18.062  0.00  0.00    +0.000 A 
ATOM      7  C   UNL     1       3.295   7.055  17.966  0.00  0.00    +0.000 A 
ATOM      8  C   UNL     1       2.455   7.532  18.989  0.00  0.00    +0.000 A 
ATOM      9  N   UNL     1       1.780   8.723  19.215  0.00  0.00    +0.000 N 
ATOM     10  H   UNL     1       1.737   9.502  18.580  0.00  0.00    +0.000 HD
ENDROOT
BRANCH   1  14
ATOM     11  C   UNL     1      -1.254  11.554  22.586  0.00  0.00    +0.000 A 
ATOM     12  C   UNL     1      -0.928  11.745  21.227  0.00  0.00    +0.000 A 
ATOM     13  C   UNL     1      -0.187  10.801  20.473  0.00  0.00    +0.000 A 
ATOM     14  C   UNL     1       0.251   9.615  21.064  0.00  0.00    +0.000 A 
ATOM     15  C   UNL     1      -0.086   9.407  22.404  0.00  0.00    +0.000 A 
ATOM     16  C   UNL     1      -0.821  10.345  23.141  0.00  0.00    +0.000 A 
BRANCH  11  18
ATOM     17  C   UNL     1      -3.395  12.314  23.581  0.00  0.00    +0.000 C 
ATOM     18  N   UNL     1      -1.969  12.486  23.338  0.00  0.00    +0.000 N 
ATOM     19  C   UNL     1      -1.429  13.834  23.521  0.00  0.00    +0.000 C 
ENDBRANCH  11  18
ENDBRANCH   1  14
BRANCH   6  20
ATOM     20  N   UNL     1       4.623   5.250  17.049  0.00  0.00    +0.000 N 
ATOM     21  C   UNL     1       4.443   3.931  16.415  0.00  0.00    +0.000 C 
ATOM     22  C   UNL     1       5.826   3.472  15.902  0.00  0.00    +0.000 C 
ATOM     23  O   UNL     1       6.417   4.433  15.003  0.00  0.00    +0.000 OA
ATOM     24  C   UNL     1       6.521   5.727  15.628  0.00  0.00    +0.000 C 
ATOM     25  C   UNL     1       5.148   6.233  16.087  0.00  0.00    +0.000 C 
ENDBRANCH   6  20
TORSDOF 3
ENDMDL
MODEL 2
REMARK VINA RESULT:      -7.2      1.987      2.823
REMARK  Name = 
REMARK  5 active torsions:
REMARK  status: ('A' for Active; 'I' for Inactive)
REMARK    1  A    between atoms: C_1  and  N_2
REMARK    2  A    between atoms: N_2  and  C_3
REMARK    3  A    between atoms: N_2  and  C_4
REMARK    4  A    between atoms: C_7  and  C_8
REMARK    5  A    between atoms: C_13  and  N_14
REMARK                            x       y       z     vdW  Elec       q    Type
REMARK                         _______ _______ _______ _____ _____    ______ ____
ROOT
ATOM      1  C   UNL     1       0.825   9.265  20.850  0.00  0.00    +0.000 A 
ATOM      2  N   UNL     1       1.390   9.416  19.663  0.00  0.00    +0.000 NA
ATOM      3  C   UNL     1       1.868   8.195  19.296  0.00  0.00    +0.000 A 
ATOM      4  C   UNL     1       2.534   7.835  18.122  0.00  0.00    +0.000 A 
ATOM      5  C   UNL     1       2.945   6.507  17.955  0.00  0.00    +0.000 A 
ATOM      6  C   UNL     1       2.723   5.541  18.941  0.00  0.00    +0.000 A 
ATOM      7  C   UNL     1       2.026   5.911  20.124  0.00  0.00    +0.000 A 
ATOM      8  C   UNL     1       1.620   7.250  20.277  0.00  0.00    +0.000 A 
ATOM      9  N   UNL     1       0.961   7.957  21.271  0.00  0.00    +0.000 N 
ATOM     10  H   UNL     1       0.685   7.591  22.167  0.00  0.00    +0.000 HD
ENDROOT
BRANCH   1  14
ATOM     11  C   UNL     1      -1.056  12.718  22.713  0.00  0.00    +0.000 A 
ATOM     12  C   UNL     1      -1.310  11.413  23.182  0.00  0.00    +0.000 A 
ATOM     13  C   UNL     1      -0.697  10.262  22.627  0.00  0.00    +0.000 A 
ATOM     14  C   UNL     1       0.210  10.385  21.574  0.00  0.00    +0.000 A 
ATOM     15  C   UNL     1       0.485  11.677  21.116  0.00  0.00    +0.000 A 
ATOM     16  C   UNL     1      -0.124  12.809  21.672  0.00  0.00    +0.000 A 
BRANCH  11  18
ATOM     17  C   UNL     1      -0.886  15.037  23.579  0.00  0.00    +0.000 C 
ATOM     18  N   UNL     1      -1.669  13.854  23.243  0.00  0.00    +0.000 N 
ATOM     19  C   UNL     1      -2.986  13.739  23.869  0.00  0.00    +0.000 C 
ENDBRANCH  11  18
ENDBRANCH   1  14
BRANCH   6  20
ATOM     20  N   UNL     1       3.137   4.224  18.789  0.00  0.00    +0.000 N 
ATOM     21  C   UNL     1       2.917   3.440  17.560  0.00  0.00    +0.000 C 
ATOM     22  C   UNL     1       2.855   1.951  17.967  0.00  0.00    +0.000 C 
ATOM     23  O   UNL     1       4.041   1.533  18.675  0.00  0.00    +0.000 OA
ATOM     24  C   UNL     1       4.266   2.357  19.834  0.00  0.00    +0.000 C 
ATOM     25  C   UNL     1       4.396   3.836  19.446  0.00  0.00    +0.000 C 
ENDBRANCH   6  20
TORSDOF 3
ENDMDL
MODEL 3
REMARK VINA RESULT:      -7.2      0.544      1.288
REMARK  Name = 
REMARK  5 active torsions:
REMARK  status: ('A' for Active; 'I' for Inactive)
REMARK    1  A    between atoms: C_1  and  N_2
REMARK    2  A    between atoms: N_2  and  C_3
REMARK    3  A    between atoms: N_2  and  C_4
REMARK    4  A    between atoms: C_7  and  C_8
REMARK    5  A    between atoms: C_13  and  N_14
REMARK                            x       y       z     vdW  Elec       q    Type
REMARK                         _______ _______ _______ _____ _____    ______ ____
ROOT
ATOM      1  C   UNL     1       0.867   8.909  20.463  0.00  0.00    +0.000 A 
ATOM      2  N   UNL     1       1.105   7.732  21.019  0.00  0.00    +0.000 NA
ATOM      3  C   UNL     1       1.956   7.070  20.188  0.00  0.00    +0.000 A 
ATOM      4  C   UNL     1       2.510   5.796  20.341  0.00  0.00    +0.000 A 
ATOM      5  C   UNL     1       3.368   5.305  19.349  0.00  0.00    +0.000 A 
ATOM      6  C   UNL     1       3.664   6.048  18.203  0.00  0.00    +0.000 A 
ATOM      7  C   UNL     1       3.112   7.352  18.065  0.00  0.00    +0.000 A 
ATOM      8  C   UNL     1       2.252   7.831  19.071  0.00  0.00    +0.000 A 
ATOM      9  N   UNL     1       1.536   9.003  19.259  0.00  0.00    +0.000 N 
ATOM     10  H   UNL     1       1.469   9.762  18.601  0.00  0.00    +0.000 HD
ENDROOT
BRANCH   1  14
ATOM     11  C   UNL     1      -1.599  11.841  22.526  0.00  0.00    +0.000 A 
ATOM     12  C   UNL     1      -1.322  11.967  21.149  0.00  0.00    +0.000 A 
ATOM     13  C   UNL     1      -0.550  11.022  20.430  0.00  0.00    +0.000 A 
ATOM     14  C   UNL     1      -0.031   9.898  21.075  0.00  0.00    +0.000 A 
ATOM     15  C   UNL     1      -0.320   9.752  22.435  0.00  0.00    +0.000 A 
ATOM     16  C   UNL     1      -1.085  10.692  23.137  0.00  0.00    +0.000 A 
BRANCH  11  18
ATOM     17  C   UNL     1      -1.733  14.009  23.725  0.00  0.00    +0.000 C 
ATOM     18  N   UNL     1      -2.344  12.776  23.245  0.00  0.00    +0.000 N 
ATOM     19  C   UNL     1      -3.587  12.362  23.897  0.00  0.00    +0.000 C 
ENDBRANCH  11  18
ENDBRANCH   1  14
BRANCH   6  20
ATOM     20  N   UNL     1       4.505   5.566  17.209  0.00  0.00    +0.000 N 
ATOM     21  C   UNL     1       5.249   6.437  16.281  0.00  0.00    +0.000 C 
ATOM     22  C   UNL     1       5.480   5.636  14.980  0.00  0.00    +0.000 C 
ATOM     23  O   UNL     1       6.163   4.390  15.224  0.00  0.00    +0.000 OA
ATOM     24  C   UNL     1       5.446   3.588  16.182  0.00  0.00    +0.000 C 
ATOM     25  C   UNL     1       5.263   4.339  17.507  0.00  0.00    +0.000 C 
ENDBRANCH   6  20
TORSDOF 3
ENDMDL
MODEL 4
REMARK VINA RESULT:      -7.2      3.319      9.497
REMARK  Name = 
REMARK  5 active torsions:
REMARK  status: ('A' for Active; 'I' for Inactive)
REMARK    1  A    between atoms: C_1  and  N_2
REMARK    2  A    between atoms: N_2  and  C_3
REMARK    3  A    between atoms: N_2  and  C_4
REMARK    4  A    between atoms: C_7  and  C_8
REMARK    5  A    between atoms: C_13  and  N_14
REMARK                            x       y       z     vdW  Elec       q    Type
REMARK                         _______ _______ _______ _____ _____    ______ ____
ROOT
ATOM      1  C   UNL     1       2.179   7.734  19.056  0.00  0.00    +0.000 A 
ATOM      2  N   UNL     1       1.879   7.447  20.312  0.00  0.00    +0.000 NA
ATOM      3  C   UNL     1       1.133   8.482  20.785  0.00  0.00    +0.000 A 
ATOM      4  C   UNL     1       0.566   8.642  22.053  0.00  0.00    +0.000 A 
ATOM      5  C   UNL     1      -0.169   9.802  22.326  0.00  0.00    +0.000 A 
ATOM      6  C   UNL     1      -0.329  10.811  21.371  0.00  0.00    +0.000 A 
ATOM      7  C   UNL     1       0.234  10.630  20.077  0.00  0.00    +0.000 A 
ATOM      8  C   UNL     1       0.970   9.459  19.819  0.00  0.00    +0.000 A 
ATOM      9  N   UNL     1       1.658   8.967  18.719  0.00  0.00    +0.000 N 
ATOM     10  H   UNL     1       1.800   9.455  17.851  0.00  0.00    +0.000 HD
ENDROOT
BRANCH   1  14
ATOM     11  C   UNL     1       4.851   5.283  16.650  0.00  0.00    +0.000 A 
ATOM     12  C   UNL     1       3.899   4.692  17.506  0.00  0.00    +0.000 A 
ATOM     13  C   UNL     1       2.989   5.449  18.284  0.00  0.00    +0.000 A 
ATOM     14  C   UNL     1       2.998   6.844  18.222  0.00  0.00    +0.000 A 
ATOM     15  C   UNL     1       3.923   7.438  17.359  0.00  0.00    +0.000 A 
ATOM     16  C   UNL     1       4.818   6.681  16.592  0.00  0.00    +0.000 A 
BRANCH  11  18
ATOM     17  C   UNL     1       7.139   4.374  16.340  0.00  0.00    +0.000 C 
ATOM     18  N   UNL     1       5.762   4.545  15.893  0.00  0.00    +0.000 N 
ATOM     19  C   UNL     1       5.497   4.309  14.474  0.00  0.00    +0.000 C 
ENDBRANCH  11  18
ENDBRANCH   1  14
BRANCH   6  20
ATOM     20  N   UNL     1      -1.045  11.970  21.636  0.00  0.00    +0.000 N 
ATOM     21  C   UNL     1      -1.819  12.698  20.615  0.00  0.00    +0.000 C 
ATOM     22  C   UNL     1      -1.876  14.180  21.048  0.00  0.00    +0.000 C 
ATOM     23  O   UNL     1      -2.434  14.338  22.369  0.00  0.00    +0.000 OA
ATOM     24  C   UNL     1      -1.697  13.564  23.335  0.00  0.00    +0.000 C 
ATOM     25  C   UNL     1      -1.683  12.077  22.959  0.00  0.00    +0.000 C 
ENDBRANCH   6  20
TORSDOF 3
ENDMDL
MODEL 5
REMARK VINA RESULT:      -7.2      1.988      2.604
REMARK  Name = 
REMARK  5 active torsions:
REMARK  status: ('A' for Active; 'I' for Inactive)
REMARK    1  A    between atoms: C_1  and  N_2
REMARK    2  A    between atoms: N_2  and  C_3
REMARK    3  A    between atoms: N_2  and  C_4
REMARK    4  A    between atoms: C_7  and  C_8
REMARK    5  A    between atoms: C_13  and  N_14
REMARK                            x       y       z     vdW  Elec       q    Type
REMARK                         _______ _______ _______ _____ _____    ______ ____
ROOT
ATOM      1  C   UNL     1       0.854   9.361  20.601  0.00  0.00    +0.000 A 
ATOM      2  N   UNL     1       1.469   9.451  19.433  0.00  0.00    +0.000 NA
ATOM      3  C   UNL     1       1.950   8.211  19.146  0.00  0.00    +0.000 A 
ATOM      4  C   UNL     1       2.662   7.790  18.019  0.00  0.00    +0.000 A 
ATOM      5  C   UNL     1       3.067   6.452  17.933  0.00  0.00    +0.000 A 
ATOM      6  C   UNL     1       2.795   5.536  18.954  0.00  0.00    +0.000 A 
ATOM      7  C   UNL     1       2.052   5.969  20.088  0.00  0.00    +0.000 A 
ATOM      8  C   UNL     1       1.653   7.316  20.159  0.00  0.00    +0.000 A 
ATOM      9  N   UNL     1       0.959   8.075  21.090  0.00  0.00    +0.000 N 
ATOM     10  H   UNL     1       0.643   7.754  21.990  0.00  0.00    +0.000 HD
ENDROOT
BRANCH   1  14
ATOM     11  C   UNL     1      -0.963  12.659  22.784  0.00  0.00    +0.000 A 
ATOM     12  C   UNL     1      -0.133  12.897  21.669  0.00  0.00    +0.000 A 
ATOM     13  C   UNL     1       0.455  11.855  20.911  0.00  0.00    +0.000 A 
ATOM     14  C   UNL     1       0.219  10.520  21.244  0.00  0.00    +0.000 A 
ATOM     15  C   UNL     1      -0.621  10.274  22.333  0.00  0.00    +0.000 A 
ATOM     16  C   UNL     1      -1.199  11.311  23.076  0.00  0.00    +0.000 A 
BRANCH  11  18
ATOM     17  C   UNL     1      -2.949  13.657  23.886  0.00  0.00    +0.000 C 
ATOM     18  N   UNL     1      -1.532  13.680  23.546  0.00  0.00    +0.000 N 
ATOM     19  C   UNL     1      -0.853  14.973  23.643  0.00  0.00    +0.000 C 
ENDBRANCH  11  18
ENDBRANCH   1  14
BRANCH   6  20
ATOM     20  N   UNL     1       3.202   4.211  18.883  0.00  0.00    +0.000 N 
ATOM     21  C   UNL     1       2.908   3.331  17.737  0.00  0.00    +0.000 C 
ATOM     22  C   UNL     1       2.877   1.880  18.266  0.00  0.00    +0.000 C 
ATOM     23  O   UNL     1       4.105   1.517  18.930  0.00  0.00    +0.000 OA
ATOM     24  C   UNL     1       4.400   2.432  20.003  0.00  0.00    +0.000 C 
ATOM     25  C   UNL     1       4.501   3.874  19.490  0.00  0.00    +0.000 C 
ENDBRANCH   6  20
TORSDOF 3
ENDMDL
MODEL 6
REMARK VINA RESULT:      -7.2      1.907      2.930
REMARK  Name = 
REMARK  5 active torsions:
REMARK  status: ('A' for Active; 'I' for Inactive)
REMARK    1  A    between atoms: C_1  and  N_2
REMARK    2  A    between atoms: N_2  and  C_3
REMARK    3  A    between atoms: N_2  and  C_4
REMARK    4  A    between atoms: C_7  and  C_8
REMARK    5  A    between atoms: C_13  and  N_14
REMARK                            x       y       z     vdW  Elec       q    Type
REMARK                         _______ _______ _______ _____ _____    ______ ____
ROOT
ATOM      1  C   UNL     1       0.488  10.519  20.784  0.00  0.00    +0.000 A 
ATOM      2  N   UNL     1       0.842  10.666  19.518  0.00  0.00    +0.000 NA
ATOM      3  C   UNL     1       1.429   9.499  19.135  0.00  0.00    +0.000 A 
ATOM      4  C   UNL     1       1.957   9.156  17.888  0.00  0.00    +0.000 A 
ATOM      5  C   UNL     1       2.523   7.887  17.717  0.00  0.00    +0.000 A 
ATOM      6  C   UNL     1       2.591   6.967  18.767  0.00  0.00    +0.000 A 
ATOM      7  C   UNL     1       2.033   7.317  20.027  0.00  0.00    +0.000 A 
ATOM      8  C   UNL     1       1.468   8.596  20.183  0.00  0.00    +0.000 A 
ATOM      9  N   UNL     1       0.870   9.272  21.237  0.00  0.00    +0.000 N 
ATOM     10  H   UNL     1       0.787   8.931  22.180  0.00  0.00    +0.000 HD
ENDROOT
BRANCH   1  14
ATOM     11  C   UNL     1      -1.419  13.517  23.297  0.00  0.00    +0.000 A 
ATOM     12  C   UNL     1      -0.473  13.886  22.319  0.00  0.00    +0.000 A 
ATOM     13  C   UNL     1       0.150  12.949  21.459  0.00  0.00    +0.000 A 
ATOM     14  C   UNL     1      -0.166  11.592  21.546  0.00  0.00    +0.000 A 
ATOM     15  C   UNL     1      -1.120  11.219  22.497  0.00  0.00    +0.000 A 
ATOM     16  C   UNL     1      -1.732  12.153  23.343  0.00  0.00    +0.000 A 
BRANCH  11  18
ATOM     17  C   UNL     1      -1.223  15.368  24.937  0.00  0.00    +0.000 C 
ATOM     18  N   UNL     1      -2.024  14.431  24.159  0.00  0.00    +0.000 N 
ATOM     19  C   UNL     1      -3.389  14.188  24.628  0.00  0.00    +0.000 C 
ENDBRANCH  11  18
ENDBRANCH   1  14
BRANCH   6  20
ATOM     20  N   UNL     1       3.161   5.710  18.610  0.00  0.00    +0.000 N 
ATOM     21  C   UNL     1       4.365   5.268  19.335  0.00  0.00    +0.000 C 
ATOM     22  C   UNL     1       5.066   4.203  18.462  0.00  0.00    +0.000 C 
ATOM     23  O   UNL     1       4.189   3.103  18.141  0.00  0.00    +0.000 OA
ATOM     24  C   UNL     1       2.991   3.572  17.491  0.00  0.00    +0.000 C 
ATOM     25  C   UNL     1       2.244   4.583  18.370  0.00  0.00    +0.000 C 
ENDBRANCH   6  20
TORSDOF 3
ENDMDL
MODEL 7
REMARK VINA RESULT:      -7.1      3.471      9.618
REMARK  Name = 
REMARK  5 active torsions:
REMARK  status: ('A' for Active; 'I' for Inactive)
REMARK    1  A    between atoms: C_1  and  N_2
REMARK    2  A    between atoms: N_2  and  C_3
REMARK    3  A    between atoms: N_2  and  C_4
REMARK    4  A    between atoms: C_7  and  C_8
REMARK    5  A    between atoms: C_13  and  N_14
REMARK                            x       y       z     vdW  Elec       q    Type
REMARK                         _______ _______ _______ _____ _____    ______ ____
ROOT
ATOM      1  C   UNL     1       1.400   8.400  19.986  0.00  0.00    +0.000 A 
ATOM      2  N   UNL     1       1.159   8.173  21.266  0.00  0.00    +0.000 NA
ATOM      3  C   UNL     1       0.387   9.202  21.710  0.00  0.00    +0.000 A 
ATOM      4  C   UNL     1      -0.139   9.411  22.988  0.00  0.00    +0.000 A 
ATOM      5  C   UNL     1      -0.912  10.554  23.225  0.00  0.00    +0.000 A 
ATOM      6  C   UNL     1      -1.150  11.499  22.223  0.00  0.00    +0.000 A 
ATOM      7  C   UNL     1      -0.628  11.268  20.920  0.00  0.00    +0.000 A 
ATOM      8  C   UNL     1       0.146  10.115  20.698  0.00  0.00    +0.000 A 
ATOM      9  N   UNL     1       0.814   9.590  19.601  0.00  0.00    +0.000 N 
ATOM     10  H   UNL     1       0.903  10.032  18.702  0.00  0.00    +0.000 HD
ENDROOT
BRANCH   1  14
ATOM     11  C   UNL     1       4.050   5.964  17.540  0.00  0.00    +0.000 A 
ATOM     12  C   UNL     1       3.429   5.431  18.688  0.00  0.00    +0.000 A 
ATOM     13  C   UNL     1       2.536   6.177  19.497  0.00  0.00    +0.000 A 
ATOM     14  C   UNL     1       2.225   7.498  19.170  0.00  0.00    +0.000 A 
ATOM     15  C   UNL     1       2.818   8.028  18.021  0.00  0.00    +0.000 A 
ATOM     16  C   UNL     1       3.699   7.282  17.227  0.00  0.00    +0.000 A 
BRANCH  11  18
ATOM     17  C   UNL     1       5.510   5.824  15.539  0.00  0.00    +0.000 C 
ATOM     18  N   UNL     1       4.943   5.242  16.749  0.00  0.00    +0.000 N 
ATOM     19  C   UNL     1       4.989   3.783  16.859  0.00  0.00    +0.000 C 
ENDBRANCH  11  18
ENDBRANCH   1  14
BRANCH   6  20
ATOM     20  N   UNL     1      -1.906  12.641  22.452  0.00  0.00    +0.000 N 
ATOM     21  C   UNL     1      -3.375  12.634  22.566  0.00  0.00    +0.000 C 
ATOM     22  C   UNL     1      -3.879  14.028  22.130  0.00  0.00    +0.000 C 
ATOM     23  O   UNL     1      -3.279  15.087  22.903  0.00  0.00    +0.000 OA
ATOM     24  C   UNL     1      -1.841  15.031  22.825  0.00  0.00    +0.000 C 
ATOM     25  C   UNL     1      -1.313  13.676  23.315  0.00  0.00    +0.000 C 
ENDBRANCH   6  20
TORSDOF 3
ENDMDL
MODEL 8
REMARK VINA RESULT:      -7.1      3.312      9.464
REMARK  Name = 
REMARK  5 active torsions:
REMARK  status: ('A' for Active; 'I' for Inactive)
REMARK    1  A    between atoms: C_1  and  N_2
REMARK    2  A    between atoms: N_2  and  C_3
REMARK    3  A    between atoms: N_2  and  C_4
REMARK    4  A    between atoms: C_7  and  C_8
REMARK    5  A    between atoms: C_13  and  N_14
REMARK                            x       y       z     vdW  Elec       q    Type
REMARK                         _______ _______ _______ _____ _____    ______ ____
ROOT
ATOM      1  C   UNL     1       2.185   7.762  19.035  0.00  0.00    +0.000 A 
ATOM      2  N   UNL     1       1.942   7.502  20.309  0.00  0.00    +0.000 NA
ATOM      3  C   UNL     1       1.176   8.524  20.779  0.00  0.00    +0.000 A 
ATOM      4  C   UNL     1       0.650   8.702  22.062  0.00  0.00    +0.000 A 
ATOM      5  C   UNL     1      -0.117   9.843  22.329  0.00  0.00    +0.000 A 
ATOM      6  C   UNL     1      -0.349  10.815  21.352  0.00  0.00    +0.000 A 
ATOM      7  C   UNL     1       0.172  10.616  20.043  0.00  0.00    +0.000 A 
ATOM      8  C   UNL     1       0.941   9.464  19.791  0.00  0.00    +0.000 A 
ATOM      9  N   UNL     1       1.606   8.964  18.682  0.00  0.00    +0.000 N 
ATOM     10  H   UNL     1       1.698   9.430  17.795  0.00  0.00    +0.000 HD
ENDROOT
BRANCH   1  14
ATOM     11  C   UNL     1       4.865   5.315  16.632  0.00  0.00    +0.000 A 
ATOM     12  C   UNL     1       3.864   4.725  17.431  0.00  0.00    +0.000 A 
ATOM     13  C   UNL     1       2.950   5.482  18.205  0.00  0.00    +0.000 A 
ATOM     14  C   UNL     1       3.005   6.877  18.197  0.00  0.00    +0.000 A 
ATOM     15  C   UNL     1       3.979   7.472  17.390  0.00  0.00    +0.000 A 
ATOM     16  C   UNL     1       4.878   6.715  16.627  0.00  0.00    +0.000 A 
BRANCH  11  18
ATOM     17  C   UNL     1       7.148   4.390  16.343  0.00  0.00    +0.000 C 
ATOM     18  N   UNL     1       5.779   4.577  15.880  0.00  0.00    +0.000 N 
ATOM     19  C   UNL     1       5.530   4.355  14.455  0.00  0.00    +0.000 C 
ENDBRANCH  11  18
ENDBRANCH   1  14
BRANCH   6  20
ATOM     20  N   UNL     1      -1.098  11.955  21.610  0.00  0.00    +0.000 N 
ATOM     21  C   UNL     1      -1.606  12.308  22.948  0.00  0.00    +0.000 C 
ATOM     22  C   UNL     1      -2.880  13.160  22.749  0.00  0.00    +0.000 C 
ATOM     23  O   UNL     1      -2.631  14.325  21.936  0.00  0.00    +0.000 OA
ATOM     24  C   UNL     1      -2.076  13.954  20.660  0.00  0.00    +0.000 C 
ATOM     25  C   UNL     1      -0.773  13.162  20.832  0.00  0.00    +0.000 C 
ENDBRANCH   6  20
TORSDOF 3
ENDMDL
MODEL 9
REMARK VINA RESULT:      -7.1      1.834      3.004
REMARK  Name = 
REMARK  5 active torsions:
REMARK  status: ('A' for Active; 'I' for Inactive)
REMARK    1  A    between atoms: C_1  and  N_2
REMARK    2  A    between atoms: N_2  and  C_3
REMARK    3  A    between atoms: N_2  and  C_4
REMARK    4  A    between atoms: C_7  and  C_8
REMARK    5  A    between atoms: C_13  and  N_14
REMARK                            x       y       z     vdW  Elec       q    Type
REMARK                         _______ _______ _______ _____ _____    ______ ____
ROOT
ATOM      1  C   UNL     1       0.391  10.327  21.054  0.00  0.00    +0.000 A 
ATOM      2  N   UNL     1       0.658  10.526  19.773  0.00  0.00    +0.000 NA
ATOM      3  C   UNL     1       1.275   9.400  19.321  0.00  0.00    +0.000 A 
ATOM      4  C   UNL     1       1.741   9.118  18.033  0.00  0.00    +0.000 A 
ATOM      5  C   UNL     1       2.354   7.883  17.790  0.00  0.00    +0.000 A 
ATOM      6  C   UNL     1       2.530   6.938  18.805  0.00  0.00    +0.000 A 
ATOM      7  C   UNL     1       2.034   7.226  20.107  0.00  0.00    +0.000 A 
ATOM      8  C   UNL     1       1.420   8.471  20.336  0.00  0.00    +0.000 A 
ATOM      9  N   UNL     1       0.857   9.087  21.444  0.00  0.00    +0.000 N 
ATOM     10  H   UNL     1       0.849   8.717  22.379  0.00  0.00    +0.000 HD
ENDROOT
BRANCH   1  14
ATOM     11  C   UNL     1      -1.578  13.522  23.257  0.00  0.00    +0.000 A 
ATOM     12  C   UNL     1      -1.909  12.170  23.488  0.00  0.00    +0.000 A 
ATOM     13  C   UNL     1      -1.274  11.097  22.817  0.00  0.00    +0.000 A 
ATOM     14  C   UNL     1      -0.265  11.345  21.886  0.00  0.00    +0.000 A 
ATOM     15  C   UNL     1       0.087  12.680  21.667  0.00  0.00    +0.000 A 
ATOM     16  C   UNL     1      -0.546  13.736  22.336  0.00  0.00    +0.000 A 
BRANCH  11  18
ATOM     17  C   UNL     1      -1.436  15.672  24.486  0.00  0.00    +0.000 C 
ATOM     18  N   UNL     1      -2.211  14.585  23.901  0.00  0.00    +0.000 N 
ATOM     19  C   UNL     1      -3.584  14.424  24.382  0.00  0.00    +0.000 C 
ENDBRANCH  11  18
ENDBRANCH   1  14
BRANCH   6  20
ATOM     20  N   UNL     1       3.147   5.716  18.576  0.00  0.00    +0.000 N 
ATOM     21  C   UNL     1       4.334   5.253  19.318  0.00  0.00    +0.000 C 
ATOM     22  C   UNL     1       5.105   4.283  18.395  0.00  0.00    +0.000 C 
ATOM     23  O   UNL     1       4.280   3.186  17.950  0.00  0.00    +0.000 OA
ATOM     24  C   UNL     1       3.096   3.669  17.287  0.00  0.00    +0.000 C 
ATOM     25  C   UNL     1       2.279   4.584  18.208  0.00  0.00    +0.000 C 
ENDBRANCH   6  20
TORSDOF 3
ENDMDL
