MODEL 1
REMARK VINA RESULT:      -7.2      0.000      0.000
REMARK  Name = 
REMARK  4 active torsions:
REMARK  status: ('A' for Active; 'I' for Inactive)
REMARK    1  A    between atoms: C_1  and  C_2
REMARK    2  A    between atoms: C_5  and  C_7
REMARK    3  A    between atoms: C_10  and  N_11
REMARK    4  A    between atoms: C_12  and  C_13
REMARK                            x       y       z     vdW  Elec       q    Type
REMARK                         _______ _______ _______ _____ _____    ______ ____
ROOT
ATOM      1  C   UNL     1       2.170   4.457  21.021  0.00  0.00    +0.000 C 
ATOM      2  C   UNL     1       2.107   5.835  20.467  0.00  0.00    +0.000 A 
ATOM      3  N   UNL     1       1.340   6.749  21.070  0.00  0.00    +0.000 NA
ATOM      4  N   UNL     1       1.414   7.851  20.269  0.00  0.00    +0.000 N 
ATOM      5  C   UNL     1       0.663   9.005  20.602  0.00  0.00    +0.000 C 
ATOM      6  O   UNL     1       0.706   9.983  19.849  0.00  0.00    +0.000 OA
ATOM      7  C   UNL     1       2.260   7.637  19.176  0.00  0.00    +0.000 A 
ATOM      8  C   UNL     1       2.735   6.342  19.297  0.00  0.00    +0.000 A 
ENDROOT
BRANCH   8   9
ATOM      9  C   UNL     1       3.601   5.668  18.337  0.00  0.00    +0.000 A 
ATOM     10  C   UNL     1       3.143   4.553  17.621  0.00  0.00    +0.000 A 
ATOM     11  C   UNL     1       3.945   3.958  16.642  0.00  0.00    +0.000 A 
ATOM     12  C   UNL     1       5.227   4.452  16.387  0.00  0.00    +0.000 A 
ATOM     13 CL   UNL     1       6.156   3.688  15.149  0.00  0.00    +0.000 Cl
ATOM     14  C   UNL     1       5.705   5.543  17.117  0.00  0.00    +0.000 A 
ATOM     15 CL   UNL     1       7.289   6.195  16.886  0.00  0.00    +0.000 Cl
ATOM     16  C   UNL     1       4.888   6.154  18.074  0.00  0.00    +0.000 A 
ENDBRANCH   8   9
BRANCH   5  17
ATOM     17  C   UNL     1      -0.200   9.017  21.824  0.00  0.00    +0.000 C 
ATOM     18  C   UNL     1       0.341   9.462  23.166  0.00  0.00    +0.000 C 
ATOM     19  C   UNL     1      -0.613  10.344  22.417  0.00  0.00    +0.000 C 
ENDBRANCH   5  17
BRANCH   7  20
ATOM     20  N   UNL     1       2.488   8.583  18.233  0.00  0.00    +0.000 N 
ATOM     21  H   UNL     1       1.933   8.618  17.371  0.00  0.00    +0.000 HD
ATOM     22  H   UNL     1       3.268   9.231  18.263  0.00  0.00    +0.000 HD
ENDBRANCH   7  20
TORSDOF 3
ENDMDL
MODEL 2
REMARK VINA RESULT:      -6.6      3.990      5.336
REMARK  Name = 
REMARK  4 active torsions:
REMARK  status: ('A' for Active; 'I' for Inactive)
REMARK    1  A    between atoms: C_1  and  C_2
REMARK    2  A    between atoms: C_5  and  C_7
REMARK    3  A    between atoms: C_10  and  N_11
REMARK    4  A    between atoms: C_12  and  C_13
REMARK                            x       y       z     vdW  Elec       q    Type
REMARK                         _______ _______ _______ _____ _____    ______ ____
ROOT
ATOM      1  C   UNL     1       4.352   6.987  17.332  0.00  0.00    +0.000 C 
ATOM      2  C   UNL     1       4.141   5.530  17.537  0.00  0.00    +0.000 A 
ATOM      3  N   UNL     1       3.530   5.106  18.648  0.00  0.00    +0.000 NA
ATOM      4  N   UNL     1       3.591   3.745  18.583  0.00  0.00    +0.000 N 
ATOM      5  C   UNL     1       3.068   2.974  19.649  0.00  0.00    +0.000 C 
ATOM      6  O   UNL     1       3.165   1.743  19.599  0.00  0.00    +0.000 OA
ATOM      7  C   UNL     1       4.214   3.313  17.408  0.00  0.00    +0.000 A 
ATOM      8  C   UNL     1       4.560   4.455  16.706  0.00  0.00    +0.000 A 
ENDROOT
BRANCH   8   9
ATOM      9  C   UNL     1       5.294   4.483  15.447  0.00  0.00    +0.000 A 
ATOM     10  C   UNL     1       6.600   4.990  15.391  0.00  0.00    +0.000 A 
ATOM     11  C   UNL     1       7.333   4.939  14.201  0.00  0.00    +0.000 A 
ATOM     12  C   UNL     1       6.758   4.408  13.043  0.00  0.00    +0.000 A 
ATOM     13 CL   UNL     1       7.724   4.354  11.613  0.00  0.00    +0.000 Cl
ATOM     14  C   UNL     1       5.446   3.929  13.080  0.00  0.00    +0.000 A 
ATOM     15 CL   UNL     1       4.651   3.286  11.686  0.00  0.00    +0.000 Cl
ATOM     16  C   UNL     1       4.728   3.954  14.280  0.00  0.00    +0.000 A 
ENDBRANCH   8   9
BRANCH   5  17
ATOM     17  C   UNL     1       2.450   3.645  20.834  0.00  0.00    +0.000 C 
ATOM     18  C   UNL     1       1.003   4.089  20.822  0.00  0.00    +0.000 C 
ATOM     19  C   UNL     1       1.410   2.900  21.640  0.00  0.00    +0.000 C 
ENDBRANCH   5  17
BRANCH   7  20
ATOM     20  N   UNL     1       4.401   2.002  17.119  0.00  0.00    +0.000 N 
ATOM     21  H   UNL     1       3.788   1.279  17.510  0.00  0.00    +0.000 HD
ATOM     22  H   UNL     1       5.199   1.649  16.601  0.00  0.00    +0.000 HD
ENDBRANCH   7  20
TORSDOF 3
ENDMDL
MODEL 3
REMARK VINA RESULT:      -6.5      3.992      7.155
REMARK  Name = 
REMARK  4 active torsions:
REMARK  status: ('A' for Active; 'I' for Inactive)
REMARK    1  A    between atoms: C_1  and  C_2
REMARK    2  A    between atoms: C_5  and  C_7
REMARK    3  A    between atoms: C_10  and  N_11
REMARK    4  A    between atoms: C_12  and  C_13
REMARK                            x       y       z     vdW  Elec       q    Type
REMARK                         _______ _______ _______ _____ _____    ______ ____
ROOT
ATOM      1  C   UNL     1       2.064   3.545  17.601  0.00  0.00    +0.000 C 
ATOM      2  C   UNL     1       3.140   4.501  17.228  0.00  0.00    +0.000 A 
ATOM      3  N   UNL     1       4.061   4.133  16.332  0.00  0.00    +0.000 NA
ATOM      4  N   UNL     1       4.948   5.170  16.296  0.00  0.00    +0.000 N 
ATOM      5  C   UNL     1       6.092   5.078  15.468  0.00  0.00    +0.000 C 
ATOM      6  O   UNL     1       6.909   6.004  15.473  0.00  0.00    +0.000 OA
ATOM      7  C   UNL     1       4.560   6.208  17.149  0.00  0.00    +0.000 A 
ATOM      8  C   UNL     1       3.379   5.803  17.748  0.00  0.00    +0.000 A 
ENDROOT
BRANCH   8   9
ATOM      9  C   UNL     1       2.650   6.547  18.767  0.00  0.00    +0.000 A 
ATOM     10  C   UNL     1       2.373   5.971  20.014  0.00  0.00    +0.000 A 
ATOM     11  C   UNL     1       1.747   6.715  21.019  0.00  0.00    +0.000 A 
ATOM     12  C   UNL     1       1.362   8.037  20.779  0.00  0.00    +0.000 A 
ATOM     13 CL   UNL     1       0.614   8.907  22.069  0.00  0.00    +0.000 Cl
ATOM     14  C   UNL     1       1.605   8.611  19.529  0.00  0.00    +0.000 A 
ATOM     15 CL   UNL     1       1.132  10.227  19.140  0.00  0.00    +0.000 Cl
ATOM     16  C   UNL     1       2.259   7.873  18.537  0.00  0.00    +0.000 A 
ENDBRANCH   8   9
BRANCH   5  17
ATOM     17  C   UNL     1       6.326   3.857  14.636  0.00  0.00    +0.000 C 
ATOM     18  C   UNL     1       5.562   3.621  13.351  0.00  0.00    +0.000 C 
ATOM     19  C   UNL     1       7.012   4.002  13.297  0.00  0.00    +0.000 C 
ENDBRANCH   5  17
BRANCH   7  20
ATOM     20  N   UNL     1       5.284   7.344  17.294  0.00  0.00    +0.000 N 
ATOM     21  H   UNL     1       4.966   8.103  17.906  0.00  0.00    +0.000 HD
ATOM     22  H   UNL     1       6.108   7.560  16.741  0.00  0.00    +0.000 HD
ENDBRANCH   7  20
TORSDOF 3
ENDMDL
MODEL 4
REMARK VINA RESULT:      -6.5      3.879      5.153
REMARK  Name = 
REMARK  4 active torsions:
REMARK  status: ('A' for Active; 'I' for Inactive)
REMARK    1  A    between atoms: C_1  and  C_2
REMARK    2  A    between atoms: C_5  and  C_7
REMARK    3  A    between atoms: C_10  and  N_11
REMARK    4  A    between atoms: C_12  and  C_13
REMARK                            x       y       z     vdW  Elec       q    Type
REMARK                         _______ _______ _______ _____ _____    ______ ____
ROOT
ATOM      1  C   UNL     1       3.538   6.909  17.763  0.00  0.00    +0.000 C 
ATOM      2  C   UNL     1       3.490   5.424  17.820  0.00  0.00    +0.000 A 
ATOM      3  N   UNL     1       2.715   4.828  18.731  0.00  0.00    +0.000 NA
ATOM      4  N   UNL     1       2.975   3.496  18.594  0.00  0.00    +0.000 N 
ATOM      5  C   UNL     1       2.343   2.571  19.460  0.00  0.00    +0.000 C 
ATOM      6  O   UNL     1       2.616   1.371  19.354  0.00  0.00    +0.000 OA
ATOM      7  C   UNL     1       3.893   3.254  17.567  0.00  0.00    +0.000 A 
ATOM      8  C   UNL     1       4.224   4.490  17.039  0.00  0.00    +0.000 A 
ENDROOT
BRANCH   8   9
ATOM      9  C   UNL     1       5.205   4.723  15.986  0.00  0.00    +0.000 A 
ATOM     10  C   UNL     1       6.299   5.573  16.203  0.00  0.00    +0.000 A 
ATOM     11  C   UNL     1       7.283   5.730  15.222  0.00  0.00    +0.000 A 
ATOM     12  C   UNL     1       7.170   5.063  13.999  0.00  0.00    +0.000 A 
ATOM     13 CL   UNL     1       8.431   5.282  12.840  0.00  0.00    +0.000 Cl
ATOM     14  C   UNL     1       6.068   4.239  13.761  0.00  0.00    +0.000 A 
ATOM     15 CL   UNL     1       5.837   3.405  12.265  0.00  0.00    +0.000 Cl
ATOM     16  C   UNL     1       5.102   4.061  14.757  0.00  0.00    +0.000 A 
ENDBRANCH   8   9
BRANCH   5  17
ATOM     17  C   UNL     1       1.393   3.049  20.512  0.00  0.00    +0.000 C 
ATOM     18  C   UNL     1       1.399   2.459  21.906  0.00  0.00    +0.000 C 
ATOM     19  C   UNL     1       1.932   3.843  21.680  0.00  0.00    +0.000 C 
ENDBRANCH   5  17
BRANCH   7  20
ATOM     20  N   UNL     1       4.317   2.008  17.245  0.00  0.00    +0.000 N 
ATOM     21  H   UNL     1       5.239   1.668  17.540  0.00  0.00    +0.000 HD
ATOM     22  H   UNL     1       3.815   1.387  16.620  0.00  0.00    +0.000 HD
ENDBRANCH   7  20
TORSDOF 3
ENDMDL
MODEL 5
REMARK VINA RESULT:      -6.2      0.881      1.578
REMARK  Name = 
REMARK  4 active torsions:
REMARK  status: ('A' for Active; 'I' for Inactive)
REMARK    1  A    between atoms: C_1  and  C_2
REMARK    2  A    between atoms: C_5  and  C_7
REMARK    3  A    between atoms: C_10  and  N_11
REMARK    4  A    between atoms: C_12  and  C_13
REMARK                            x       y       z     vdW  Elec       q    Type
REMARK                         _______ _______ _______ _____ _____    ______ ____
ROOT
ATOM      1  C   UNL     1       2.025   4.727  20.950  0.00  0.00    +0.000 C 
ATOM      2  C   UNL     1       1.914   6.128  20.462  0.00  0.00    +0.000 A 
ATOM      3  N   UNL     1       1.166   7.001  21.143  0.00  0.00    +0.000 NA
ATOM      4  N   UNL     1       1.184   8.139  20.391  0.00  0.00    +0.000 N 
ATOM      5  C   UNL     1       0.435   9.264  20.811  0.00  0.00    +0.000 C 
ATOM      6  O   UNL     1       0.426  10.275  20.102  0.00  0.00    +0.000 OA
ATOM      7  C   UNL     1       1.978   7.988  19.249  0.00  0.00    +0.000 A 
ATOM      8  C   UNL     1       2.477   6.697  19.287  0.00  0.00    +0.000 A 
ENDROOT
BRANCH   8   9
ATOM      9  C   UNL     1       3.303   6.080  18.257  0.00  0.00    +0.000 A 
ATOM     10  C   UNL     1       4.147   6.860  17.454  0.00  0.00    +0.000 A 
ATOM     11  C   UNL     1       5.000   6.258  16.524  0.00  0.00    +0.000 A 
ATOM     12  C   UNL     1       4.999   4.870  16.362  0.00  0.00    +0.000 A 
ATOM     13 CL   UNL     1       6.092   4.188  15.214  0.00  0.00    +0.000 Cl
ATOM     14  C   UNL     1       4.139   4.086  17.136  0.00  0.00    +0.000 A 
ATOM     15 CL   UNL     1       4.052   2.367  16.976  0.00  0.00    +0.000 Cl
ATOM     16  C   UNL     1       3.309   4.689  18.087  0.00  0.00    +0.000 A 
ENDBRANCH   8   9
BRANCH   5  17
ATOM     17  C   UNL     1      -0.367   9.207  22.073  0.00  0.00    +0.000 C 
ATOM     18  C   UNL     1       0.252   9.536  23.415  0.00  0.00    +0.000 C 
ATOM     19  C   UNL     1      -0.710  10.497  22.783  0.00  0.00    +0.000 C 
ENDBRANCH   5  17
BRANCH   7  20
ATOM     20  N   UNL     1       2.146   8.978  18.339  0.00  0.00    +0.000 N 
ATOM     21  H   UNL     1       2.906   8.943  17.651  0.00  0.00    +0.000 HD
ATOM     22  H   UNL     1       1.617   9.844  18.347  0.00  0.00    +0.000 HD
ENDBRANCH   7  20
TORSDOF 3
ENDMDL
MODEL 6
REMARK VINA RESULT:      -6.1      4.161      7.416
REMARK  Name = 
REMARK  4 active torsions:
REMARK  status: ('A' for Active; 'I' for Inactive)
REMARK    1  A    between atoms: C_1  and  C_2
REMARK    2  A    between atoms: C_5  and  C_7
REMARK    3  A    between atoms: C_10  and  N_11
REMARK    4  A    between atoms: C_12  and  C_13
REMARK                            x       y       z     vdW  Elec       q    Type
REMARK                         _______ _______ _______ _____ _____    ______ ____
ROOT
ATOM      1  C   UNL     1       2.136   9.894  17.643  0.00  0.00    +0.000 C 
ATOM      2  C   UNL     1       2.318   8.619  18.385  0.00  0.00    +0.000 A 
ATOM      3  N   UNL     1       3.030   7.634  17.828  0.00  0.00    +0.000 NA
ATOM      4  N   UNL     1       2.917   6.587  18.695  0.00  0.00    +0.000 N 
ATOM      5  C   UNL     1       3.524   5.349  18.376  0.00  0.00    +0.000 C 
ATOM      6  O   UNL     1       3.382   4.396  19.149  0.00  0.00    +0.000 OA
ATOM      7  C   UNL     1       2.158   6.930  19.820  0.00  0.00    +0.000 A 
ATOM      8  C   UNL     1       1.778   8.250  19.647  0.00  0.00    +0.000 A 
ENDROOT
BRANCH   8   9
ATOM      9  C   UNL     1       0.915   9.005  20.547  0.00  0.00    +0.000 A 
ATOM     10  C   UNL     1       0.976   8.805  21.933  0.00  0.00    +0.000 A 
ATOM     11  C   UNL     1       0.208   9.588  22.800  0.00  0.00    +0.000 A 
ATOM     12  C   UNL     1      -0.655  10.563  22.290  0.00  0.00    +0.000 A 
ATOM     13 CL   UNL     1      -1.557  11.511  23.415  0.00  0.00    +0.000 Cl
ATOM     14  C   UNL     1      -0.746  10.749  20.908  0.00  0.00    +0.000 A 
ATOM     15 CL   UNL     1      -1.811  11.910  20.196  0.00  0.00    +0.000 Cl
ATOM     16  C   UNL     1       0.046   9.984  20.047  0.00  0.00    +0.000 A 
ENDBRANCH   8   9
BRANCH   5  17
ATOM     17  C   UNL     1       4.288   5.191  17.099  0.00  0.00    +0.000 C 
ATOM     18  C   UNL     1       5.800   5.228  17.076  0.00  0.00    +0.000 C 
ATOM     19  C   UNL     1       5.085   3.926  16.873  0.00  0.00    +0.000 C 
ENDBRANCH   5  17
BRANCH   7  20
ATOM     20  N   UNL     1       1.898   6.055  20.821  0.00  0.00    +0.000 N 
ATOM     21  H   UNL     1       1.613   6.381  21.750  0.00  0.00    +0.000 HD
ATOM     22  H   UNL     1       2.065   5.057  20.752  0.00  0.00    +0.000 HD
ENDBRANCH   7  20
TORSDOF 3
ENDMDL
MODEL 7
REMARK VINA RESULT:      -6.1      4.338      6.993
REMARK  Name = 
REMARK  4 active torsions:
REMARK  status: ('A' for Active; 'I' for Inactive)
REMARK    1  A    between atoms: C_1  and  C_2
REMARK    2  A    between atoms: C_5  and  C_7
REMARK    3  A    between atoms: C_10  and  N_11
REMARK    4  A    between atoms: C_12  and  C_13
REMARK                            x       y       z     vdW  Elec       q    Type
REMARK                         _______ _______ _______ _____ _____    ______ ____
ROOT
ATOM      1  C   UNL     1       0.059   9.705  22.352  0.00  0.00    +0.000 C 
ATOM      2  C   UNL     1       0.682   9.158  21.117  0.00  0.00    +0.000 A 
ATOM      3  N   UNL     1       1.114   7.893  21.108  0.00  0.00    +0.000 NA
ATOM      4  N   UNL     1       1.719   7.739  19.895  0.00  0.00    +0.000 N 
ATOM      5  C   UNL     1       2.338   6.506  19.577  0.00  0.00    +0.000 C 
ATOM      6  O   UNL     1       2.917   6.391  18.492  0.00  0.00    +0.000 OA
ATOM      7  C   UNL     1       1.634   8.905  19.126  0.00  0.00    +0.000 A 
ATOM      8  C   UNL     1       0.947   9.830  19.894  0.00  0.00    +0.000 A 
ENDROOT
BRANCH   8   9
ATOM      9  C   UNL     1       0.685  11.213  19.515  0.00  0.00    +0.000 A 
ATOM     10  C   UNL     1      -0.541  11.578  18.942  0.00  0.00    +0.000 A 
ATOM     11  C   UNL     1      -0.823  12.918  18.656  0.00  0.00    +0.000 A 
ATOM     12  C   UNL     1       0.131  13.907  18.912  0.00  0.00    +0.000 A 
ATOM     13 CL   UNL     1      -0.288  15.544  18.558  0.00  0.00    +0.000 Cl
ATOM     14  C   UNL     1       1.368  13.550  19.454  0.00  0.00    +0.000 A 
ATOM     15 CL   UNL     1       2.613  14.707  19.770  0.00  0.00    +0.000 Cl
ATOM     16  C   UNL     1       1.633  12.213  19.766  0.00  0.00    +0.000 A 
ENDBRANCH   8   9
BRANCH   5  17
ATOM     17  C   UNL     1       2.325   5.380  20.561  0.00  0.00    +0.000 C 
ATOM     18  C   UNL     1       1.264   4.302  20.512  0.00  0.00    +0.000 C 
ATOM     19  C   UNL     1       2.666   3.986  20.085  0.00  0.00    +0.000 C 
ENDBRANCH   5  17
BRANCH   7  20
ATOM     20  N   UNL     1       2.168   9.002  17.885  0.00  0.00    +0.000 N 
ATOM     21  H   UNL     1       3.075   9.458  17.731  0.00  0.00    +0.000 HD
ATOM     22  H   UNL     1       1.676   8.738  17.038  0.00  0.00    +0.000 HD
ENDBRANCH   7  20
TORSDOF 3
ENDMDL
MODEL 8
REMARK VINA RESULT:      -6.0      4.375      5.337
REMARK  Name = 
REMARK  4 active torsions:
REMARK  status: ('A' for Active; 'I' for Inactive)
REMARK    1  A    between atoms: C_1  and  C_2
REMARK    2  A    between atoms: C_5  and  C_7
REMARK    3  A    between atoms: C_10  and  N_11
REMARK    4  A    between atoms: C_12  and  C_13
REMARK                            x       y       z     vdW  Elec       q    Type
REMARK                         _______ _______ _______ _____ _____    ______ ____
ROOT
ATOM      1  C   UNL     1       6.851   4.985  18.967  0.00  0.00    +0.000 C 
ATOM      2  C   UNL     1       5.565   4.360  18.559  0.00  0.00    +0.000 A 
ATOM      3  N   UNL     1       4.730   3.908  19.499  0.00  0.00    +0.000 NA
ATOM      4  N   UNL     1       3.718   3.307  18.809  0.00  0.00    +0.000 N 
ATOM      5  C   UNL     1       2.672   2.671  19.520  0.00  0.00    +0.000 C 
ATOM      6  O   UNL     1       1.782   2.095  18.886  0.00  0.00    +0.000 OA
ATOM      7  C   UNL     1       3.904   3.415  17.427  0.00  0.00    +0.000 A 
ATOM      8  C   UNL     1       5.086   4.111  17.244  0.00  0.00    +0.000 A 
ENDROOT
BRANCH   8   9
ATOM      9  C   UNL     1       5.707   4.397  15.956  0.00  0.00    +0.000 A 
ATOM     10  C   UNL     1       6.787   5.287  15.864  0.00  0.00    +0.000 A 
ATOM     11  C   UNL     1       7.435   5.496  14.643  0.00  0.00    +0.000 A 
ATOM     12  C   UNL     1       6.992   4.841  13.491  0.00  0.00    +0.000 A 
ATOM     13 CL   UNL     1       7.850   5.125  12.020  0.00  0.00    +0.000 Cl
ATOM     14  C   UNL     1       5.897   3.976  13.565  0.00  0.00    +0.000 A 
ATOM     15 CL   UNL     1       5.267   3.153  12.182  0.00  0.00    +0.000 Cl
ATOM     16  C   UNL     1       5.272   3.747  14.795  0.00  0.00    +0.000 A 
ENDBRANCH   8   9
BRANCH   5  17
ATOM     17  C   UNL     1       2.674   2.661  21.016  0.00  0.00    +0.000 C 
ATOM     18  C   UNL     1       2.139   3.832  21.812  0.00  0.00    +0.000 C 
ATOM     19  C   UNL     1       1.357   2.554  21.750  0.00  0.00    +0.000 C 
ENDBRANCH   5  17
BRANCH   7  20
ATOM     20  N   UNL     1       3.035   2.888  16.530  0.00  0.00    +0.000 N 
ATOM     21  H   UNL     1       2.986   1.876  16.369  0.00  0.00    +0.000 HD
ATOM     22  H   UNL     1       2.471   3.447  15.899  0.00  0.00    +0.000 HD
ENDBRANCH   7  20
TORSDOF 3
ENDMDL
MODEL 9
REMARK VINA RESULT:      -5.9      1.679      2.357
REMARK  Name = 
REMARK  4 active torsions:
REMARK  status: ('A' for Active; 'I' for Inactive)
REMARK    1  A    between atoms: C_1  and  C_2
REMARK    2  A    between atoms: C_5  and  C_7
REMARK    3  A    between atoms: C_10  and  N_11
REMARK    4  A    between atoms: C_12  and  C_13
REMARK                            x       y       z     vdW  Elec       q    Type
REMARK                         _______ _______ _______ _____ _____    ______ ____
ROOT
ATOM      1  C   UNL     1       1.671   6.346  21.140  0.00  0.00    +0.000 C 
ATOM      2  C   UNL     1       1.601   7.552  20.273  0.00  0.00    +0.000 A 
ATOM      3  N   UNL     1       0.892   8.610  20.679  0.00  0.00    +0.000 NA
ATOM      4  N   UNL     1       0.938   9.485  19.633  0.00  0.00    +0.000 N 
ATOM      5  C   UNL     1       0.233  10.709  19.717  0.00  0.00    +0.000 C 
ATOM      6  O   UNL     1       0.249  11.476  18.749  0.00  0.00    +0.000 OA
ATOM      7  C   UNL     1       1.710   8.985  18.579  0.00  0.00    +0.000 A 
ATOM      8  C   UNL     1       2.166   7.741  18.982  0.00  0.00    +0.000 A 
ENDROOT
BRANCH   8   9
ATOM      9  C   UNL     1       2.956   6.826  18.168  0.00  0.00    +0.000 A 
ATOM     10  C   UNL     1       4.114   7.269  17.513  0.00  0.00    +0.000 A 
ATOM     11  C   UNL     1       4.916   6.372  16.801  0.00  0.00    +0.000 A 
ATOM     12  C   UNL     1       4.554   5.024  16.709  0.00  0.00    +0.000 A 
ATOM     13 CL   UNL     1       5.600   3.965  15.835  0.00  0.00    +0.000 Cl
ATOM     14  C   UNL     1       3.386   4.579  17.333  0.00  0.00    +0.000 A 
ATOM     15 CL   UNL     1       2.851   2.938  17.241  0.00  0.00    +0.000 Cl
ATOM     16  C   UNL     1       2.603   5.474  18.069  0.00  0.00    +0.000 A 
ENDBRANCH   8   9
BRANCH   5  17
ATOM     17  C   UNL     1      -0.552  11.044  20.946  0.00  0.00    +0.000 C 
ATOM     18  C   UNL     1      -0.182  12.224  21.820  0.00  0.00    +0.000 C 
ATOM     19  C   UNL     1      -1.405  12.292  20.954  0.00  0.00    +0.000 C 
ENDBRANCH   5  17
BRANCH   7  20
ATOM     20  N   UNL     1       1.899   9.668  17.423  0.00  0.00    +0.000 N 
ATOM     21  H   UNL     1       2.616   9.382  16.749  0.00  0.00    +0.000 HD
ATOM     22  H   UNL     1       1.433  10.542  17.204  0.00  0.00    +0.000 HD
ENDBRANCH   7  20
TORSDOF 3
ENDMDL
