MODEL 1
REMARK VINA RESULT:      -9.2      0.000      0.000
REMARK  Name = 
REMARK  6 active torsions:
REMARK  status: ('A' for Active; 'I' for Inactive)
REMARK    1  A    between atoms: C_1  and  O_2
REMARK    2  A    between atoms: O_2  and  C_3
REMARK    3  A    between atoms: C_6  and  C_7
REMARK    4  A    between atoms: C_13  and  C_14
REMARK    5  A    between atoms: C_24  and  O_25
REMARK    6  A    between atoms: O_25  and  C_26
REMARK                            x       y       z     vdW  Elec       q    Type
REMARK                         _______ _______ _______ _____ _____    ______ ____
ROOT
ATOM      1  C   UNL     1       2.389   5.792  19.721  0.00  0.00    +0.000 A 
ATOM      2  C   UNL     1       1.718   5.191  20.718  0.00  0.00    +0.000 A 
ATOM      3  C   UNL     1       2.013   3.747  20.910  0.00  0.00    +0.000 A 
ATOM      4  N   UNL     1       2.826   3.023  20.202  0.00  0.00    +0.000 NA
ATOM      5  C   UNL     1       3.472   3.677  19.187  0.00  0.00    +0.000 A 
ATOM      6  C   UNL     1       4.339   3.234  18.218  0.00  0.00    +0.000 A 
ATOM      7  C   UNL     1       4.665   4.368  17.435  0.00  0.00    +0.000 A 
ATOM      8  N   UNL     1       4.055   5.463  17.910  0.00  0.00    +0.000 NA
ATOM      9  N   UNL     1       3.290   5.044  18.939  0.00  0.00    +0.000 N 
ENDROOT
BRANCH   7  10
ATOM     10  C   UNL     1       5.505   4.436  16.235  0.00  0.00    +0.000 A 
ATOM     11  C   UNL     1       6.764   5.059  16.296  0.00  0.00    +0.000 A 
ATOM     12  C   UNL     1       7.557   5.189  15.154  0.00  0.00    +0.000 A 
ATOM     13  C   UNL     1       7.102   4.690  13.937  0.00  0.00    +0.000 A 
ATOM     14  C   UNL     1       5.863   4.054  13.871  0.00  0.00    +0.000 A 
ATOM     15 CL   UNL     1       5.306   3.435  12.363  0.00  0.00    +0.000 Cl
ATOM     16  C   UNL     1       5.065   3.923  15.009  0.00  0.00    +0.000 A 
ENDBRANCH   7  10
BRANCH   1  20
ATOM     17  C   UNL     1       1.381   9.840  18.833  0.00  0.00    +0.000 A 
ATOM     18  C   UNL     1       1.953   9.007  17.849  0.00  0.00    +0.000 A 
ATOM     19  C   UNL     1       2.316   7.695  18.137  0.00  0.00    +0.000 A 
ATOM     20  C   UNL     1       2.159   7.211  19.433  0.00  0.00    +0.000 A 
ATOM     21  C   UNL     1       1.714   8.074  20.440  0.00  0.00    +0.000 A 
ATOM     22  C   UNL     1       1.327   9.395  20.158  0.00  0.00    +0.000 A 
BRANCH  17  24
ATOM     23  C   UNL     1       1.869  12.115  18.518  0.00  0.00    +0.000 C 
ATOM     24  O   UNL     1       0.888  11.074  18.496  0.00  0.00    +0.000 OA
ENDBRANCH  17  24
BRANCH  22  25
ATOM     25  O   UNL     1       0.964  10.065  21.290  0.00  0.00    +0.000 OA
BRANCH  25  26
ATOM     26  C   UNL     1      -0.348  10.577  21.504  0.00  0.00    +0.000 C 
ATOM     27  C   UNL     1      -0.866  10.243  22.899  0.00  0.00    +0.000 C 
ATOM     28  C   UNL     1      -1.704  11.432  23.341  0.00  0.00    +0.000 C 
ATOM     29  C   UNL     1      -1.204  12.636  22.557  0.00  0.00    +0.000 C 
ATOM     30  C   UNL     1      -0.228  12.109  21.516  0.00  0.00    +0.000 C 
ENDBRANCH  25  26
ENDBRANCH  22  25
ENDBRANCH   1  20
TORSDOF 5
ENDMDL
MODEL 2
REMARK VINA RESULT:      -8.8      3.918      7.577
REMARK  Name = 
REMARK  6 active torsions:
REMARK  status: ('A' for Active; 'I' for Inactive)
REMARK    1  A    between atoms: C_1  and  O_2
REMARK    2  A    between atoms: O_2  and  C_3
REMARK    3  A    between atoms: C_6  and  C_7
REMARK    4  A    between atoms: C_13  and  C_14
REMARK    5  A    between atoms: C_24  and  O_25
REMARK    6  A    between atoms: O_25  and  C_26
REMARK                            x       y       z     vdW  Elec       q    Type
REMARK                         _______ _______ _______ _____ _____    ______ ____
ROOT
ATOM      1  C   UNL     1       4.084   3.938  19.195  0.00  0.00    +0.000 A 
ATOM      2  C   UNL     1       4.117   2.759  19.839  0.00  0.00    +0.000 A 
ATOM      3  C   UNL     1       3.125   2.600  20.935  0.00  0.00    +0.000 A 
ATOM      4  N   UNL     1       2.264   3.486  21.333  0.00  0.00    +0.000 NA
ATOM      5  C   UNL     1       2.282   4.677  20.657  0.00  0.00    +0.000 A 
ATOM      6  C   UNL     1       1.574   5.841  20.833  0.00  0.00    +0.000 A 
ATOM      7  C   UNL     1       2.037   6.736  19.839  0.00  0.00    +0.000 A 
ATOM      8  N   UNL     1       2.962   6.149  19.067  0.00  0.00    +0.000 NA
ATOM      9  N   UNL     1       3.154   4.920  19.588  0.00  0.00    +0.000 N 
ENDROOT
BRANCH   7  10
ATOM     10  C   UNL     1       1.655   8.134  19.622  0.00  0.00    +0.000 A 
ATOM     11  C   UNL     1       1.940   8.756  18.393  0.00  0.00    +0.000 A 
ATOM     12  C   UNL     1       1.640  10.104  18.184  0.00  0.00    +0.000 A 
ATOM     13  C   UNL     1       1.041  10.844  19.199  0.00  0.00    +0.000 A 
ATOM     14  C   UNL     1       0.737  10.231  20.414  0.00  0.00    +0.000 A 
ATOM     15 CL   UNL     1      -0.006  11.150  21.667  0.00  0.00    +0.000 Cl
ATOM     16  C   UNL     1       1.037   8.885  20.630  0.00  0.00    +0.000 A 
ENDBRANCH   7  10
BRANCH   1  20
ATOM     17  C   UNL     1       6.652   5.006  15.961  0.00  0.00    +0.000 A 
ATOM     18  C   UNL     1       5.654   4.023  15.795  0.00  0.00    +0.000 A 
ATOM     19  C   UNL     1       4.833   3.643  16.852  0.00  0.00    +0.000 A 
ATOM     20  C   UNL     1       5.032   4.207  18.110  0.00  0.00    +0.000 A 
ATOM     21  C   UNL     1       6.104   5.084  18.307  0.00  0.00    +0.000 A 
ATOM     22  C   UNL     1       6.928   5.489  17.245  0.00  0.00    +0.000 A 
BRANCH  17  24
ATOM     23  C   UNL     1       7.170   4.701  13.691  0.00  0.00    +0.000 C 
ATOM     24  O   UNL     1       7.347   5.478  14.879  0.00  0.00    +0.000 OA
ENDBRANCH  17  24
BRANCH  22  25
ATOM     25  O   UNL     1       7.928   6.315  17.671  0.00  0.00    +0.000 OA
BRANCH  25  26
ATOM     26  C   UNL     1       7.686   7.557  18.324  0.00  0.00    +0.000 C 
ATOM     27  C   UNL     1       8.894   8.016  19.134  0.00  0.00    +0.000 C 
ATOM     28  C   UNL     1       8.933   9.532  19.024  0.00  0.00    +0.000 C 
ATOM     29  C   UNL     1       8.201   9.898  17.742  0.00  0.00    +0.000 C 
ATOM     30  C   UNL     1       7.560   8.620  17.221  0.00  0.00    +0.000 C 
ENDBRANCH  25  26
ENDBRANCH  22  25
ENDBRANCH   1  20
TORSDOF 5
ENDMDL
MODEL 3
REMARK VINA RESULT:      -8.8      4.171      8.427
REMARK  Name = 
REMARK  6 active torsions:
REMARK  status: ('A' for Active; 'I' for Inactive)
REMARK    1  A    between atoms: C_1  and  O_2
REMARK    2  A    between atoms: O_2  and  C_3
REMARK    3  A    between atoms: C_6  and  C_7
REMARK    4  A    between atoms: C_13  and  C_14
REMARK    5  A    between atoms: C_24  and  O_25
REMARK    6  A    between atoms: O_25  and  C_26
REMARK                            x       y       z     vdW  Elec       q    Type
REMARK                         _______ _______ _______ _____ _____    ______ ____
ROOT
ATOM      1  C   UNL     1       0.508  10.057  20.945  0.00  0.00    +0.000 A 
ATOM      2  C   UNL     1      -0.219   9.615  21.985  0.00  0.00    +0.000 A 
ATOM      3  C   UNL     1      -0.763  10.669  22.881  0.00  0.00    +0.000 A 
ATOM      4  N   UNL     1      -0.584  11.950  22.765  0.00  0.00    +0.000 NA
ATOM      5  C   UNL     1       0.179  12.349  21.701  0.00  0.00    +0.000 A 
ATOM      6  C   UNL     1       0.621  13.587  21.304  0.00  0.00    +0.000 A 
ATOM      7  C   UNL     1       1.389  13.374  20.134  0.00  0.00    +0.000 A 
ATOM      8  N   UNL     1       1.401  12.075  19.806  0.00  0.00    +0.000 NA
ATOM      9  N   UNL     1       0.714  11.440  20.778  0.00  0.00    +0.000 N 
ENDROOT
BRANCH   7  10
ATOM     10  C   UNL     1       2.137  14.355  19.343  0.00  0.00    +0.000 A 
ATOM     11  C   UNL     1       1.514  15.548  18.935  0.00  0.00    +0.000 A 
ATOM     12  C   UNL     1       2.187  16.471  18.132  0.00  0.00    +0.000 A 
ATOM     13  C   UNL     1       3.496  16.217  17.734  0.00  0.00    +0.000 A 
ATOM     14  C   UNL     1       4.129  15.046  18.150  0.00  0.00    +0.000 A 
ATOM     15 CL   UNL     1       5.749  14.736  17.658  0.00  0.00    +0.000 Cl
ATOM     16  C   UNL     1       3.460  14.118  18.951  0.00  0.00    +0.000 A 
ENDBRANCH   7  10
BRANCH   1  20
ATOM     17  C   UNL     1       2.566   7.396  18.323  0.00  0.00    +0.000 A 
ATOM     18  C   UNL     1       2.006   8.596  17.838  0.00  0.00    +0.000 A 
ATOM     19  C   UNL     1       1.303   9.455  18.678  0.00  0.00    +0.000 A 
ATOM     20  C   UNL     1       1.108   9.101  20.010  0.00  0.00    +0.000 A 
ATOM     21  C   UNL     1       1.550   7.852  20.461  0.00  0.00    +0.000 A 
ATOM     22  C   UNL     1       2.274   6.984  19.629  0.00  0.00    +0.000 A 
BRANCH  17  24
ATOM     23  C   UNL     1       4.739   7.091  17.486  0.00  0.00    +0.000 C 
ATOM     24  O   UNL     1       3.382   6.639  17.524  0.00  0.00    +0.000 OA
ENDBRANCH  17  24
BRANCH  22  25
ATOM     25  O   UNL     1       2.571   5.811  20.261  0.00  0.00    +0.000 OA
BRANCH  25  26
ATOM     26  C   UNL     1       1.592   4.824  20.567  0.00  0.00    +0.000 C 
ATOM     27  C   UNL     1       1.280   3.942  19.363  0.00  0.00    +0.000 C 
ATOM     28  C   UNL     1       1.017   2.547  19.908  0.00  0.00    +0.000 C 
ATOM     29  C   UNL     1       1.738   2.457  21.244  0.00  0.00    +0.000 C 
ATOM     30  C   UNL     1       2.239   3.856  21.570  0.00  0.00    +0.000 C 
ENDBRANCH  25  26
ENDBRANCH  22  25
ENDBRANCH   1  20
TORSDOF 5
ENDMDL
MODEL 4
REMARK VINA RESULT:      -8.7      4.589      8.670
REMARK  Name = 
REMARK  6 active torsions:
REMARK  status: ('A' for Active; 'I' for Inactive)
REMARK    1  A    between atoms: C_1  and  O_2
REMARK    2  A    between atoms: O_2  and  C_3
REMARK    3  A    between atoms: C_6  and  C_7
REMARK    4  A    between atoms: C_13  and  C_14
REMARK    5  A    between atoms: C_24  and  O_25
REMARK    6  A    between atoms: O_25  and  C_26
REMARK                            x       y       z     vdW  Elec       q    Type
REMARK                         _______ _______ _______ _____ _____    ______ ____
ROOT
ATOM      1  C   UNL     1       0.544  10.038  20.884  0.00  0.00    +0.000 A 
ATOM      2  C   UNL     1      -0.083   9.562  21.974  0.00  0.00    +0.000 A 
ATOM      3  C   UNL     1      -0.627  10.589  22.900  0.00  0.00    +0.000 A 
ATOM      4  N   UNL     1      -0.534  11.877  22.767  0.00  0.00    +0.000 NA
ATOM      5  C   UNL     1       0.129  12.312  21.651  0.00  0.00    +0.000 A 
ATOM      6  C   UNL     1       0.466  13.572  21.218  0.00  0.00    +0.000 A 
ATOM      7  C   UNL     1       1.164  13.395  19.999  0.00  0.00    +0.000 A 
ATOM      8  N   UNL     1       1.233  12.096  19.677  0.00  0.00    +0.000 NA
ATOM      9  N   UNL     1       0.654  11.430  20.698  0.00  0.00    +0.000 N 
ENDROOT
BRANCH   7  10
ATOM     10  C   UNL     1       1.796  14.413  19.155  0.00  0.00    +0.000 A 
ATOM     11  C   UNL     1       3.007  14.125  18.499  0.00  0.00    +0.000 A 
ATOM     12  C   UNL     1       3.658  15.097  17.737  0.00  0.00    +0.000 A 
ATOM     13  C   UNL     1       3.102  16.367  17.614  0.00  0.00    +0.000 A 
ATOM     14  C   UNL     1       1.892  16.655  18.245  0.00  0.00    +0.000 A 
ATOM     15 CL   UNL     1       1.205  18.226  18.088  0.00  0.00    +0.000 Cl
ATOM     16  C   UNL     1       1.237  15.688  19.010  0.00  0.00    +0.000 A 
ENDBRANCH   7  10
BRANCH   1  20
ATOM     17  C   UNL     1       2.579   7.461  18.163  0.00  0.00    +0.000 A 
ATOM     18  C   UNL     1       2.014   8.674  17.720  0.00  0.00    +0.000 A 
ATOM     19  C   UNL     1       1.319   9.507  18.593  0.00  0.00    +0.000 A 
ATOM     20  C   UNL     1       1.135   9.111  19.915  0.00  0.00    +0.000 A 
ATOM     21  C   UNL     1       1.582   7.850  20.323  0.00  0.00    +0.000 A 
ATOM     22  C   UNL     1       2.299   7.008  19.458  0.00  0.00    +0.000 A 
BRANCH  17  24
ATOM     23  C   UNL     1       4.780   7.037  17.460  0.00  0.00    +0.000 C 
ATOM     24  O   UNL     1       3.388   6.729  17.334  0.00  0.00    +0.000 OA
ENDBRANCH  17  24
BRANCH  22  25
ATOM     25  O   UNL     1       2.602   5.817  20.050  0.00  0.00    +0.000 OA
BRANCH  25  26
ATOM     26  C   UNL     1       1.613   4.868  20.439  0.00  0.00    +0.000 C 
ATOM     27  C   UNL     1       1.279   3.901  19.308  0.00  0.00    +0.000 C 
ATOM     28  C   UNL     1       1.004   2.556  19.960  0.00  0.00    +0.000 C 
ATOM     29  C   UNL     1       1.736   2.558  21.293  0.00  0.00    +0.000 C 
ATOM     30  C   UNL     1       2.257   3.971  21.508  0.00  0.00    +0.000 C 
ENDBRANCH  25  26
ENDBRANCH  22  25
ENDBRANCH   1  20
TORSDOF 5
ENDMDL
MODEL 5
REMARK VINA RESULT:      -8.4      4.438      8.391
REMARK  Name = 
REMARK  6 active torsions:
REMARK  status: ('A' for Active; 'I' for Inactive)
REMARK    1  A    between atoms: C_1  and  O_2
REMARK    2  A    between atoms: O_2  and  C_3
REMARK    3  A    between atoms: C_6  and  C_7
REMARK    4  A    between atoms: C_13  and  C_14
REMARK    5  A    between atoms: C_24  and  O_25
REMARK    6  A    between atoms: O_25  and  C_26
REMARK                            x       y       z     vdW  Elec       q    Type
REMARK                         _______ _______ _______ _____ _____    ______ ____
ROOT
ATOM      1  C   UNL     1       0.795   9.352  20.898  0.00  0.00    +0.000 A 
ATOM      2  C   UNL     1       0.193   8.798  21.964  0.00  0.00    +0.000 A 
ATOM      3  C   UNL     1      -0.437   9.753  22.913  0.00  0.00    +0.000 A 
ATOM      4  N   UNL     1      -0.440  11.048  22.819  0.00  0.00    +0.000 NA
ATOM      5  C   UNL     1       0.202  11.565  21.725  0.00  0.00    +0.000 A 
ATOM      6  C   UNL     1       0.449  12.859  21.334  0.00  0.00    +0.000 A 
ATOM      7  C   UNL     1       1.172  12.771  20.120  0.00  0.00    +0.000 A 
ATOM      8  N   UNL     1       1.341  11.491  19.761  0.00  0.00    +0.000 NA
ATOM      9  N   UNL     1       0.802  10.753  20.754  0.00  0.00    +0.000 N 
ENDROOT
BRANCH   7  10
ATOM     10  C   UNL     1       1.735  13.859  19.315  0.00  0.00    +0.000 A 
ATOM     11  C   UNL     1       2.940  13.661  18.616  0.00  0.00    +0.000 A 
ATOM     12  C   UNL     1       3.527  14.699  17.890  0.00  0.00    +0.000 A 
ATOM     13  C   UNL     1       2.911  15.947  17.846  0.00  0.00    +0.000 A 
ATOM     14  C   UNL     1       1.707  16.146  18.520  0.00  0.00    +0.000 A 
ATOM     15 CL   UNL     1       0.947  17.690  18.462  0.00  0.00    +0.000 Cl
ATOM     16  C   UNL     1       1.116  15.113  19.250  0.00  0.00    +0.000 A 
ENDBRANCH   7  10
BRANCH   1  20
ATOM     17  C   UNL     1       3.040   7.056  18.092  0.00  0.00    +0.000 A 
ATOM     18  C   UNL     1       2.234   8.130  17.662  0.00  0.00    +0.000 A 
ATOM     19  C   UNL     1       1.471   8.865  18.565  0.00  0.00    +0.000 A 
ATOM     20  C   UNL     1       1.465   8.502  19.910  0.00  0.00    +0.000 A 
ATOM     21  C   UNL     1       2.161   7.358  20.316  0.00  0.00    +0.000 A 
ATOM     22  C   UNL     1       2.948   6.619  19.418  0.00  0.00    +0.000 A 
BRANCH  17  24
ATOM     23  C   UNL     1       5.251   6.905  17.312  0.00  0.00    +0.000 C 
ATOM     24  O   UNL     1       3.900   6.442  17.219  0.00  0.00    +0.000 OA
ENDBRANCH  17  24
BRANCH  22  25
ATOM     25  O   UNL     1       3.505   5.527  20.018  0.00  0.00    +0.000 OA
BRANCH  25  26
ATOM     26  C   UNL     1       2.939   4.222  19.939  0.00  0.00    +0.000 C 
ATOM     27  C   UNL     1       2.344   3.781  21.272  0.00  0.00    +0.000 C 
ATOM     28  C   UNL     1       1.112   2.955  20.940  0.00  0.00    +0.000 C 
ATOM     29  C   UNL     1       0.645   3.399  19.562  0.00  0.00    +0.000 C 
ATOM     30  C   UNL     1       1.718   4.326  19.011  0.00  0.00    +0.000 C 
ENDBRANCH  25  26
ENDBRANCH  22  25
ENDBRANCH   1  20
TORSDOF 5
ENDMDL
MODEL 6
REMARK VINA RESULT:      -8.3      4.791      6.869
REMARK  Name = 
REMARK  6 active torsions:
REMARK  status: ('A' for Active; 'I' for Inactive)
REMARK    1  A    between atoms: C_1  and  O_2
REMARK    2  A    between atoms: O_2  and  C_3
REMARK    3  A    between atoms: C_6  and  C_7
REMARK    4  A    between atoms: C_13  and  C_14
REMARK    5  A    between atoms: C_24  and  O_25
REMARK    6  A    between atoms: O_25  and  C_26
REMARK                            x       y       z     vdW  Elec       q    Type
REMARK                         _______ _______ _______ _____ _____    ______ ____
ROOT
ATOM      1  C   UNL     1      -1.367  11.302  20.169  0.00  0.00    +0.000 A 
ATOM      2  C   UNL     1      -1.767  12.220  21.065  0.00  0.00    +0.000 A 
ATOM      3  C   UNL     1      -1.055  12.195  22.370  0.00  0.00    +0.000 A 
ATOM      4  N   UNL     1      -0.116  11.370  22.723  0.00  0.00    +0.000 NA
ATOM      5  C   UNL     1       0.243  10.442  21.782  0.00  0.00    +0.000 A 
ATOM      6  C   UNL     1       1.133   9.396  21.820  0.00  0.00    +0.000 A 
ATOM      7  C   UNL     1       1.064   8.775  20.549  0.00  0.00    +0.000 A 
ATOM      8  N   UNL     1       0.197   9.419  19.755  0.00  0.00    +0.000 NA
ATOM      9  N   UNL     1      -0.343  10.397  20.510  0.00  0.00    +0.000 N 
ENDROOT
BRANCH   7  10
ATOM     10  C   UNL     1       1.765   7.576  20.081  0.00  0.00    +0.000 A 
ATOM     11  C   UNL     1       2.452   7.600  18.855  0.00  0.00    +0.000 A 
ATOM     12  C   UNL     1       3.077   6.454  18.360  0.00  0.00    +0.000 A 
ATOM     13  C   UNL     1       3.030   5.270  19.090  0.00  0.00    +0.000 A 
ATOM     14  C   UNL     1       2.367   5.242  20.317  0.00  0.00    +0.000 A 
ATOM     15 CL   UNL     1       2.313   3.776  21.219  0.00  0.00    +0.000 Cl
ATOM     16  C   UNL     1       1.738   6.384  20.816  0.00  0.00    +0.000 A 
ENDBRANCH   7  10
BRANCH   1  20
ATOM     17  C   UNL     1      -3.428  10.798  16.470  0.00  0.00    +0.000 A 
ATOM     18  C   UNL     1      -2.103  10.339  16.625  0.00  0.00    +0.000 A 
ATOM     19  C   UNL     1      -1.410  10.528  17.817  0.00  0.00    +0.000 A 
ATOM     20  C   UNL     1      -2.017  11.226  18.858  0.00  0.00    +0.000 A 
ATOM     21  C   UNL     1      -3.280  11.795  18.659  0.00  0.00    +0.000 A 
ATOM     22  C   UNL     1      -3.996  11.597  17.468  0.00  0.00    +0.000 A 
BRANCH  17  24
ATOM     23  C   UNL     1      -3.342  10.210  14.197  0.00  0.00    +0.000 C 
ATOM     24  O   UNL     1      -4.148  10.472  15.350  0.00  0.00    +0.000 OA
ENDBRANCH  17  24
BRANCH  22  25
ATOM     25  O   UNL     1      -5.183  12.270  17.477  0.00  0.00    +0.000 OA
BRANCH  25  26
ATOM     26  C   UNL     1      -6.377  11.735  18.042  0.00  0.00    +0.000 C 
ATOM     27  C   UNL     1      -6.181  10.303  18.528  0.00  0.00    +0.000 C 
ATOM     28  C   UNL     1      -7.032  10.154  19.779  0.00  0.00    +0.000 C 
ATOM     29  C   UNL     1      -7.212  11.550  20.356  0.00  0.00    +0.000 C 
ATOM     30  C   UNL     1      -6.647  12.525  19.333  0.00  0.00    +0.000 C 
ENDBRANCH  25  26
ENDBRANCH  22  25
ENDBRANCH   1  20
TORSDOF 5
ENDMDL
MODEL 7
REMARK VINA RESULT:      -8.1      4.723      6.982
REMARK  Name = 
REMARK  6 active torsions:
REMARK  status: ('A' for Active; 'I' for Inactive)
REMARK    1  A    between atoms: C_1  and  O_2
REMARK    2  A    between atoms: O_2  and  C_3
REMARK    3  A    between atoms: C_6  and  C_7
REMARK    4  A    between atoms: C_13  and  C_14
REMARK    5  A    between atoms: C_24  and  O_25
REMARK    6  A    between atoms: O_25  and  C_26
REMARK                            x       y       z     vdW  Elec       q    Type
REMARK                         _______ _______ _______ _____ _____    ______ ____
ROOT
ATOM      1  C   UNL     1      -1.651  11.486  20.471  0.00  0.00    +0.000 A 
ATOM      2  C   UNL     1      -2.080  12.336  21.419  0.00  0.00    +0.000 A 
ATOM      3  C   UNL     1      -1.401  12.222  22.737  0.00  0.00    +0.000 A 
ATOM      4  N   UNL     1      -0.466  11.377  23.054  0.00  0.00    +0.000 NA
ATOM      5  C   UNL     1      -0.077  10.521  22.059  0.00  0.00    +0.000 A 
ATOM      6  C   UNL     1       0.818   9.479  22.045  0.00  0.00    +0.000 A 
ATOM      7  C   UNL     1       0.785   8.950  20.732  0.00  0.00    +0.000 A 
ATOM      8  N   UNL     1      -0.065   9.644  19.964  0.00  0.00    +0.000 NA
ATOM      9  N   UNL     1      -0.630  10.564  20.773  0.00  0.00    +0.000 N 
ENDROOT
BRANCH   7  10
ATOM     10  C   UNL     1       1.505   7.790  20.199  0.00  0.00    +0.000 A 
ATOM     11  C   UNL     1       1.431   6.553  20.864  0.00  0.00    +0.000 A 
ATOM     12  C   UNL     1       2.155   5.449  20.409  0.00  0.00    +0.000 A 
ATOM     13  C   UNL     1       2.955   5.566  19.276  0.00  0.00    +0.000 A 
ATOM     14  C   UNL     1       3.019   6.783  18.599  0.00  0.00    +0.000 A 
ATOM     15 CL   UNL     1       4.007   6.923  17.196  0.00  0.00    +0.000 Cl
ATOM     16  C   UNL     1       2.299   7.891  19.050  0.00  0.00    +0.000 A 
ENDBRANCH   7  10
BRANCH   1  20
ATOM     17  C   UNL     1      -3.570  11.211  16.672  0.00  0.00    +0.000 A 
ATOM     18  C   UNL     1      -2.194  10.932  16.806  0.00  0.00    +0.000 A 
ATOM     19  C   UNL     1      -1.551  11.051  18.034  0.00  0.00    +0.000 A 
ATOM     20  C   UNL     1      -2.267  11.501  19.141  0.00  0.00    +0.000 A 
ATOM     21  C   UNL     1      -3.598  11.903  18.981  0.00  0.00    +0.000 A 
ATOM     22  C   UNL     1      -4.263  11.771  17.751  0.00  0.00    +0.000 A 
BRANCH  17  24
ATOM     23  C   UNL     1      -3.492  10.086  14.612  0.00  0.00    +0.000 C 
ATOM     24  O   UNL     1      -4.221  10.944  15.496  0.00  0.00    +0.000 OA
ENDBRANCH  17  24
BRANCH  22  25
ATOM     25  O   UNL     1      -5.537  12.257  17.814  0.00  0.00    +0.000 OA
BRANCH  25  26
ATOM     26  C   UNL     1      -6.648  11.473  18.237  0.00  0.00    +0.000 C 
ATOM     27  C   UNL     1      -6.238  10.044  18.574  0.00  0.00    +0.000 C 
ATOM     28  C   UNL     1      -7.109   9.612  19.743  0.00  0.00    +0.000 C 
ATOM     29  C   UNL     1      -7.547  10.882  20.456  0.00  0.00    +0.000 C 
ATOM     30  C   UNL     1      -7.107  12.049  19.586  0.00  0.00    +0.000 C 
ENDBRANCH  25  26
ENDBRANCH  22  25
ENDBRANCH   1  20
TORSDOF 5
ENDMDL
MODEL 8
REMARK VINA RESULT:      -8.1      4.151      8.249
REMARK  Name = 
REMARK  6 active torsions:
REMARK  status: ('A' for Active; 'I' for Inactive)
REMARK    1  A    between atoms: C_1  and  O_2
REMARK    2  A    between atoms: O_2  and  C_3
REMARK    3  A    between atoms: C_6  and  C_7
REMARK    4  A    between atoms: C_13  and  C_14
REMARK    5  A    between atoms: C_24  and  O_25
REMARK    6  A    between atoms: O_25  and  C_26
REMARK                            x       y       z     vdW  Elec       q    Type
REMARK                         _______ _______ _______ _____ _____    ______ ____
ROOT
ATOM      1  C   UNL     1       1.251   8.846  20.600  0.00  0.00    +0.000 A 
ATOM      2  C   UNL     1       1.752   9.019  21.836  0.00  0.00    +0.000 A 
ATOM      3  C   UNL     1       0.993   9.951  22.711  0.00  0.00    +0.000 A 
ATOM      4  N   UNL     1      -0.074  10.617  22.389  0.00  0.00    +0.000 NA
ATOM      5  C   UNL     1      -0.535  10.421  21.114  0.00  0.00    +0.000 A 
ATOM      6  C   UNL     1      -1.576  10.987  20.419  0.00  0.00    +0.000 A 
ATOM      7  C   UNL     1      -1.553  10.401  19.131  0.00  0.00    +0.000 A 
ATOM      8  N   UNL     1      -0.567   9.498  19.039  0.00  0.00    +0.000 NA
ATOM      9  N   UNL     1       0.087   9.542  20.218  0.00  0.00    +0.000 N 
ENDROOT
BRANCH   7  10
ATOM     10  C   UNL     1      -2.411  10.696  17.980  0.00  0.00    +0.000 A 
ATOM     11  C   UNL     1      -3.565  11.481  18.150  0.00  0.00    +0.000 A 
ATOM     12  C   UNL     1      -4.429  11.727  17.081  0.00  0.00    +0.000 A 
ATOM     13  C   UNL     1      -4.145  11.197  15.826  0.00  0.00    +0.000 A 
ATOM     14  C   UNL     1      -2.993  10.434  15.643  0.00  0.00    +0.000 A 
ATOM     15 CL   UNL     1      -2.642   9.783  14.088  0.00  0.00    +0.000 Cl
ATOM     16  C   UNL     1      -2.126  10.183  16.708  0.00  0.00    +0.000 A 
ENDBRANCH   7  10
BRANCH   1  20
ATOM     17  C   UNL     1       3.536   6.423  17.936  0.00  0.00    +0.000 A 
ATOM     18  C   UNL     1       2.875   7.579  17.472  0.00  0.00    +0.000 A 
ATOM     19  C   UNL     1       2.100   8.359  18.325  0.00  0.00    +0.000 A 
ATOM     20  C   UNL     1       1.932   7.963  19.649  0.00  0.00    +0.000 A 
ATOM     21  C   UNL     1       2.479   6.749  20.078  0.00  0.00    +0.000 A 
ATOM     22  C   UNL     1       3.277   5.962  19.232  0.00  0.00    +0.000 A 
BRANCH  17  24
ATOM     23  C   UNL     1       5.061   6.587  16.157  0.00  0.00    +0.000 C 
ATOM     24  O   UNL     1       4.415   5.754  17.126  0.00  0.00    +0.000 OA
ENDBRANCH  17  24
BRANCH  22  25
ATOM     25  O   UNL     1       3.672   4.807  19.843  0.00  0.00    +0.000 OA
BRANCH  25  26
ATOM     26  C   UNL     1       2.919   3.600  19.784  0.00  0.00    +0.000 C 
ATOM     27  C   UNL     1       1.454   3.861  19.452  0.00  0.00    +0.000 C 
ATOM     28  C   UNL     1       0.996   2.697  18.587  0.00  0.00    +0.000 C 
ATOM     29  C   UNL     1       2.241   2.124  17.927  0.00  0.00    +0.000 C 
ATOM     30  C   UNL     1       3.436   2.816  18.567  0.00  0.00    +0.000 C 
ENDBRANCH  25  26
ENDBRANCH  22  25
ENDBRANCH   1  20
TORSDOF 5
ENDMDL
MODEL 9
REMARK VINA RESULT:      -8.1      3.523      7.433
REMARK  Name = 
REMARK  6 active torsions:
REMARK  status: ('A' for Active; 'I' for Inactive)
REMARK    1  A    between atoms: C_1  and  O_2
REMARK    2  A    between atoms: O_2  and  C_3
REMARK    3  A    between atoms: C_6  and  C_7
REMARK    4  A    between atoms: C_13  and  C_14
REMARK    5  A    between atoms: C_24  and  O_25
REMARK    6  A    between atoms: O_25  and  C_26
REMARK                            x       y       z     vdW  Elec       q    Type
REMARK                         _______ _______ _______ _____ _____    ______ ____
ROOT
ATOM      1  C   UNL     1       4.071   3.682  19.152  0.00  0.00    +0.000 A 
ATOM      2  C   UNL     1       4.167   2.447  19.674  0.00  0.00    +0.000 A 
ATOM      3  C   UNL     1       3.261   2.163  20.818  0.00  0.00    +0.000 A 
ATOM      4  N   UNL     1       2.419   2.989  21.361  0.00  0.00    +0.000 NA
ATOM      5  C   UNL     1       2.371   4.240  20.805  0.00  0.00    +0.000 A 
ATOM      6  C   UNL     1       1.664   5.367  21.144  0.00  0.00    +0.000 A 
ATOM      7  C   UNL     1       2.040   6.363  20.211  0.00  0.00    +0.000 A 
ATOM      8  N   UNL     1       2.914   5.872  19.322  0.00  0.00    +0.000 NA
ATOM      9  N   UNL     1       3.160   4.603  19.705  0.00  0.00    +0.000 N 
ENDROOT
BRANCH   7  10
ATOM     10  C   UNL     1       1.624   7.768  20.160  0.00  0.00    +0.000 A 
ATOM     11  C   UNL     1       0.825   8.299  21.187  0.00  0.00    +0.000 A 
ATOM     12  C   UNL     1       0.368   9.617  21.131  0.00  0.00    +0.000 A 
ATOM     13  C   UNL     1       0.712  10.424  20.050  0.00  0.00    +0.000 A 
ATOM     14  C   UNL     1       1.520   9.911  19.036  0.00  0.00    +0.000 A 
ATOM     15 CL   UNL     1       1.946  10.912  17.702  0.00  0.00    +0.000 Cl
ATOM     16  C   UNL     1       1.979   8.593  19.085  0.00  0.00    +0.000 A 
ENDBRANCH   7  10
BRANCH   1  20
ATOM     17  C   UNL     1       6.384   5.111  15.866  0.00  0.00    +0.000 A 
ATOM     18  C   UNL     1       5.376   4.144  15.671  0.00  0.00    +0.000 A 
ATOM     19  C   UNL     1       4.638   3.646  16.741  0.00  0.00    +0.000 A 
ATOM     20  C   UNL     1       4.933   4.073  18.033  0.00  0.00    +0.000 A 
ATOM     21  C   UNL     1       6.018   4.932  18.242  0.00  0.00    +0.000 A 
ATOM     22  C   UNL     1       6.759   5.455  17.170  0.00  0.00    +0.000 A 
BRANCH  17  24
ATOM     23  C   UNL     1       7.200   4.821  13.683  0.00  0.00    +0.000 C 
ATOM     24  O   UNL     1       6.995   5.702  14.792  0.00  0.00    +0.000 OA
ENDBRANCH  17  24
BRANCH  22  25
ATOM     25  O   UNL     1       7.789   6.238  17.605  0.00  0.00    +0.000 OA
BRANCH  25  26
ATOM     26  C   UNL     1       7.594   7.480  18.273  0.00  0.00    +0.000 C 
ATOM     27  C   UNL     1       8.827   7.897  19.067  0.00  0.00    +0.000 C 
ATOM     28  C   UNL     1       8.909   9.412  18.969  0.00  0.00    +0.000 C 
ATOM     29  C   UNL     1       8.168   9.810  17.702  0.00  0.00    +0.000 C 
ATOM     30  C   UNL     1       7.482   8.556  17.181  0.00  0.00    +0.000 C 
ENDBRANCH  25  26
ENDBRANCH  22  25
ENDBRANCH   1  20
TORSDOF 5
ENDMDL
