MODEL 1
REMARK VINA RESULT:      -8.1      0.000      0.000
REMARK  Name = 
REMARK  6 active torsions:
REMARK  status: ('A' for Active; 'I' for Inactive)
REMARK    1  A    between atoms: C_1  and  O_2
REMARK    2  A    between atoms: O_2  and  C_3
REMARK    3  A    between atoms: C_6  and  N_7
REMARK    4  A    between atoms: C_18  and  C_19
REMARK    5  A    between atoms: C_24  and  O_25
REMARK    6  A    between atoms: O_25  and  C_26
REMARK                            x       y       z     vdW  Elec       q    Type
REMARK                         _______ _______ _______ _____ _____    ______ ____
ROOT
ATOM      1  N   UNL     1       7.432   8.596  17.534  0.00  0.00    +0.000 N 
ATOM      2  C   UNL     1       7.472   7.274  17.909  0.00  0.00    +0.000 C 
ATOM      3  O   UNL     1       8.136   6.835  18.845  0.00  0.00    +0.000 OA
ATOM      4  N   UNL     1       6.740   6.405  17.144  0.00  0.00    +0.000 N 
ATOM      5  C   UNL     1       5.783   6.589  16.061  0.00  0.00    +0.000 C 
ATOM      6  C   UNL     1       6.060   5.355  15.175  0.00  0.00    +0.000 C 
ATOM      7  C   UNL     1       6.747   4.340  16.112  0.00  0.00    +0.000 C 
ATOM      8  C   UNL     1       6.681   4.994  17.492  0.00  0.00    +0.000 C 
ATOM      9  C   UNL     1       5.342   4.733  18.126  0.00  0.00    +0.000 A 
ATOM     10  C   UNL     1       5.144   3.800  19.117  0.00  0.00    +0.000 A 
ATOM     11  N   UNL     1       3.936   3.534  19.646  0.00  0.00    +0.000 NA
ATOM     12  C   UNL     1       2.896   4.243  19.163  0.00  0.00    +0.000 A 
ATOM     13  C   UNL     1       1.544   3.968  19.742  0.00  0.00    +0.000 C 
ATOM     14  N   UNL     1       2.982   5.183  18.197  0.00  0.00    +0.000 NA
ATOM     15  C   UNL     1       4.211   5.419  17.693  0.00  0.00    +0.000 A 
ATOM     16  C   UNL     1       4.352   6.521  16.655  0.00  0.00    +0.000 C 
ATOM     17  H   UNL     1       6.667   8.889  16.950  0.00  0.00    +0.000 HD
ENDROOT
BRANCH   1  21
ATOM     18  C   UNL     1       9.897  11.721  19.043  0.00  0.00    +0.000 A 
ATOM     19  C   UNL     1       9.943  10.446  19.611  0.00  0.00    +0.000 A 
ATOM     20  C   UNL     1       9.153   9.407  19.114  0.00  0.00    +0.000 A 
ATOM     21  C   UNL     1       8.254   9.622  18.072  0.00  0.00    +0.000 A 
ATOM     22  C   UNL     1       8.176  10.907  17.529  0.00  0.00    +0.000 A 
ATOM     23  C   UNL     1       8.978  11.967  18.010  0.00  0.00    +0.000 A 
BRANCH  18  25
ATOM     24  C   UNL     1      12.063  12.366  19.776  0.00  0.00    +0.000 C 
ATOM     25  O   UNL     1      10.712  12.726  19.491  0.00  0.00    +0.000 OA
ENDBRANCH  18  25
BRANCH  23  26
ATOM     26  O   UNL     1       8.734  13.146  17.351  0.00  0.00    +0.000 OA
ATOM     27  C   UNL     1       7.770  14.043  17.883  0.00  0.00    +0.000 C 
ENDBRANCH  23  26
ENDBRANCH   1  21
TORSDOF 3
ENDMDL
MODEL 2
REMARK VINA RESULT:      -7.7      5.004      7.287
REMARK  Name = 
REMARK  6 active torsions:
REMARK  status: ('A' for Active; 'I' for Inactive)
REMARK    1  A    between atoms: C_1  and  O_2
REMARK    2  A    between atoms: O_2  and  C_3
REMARK    3  A    between atoms: C_6  and  N_7
REMARK    4  A    between atoms: C_18  and  C_19
REMARK    5  A    between atoms: C_24  and  O_25
REMARK    6  A    between atoms: O_25  and  C_26
REMARK                            x       y       z     vdW  Elec       q    Type
REMARK                         _______ _______ _______ _____ _____    ______ ____
ROOT
ATOM      1  N   UNL     1       2.973   7.370  19.134  0.00  0.00    +0.000 N 
ATOM      2  C   UNL     1       2.896   6.282  18.297  0.00  0.00    +0.000 C 
ATOM      3  O   UNL     1       1.956   6.050  17.542  0.00  0.00    +0.000 OA
ATOM      4  N   UNL     1       3.937   5.394  18.362  0.00  0.00    +0.000 N 
ATOM      5  C   UNL     1       5.225   5.410  19.044  0.00  0.00    +0.000 C 
ATOM      6  C   UNL     1       5.418   3.920  19.398  0.00  0.00    +0.000 C 
ATOM      7  C   UNL     1       4.503   3.156  18.418  0.00  0.00    +0.000 C 
ATOM      8  C   UNL     1       3.968   4.238  17.479  0.00  0.00    +0.000 C 
ATOM      9  C   UNL     1       4.968   4.518  16.389  0.00  0.00    +0.000 A 
ATOM     10  C   UNL     1       4.836   4.050  15.104  0.00  0.00    +0.000 A 
ATOM     11  N   UNL     1       5.756   4.260  14.145  0.00  0.00    +0.000 NA
ATOM     12  C   UNL     1       6.841   4.977  14.499  0.00  0.00    +0.000 A 
ATOM     13  C   UNL     1       7.875   5.230  13.446  0.00  0.00    +0.000 C 
ATOM     14  N   UNL     1       7.066   5.487  15.729  0.00  0.00    +0.000 NA
ATOM     15  C   UNL     1       6.118   5.253  16.660  0.00  0.00    +0.000 A 
ATOM     16  C   UNL     1       6.308   5.873  18.035  0.00  0.00    +0.000 C 
ATOM     17  H   UNL     1       3.881   7.612  19.498  0.00  0.00    +0.000 HD
ENDROOT
BRANCH   1  21
ATOM     18  C   UNL     1      -0.218  10.091  19.864  0.00  0.00    +0.000 A 
ATOM     19  C   UNL     1       0.546  10.191  18.699  0.00  0.00    +0.000 A 
ATOM     20  C   UNL     1       1.584   9.293  18.438  0.00  0.00    +0.000 A 
ATOM     21  C   UNL     1       1.927   8.304  19.358  0.00  0.00    +0.000 A 
ATOM     22  C   UNL     1       1.193   8.229  20.544  0.00  0.00    +0.000 A 
ATOM     23  C   UNL     1       0.129   9.120  20.817  0.00  0.00    +0.000 A 
BRANCH  18  25
ATOM     24  C   UNL     1      -1.741  11.682  18.975  0.00  0.00    +0.000 C 
ATOM     25  O   UNL     1      -1.272  10.934  20.095  0.00  0.00    +0.000 OA
ENDBRANCH  18  25
BRANCH  23  26
ATOM     26  O   UNL     1      -0.448   8.883  22.040  0.00  0.00    +0.000 OA
ATOM     27  C   UNL     1      -0.026   9.650  23.158  0.00  0.00    +0.000 C 
ENDBRANCH  23  26
ENDBRANCH   1  21
TORSDOF 3
ENDMDL
MODEL 3
REMARK VINA RESULT:      -7.5      5.008      6.910
REMARK  Name = 
REMARK  6 active torsions:
REMARK  status: ('A' for Active; 'I' for Inactive)
REMARK    1  A    between atoms: C_1  and  O_2
REMARK    2  A    between atoms: O_2  and  C_3
REMARK    3  A    between atoms: C_6  and  N_7
REMARK    4  A    between atoms: C_18  and  C_19
REMARK    5  A    between atoms: C_24  and  O_25
REMARK    6  A    between atoms: O_25  and  C_26
REMARK                            x       y       z     vdW  Elec       q    Type
REMARK                         _______ _______ _______ _____ _____    ______ ____
ROOT
ATOM      1  N   UNL     1       2.810   6.791  19.713  0.00  0.00    +0.000 N 
ATOM      2  C   UNL     1       2.670   5.894  18.680  0.00  0.00    +0.000 C 
ATOM      3  O   UNL     1       1.765   5.923  17.851  0.00  0.00    +0.000 OA
ATOM      4  N   UNL     1       3.598   4.888  18.623  0.00  0.00    +0.000 N 
ATOM      5  C   UNL     1       4.828   4.618  19.356  0.00  0.00    +0.000 C 
ATOM      6  C   UNL     1       4.826   3.076  19.427  0.00  0.00    +0.000 C 
ATOM      7  C   UNL     1       3.902   2.626  18.276  0.00  0.00    +0.000 C 
ATOM      8  C   UNL     1       3.560   3.920  17.537  0.00  0.00    +0.000 C 
ATOM      9  C   UNL     1       4.659   4.271  16.571  0.00  0.00    +0.000 A 
ATOM     10  C   UNL     1       4.565   4.067  15.214  0.00  0.00    +0.000 A 
ATOM     11  N   UNL     1       5.568   4.335  14.358  0.00  0.00    +0.000 NA
ATOM     12  C   UNL     1       6.699   4.835  14.894  0.00  0.00    +0.000 A 
ATOM     13  C   UNL     1       7.826   5.148  13.959  0.00  0.00    +0.000 C 
ATOM     14  N   UNL     1       6.893   5.078  16.208  0.00  0.00    +0.000 NA
ATOM     15  C   UNL     1       5.862   4.795  17.032  0.00  0.00    +0.000 A 
ATOM     16  C   UNL     1       6.024   5.122  18.507  0.00  0.00    +0.000 C 
ATOM     17  H   UNL     1       3.711   6.848  20.159  0.00  0.00    +0.000 HD
ENDROOT
BRANCH   1  21
ATOM     18  C   UNL     1       0.037   9.863  20.707  0.00  0.00    +0.000 A 
ATOM     19  C   UNL     1       0.164   8.734  21.519  0.00  0.00    +0.000 A 
ATOM     20  C   UNL     1       1.084   7.728  21.215  0.00  0.00    +0.000 A 
ATOM     21  C   UNL     1       1.863   7.790  20.062  0.00  0.00    +0.000 A 
ATOM     22  C   UNL     1       1.706   8.898  19.225  0.00  0.00    +0.000 A 
ATOM     23  C   UNL     1       0.791   9.933  19.525  0.00  0.00    +0.000 A 
BRANCH  18  25
ATOM     24  C   UNL     1      -0.874  11.246  22.411  0.00  0.00    +0.000 C 
ATOM     25  O   UNL     1      -0.823  10.878  21.034  0.00  0.00    +0.000 OA
ENDBRANCH  18  25
BRANCH  23  26
ATOM     26  O   UNL     1       0.784  10.916  18.567  0.00  0.00    +0.000 OA
ATOM     27  C   UNL     1       1.662  12.023  18.712  0.00  0.00    +0.000 C 
ENDBRANCH  23  26
ENDBRANCH   1  21
TORSDOF 3
ENDMDL
MODEL 4
REMARK VINA RESULT:      -7.5      5.114      7.296
REMARK  Name = 
REMARK  6 active torsions:
REMARK  status: ('A' for Active; 'I' for Inactive)
REMARK    1  A    between atoms: C_1  and  O_2
REMARK    2  A    between atoms: O_2  and  C_3
REMARK    3  A    between atoms: C_6  and  N_7
REMARK    4  A    between atoms: C_18  and  C_19
REMARK    5  A    between atoms: C_24  and  O_25
REMARK    6  A    between atoms: O_25  and  C_26
REMARK                            x       y       z     vdW  Elec       q    Type
REMARK                         _______ _______ _______ _____ _____    ______ ____
ROOT
ATOM      1  N   UNL     1       1.363   7.455  20.904  0.00  0.00    +0.000 N 
ATOM      2  C   UNL     1       1.720   7.230  19.596  0.00  0.00    +0.000 C 
ATOM      3  O   UNL     1       1.753   8.095  18.724  0.00  0.00    +0.000 OA
ATOM      4  N   UNL     1       2.017   5.935  19.263  0.00  0.00    +0.000 N 
ATOM      5  C   UNL     1       2.180   4.714  20.043  0.00  0.00    +0.000 C 
ATOM      6  C   UNL     1       1.631   3.643  19.076  0.00  0.00    +0.000 C 
ATOM      7  C   UNL     1       1.726   4.284  17.676  0.00  0.00    +0.000 C 
ATOM      8  C   UNL     1       2.453   5.608  17.914  0.00  0.00    +0.000 C 
ATOM      9  C   UNL     1       3.940   5.381  17.954  0.00  0.00    +0.000 A 
ATOM     10  C   UNL     1       4.780   5.690  16.910  0.00  0.00    +0.000 A 
ATOM     11  N   UNL     1       6.101   5.441  16.929  0.00  0.00    +0.000 NA
ATOM     12  C   UNL     1       6.590   4.868  18.047  0.00  0.00    +0.000 A 
ATOM     13  C   UNL     1       8.060   4.587  18.094  0.00  0.00    +0.000 C 
ATOM     14  N   UNL     1       5.856   4.530  19.129  0.00  0.00    +0.000 NA
ATOM     15  C   UNL     1       4.535   4.797  19.069  0.00  0.00    +0.000 A 
ATOM     16  C   UNL     1       3.694   4.493  20.298  0.00  0.00    +0.000 C 
ATOM     17  H   UNL     1       1.629   6.760  21.583  0.00  0.00    +0.000 HD
ENDROOT
BRANCH   1  21
ATOM     18  C   UNL     1      -0.102  11.170  22.378  0.00  0.00    +0.000 A 
ATOM     19  C   UNL     1      -0.378   9.980  23.056  0.00  0.00    +0.000 A 
ATOM     20  C   UNL     1       0.112   8.757  22.594  0.00  0.00    +0.000 A 
ATOM     21  C   UNL     1       0.845   8.676  21.411  0.00  0.00    +0.000 A 
ATOM     22  C   UNL     1       1.086   9.859  20.708  0.00  0.00    +0.000 A 
ATOM     23  C   UNL     1       0.610  11.108  21.169  0.00  0.00    +0.000 A 
BRANCH  18  25
ATOM     24  C   UNL     1      -1.941  12.606  22.827  0.00  0.00    +0.000 C 
ATOM     25  O   UNL     1      -0.533  12.377  22.860  0.00  0.00    +0.000 OA
ENDBRANCH  18  25
BRANCH  23  26
ATOM     26  O   UNL     1       0.944  12.137  20.324  0.00  0.00    +0.000 OA
ATOM     27  C   UNL     1       1.248  11.841  18.968  0.00  0.00    +0.000 C 
ENDBRANCH  23  26
ENDBRANCH   1  21
TORSDOF 3
ENDMDL
MODEL 5
REMARK VINA RESULT:      -7.5      1.202      1.667
REMARK  Name = 
REMARK  6 active torsions:
REMARK  status: ('A' for Active; 'I' for Inactive)
REMARK    1  A    between atoms: C_1  and  O_2
REMARK    2  A    between atoms: O_2  and  C_3
REMARK    3  A    between atoms: C_6  and  N_7
REMARK    4  A    between atoms: C_18  and  C_19
REMARK    5  A    between atoms: C_24  and  O_25
REMARK    6  A    between atoms: O_25  and  C_26
REMARK                            x       y       z     vdW  Elec       q    Type
REMARK                         _______ _______ _______ _____ _____    ______ ____
ROOT
ATOM      1  N   UNL     1       7.782   8.711  17.683  0.00  0.00    +0.000 N 
ATOM      2  C   UNL     1       7.753   7.388  18.056  0.00  0.00    +0.000 C 
ATOM      3  O   UNL     1       8.393   6.913  18.991  0.00  0.00    +0.000 OA
ATOM      4  N   UNL     1       6.979   6.559  17.288  0.00  0.00    +0.000 N 
ATOM      5  C   UNL     1       6.033   6.794  16.204  0.00  0.00    +0.000 C 
ATOM      6  C   UNL     1       6.248   5.549  15.317  0.00  0.00    +0.000 C 
ATOM      7  C   UNL     1       6.880   4.498  16.252  0.00  0.00    +0.000 C 
ATOM      8  C   UNL     1       6.847   5.152  17.634  0.00  0.00    +0.000 C 
ATOM      9  C   UNL     1       5.495   4.959  18.266  0.00  0.00    +0.000 A 
ATOM     10  C   UNL     1       5.248   4.036  19.255  0.00  0.00    +0.000 A 
ATOM     11  N   UNL     1       4.028   3.831  19.782  0.00  0.00    +0.000 NA
ATOM     12  C   UNL     1       3.027   4.593  19.299  0.00  0.00    +0.000 A 
ATOM     13  C   UNL     1       1.661   4.387  19.876  0.00  0.00    +0.000 C 
ATOM     14  N   UNL     1       3.161   5.530  18.335  0.00  0.00    +0.000 NA
ATOM     15  C   UNL     1       4.402   5.703  17.833  0.00  0.00    +0.000 A 
ATOM     16  C   UNL     1       4.599   6.798  16.797  0.00  0.00    +0.000 C 
ATOM     17  H   UNL     1       7.033   9.044  17.098  0.00  0.00    +0.000 HD
ENDROOT
BRANCH   1  21
ATOM     18  C   UNL     1      10.321  11.672  19.386  0.00  0.00    +0.000 A 
ATOM     19  C   UNL     1      10.339  11.430  18.010  0.00  0.00    +0.000 A 
ATOM     20  C   UNL     1       9.497  10.474  17.436  0.00  0.00    +0.000 A 
ATOM     21  C   UNL     1       8.654   9.693  18.223  0.00  0.00    +0.000 A 
ATOM     22  C   UNL     1       8.665   9.904  19.604  0.00  0.00    +0.000 A 
ATOM     23  C   UNL     1       9.500  10.877  20.201  0.00  0.00    +0.000 A 
BRANCH  18  25
ATOM     24  C   UNL     1      11.254  13.848  19.186  0.00  0.00    +0.000 C 
ATOM     25  O   UNL     1      11.103  12.649  19.944  0.00  0.00    +0.000 OA
ENDBRANCH  18  25
BRANCH  23  26
ATOM     26  O   UNL     1       9.367  10.910  21.567  0.00  0.00    +0.000 OA
ATOM     27  C   UNL     1       8.462  11.839  22.146  0.00  0.00    +0.000 C 
ENDBRANCH  23  26
ENDBRANCH   1  21
TORSDOF 3
ENDMDL
MODEL 6
REMARK VINA RESULT:      -7.2      7.154      9.875
REMARK  Name = 
REMARK  6 active torsions:
REMARK  status: ('A' for Active; 'I' for Inactive)
REMARK    1  A    between atoms: C_1  and  O_2
REMARK    2  A    between atoms: O_2  and  C_3
REMARK    3  A    between atoms: C_6  and  N_7
REMARK    4  A    between atoms: C_18  and  C_19
REMARK    5  A    between atoms: C_24  and  O_25
REMARK    6  A    between atoms: O_25  and  C_26
REMARK                            x       y       z     vdW  Elec       q    Type
REMARK                         _______ _______ _______ _____ _____    ______ ____
ROOT
ATOM      1  N   UNL     1       1.508   9.592  19.611  0.00  0.00    +0.000 N 
ATOM      2  C   UNL     1       0.474  10.252  18.990  0.00  0.00    +0.000 C 
ATOM      3  O   UNL     1      -0.247   9.761  18.126  0.00  0.00    +0.000 OA
ATOM      4  N   UNL     1       0.285  11.559  19.353  0.00  0.00    +0.000 N 
ATOM      5  C   UNL     1       0.867  12.404  20.388  0.00  0.00    +0.000 C 
ATOM      6  C   UNL     1       0.897  13.784  19.696  0.00  0.00    +0.000 C 
ATOM      7  C   UNL     1      -0.154  13.687  18.571  0.00  0.00    +0.000 C 
ATOM      8  C   UNL     1      -0.814  12.325  18.786  0.00  0.00    +0.000 C 
ATOM      9  C   UNL     1      -1.889  12.430  19.834  0.00  0.00    +0.000 A 
ATOM     10  C   UNL     1      -3.232  12.469  19.539  0.00  0.00    +0.000 A 
ATOM     11  N   UNL     1      -4.187  12.613  20.474  0.00  0.00    +0.000 NA
ATOM     12  C   UNL     1      -3.770  12.713  21.752  0.00  0.00    +0.000 A 
ATOM     13  C   UNL     1      -4.817  12.867  22.810  0.00  0.00    +0.000 C 
ATOM     14  N   UNL     1      -2.480  12.681  22.150  0.00  0.00    +0.000 NA
ATOM     15  C   UNL     1      -1.553  12.535  21.180  0.00  0.00    +0.000 A 
ATOM     16  C   UNL     1      -0.097  12.425  21.603  0.00  0.00    +0.000 C 
ATOM     17  H   UNL     1       1.851   9.978  20.476  0.00  0.00    +0.000 HD
ENDROOT
BRANCH   1  21
ATOM     18  C   UNL     1       2.967   5.712  18.645  0.00  0.00    +0.000 A 
ATOM     19  C   UNL     1       3.078   6.759  17.727  0.00  0.00    +0.000 A 
ATOM     20  C   UNL     1       2.620   8.042  18.039  0.00  0.00    +0.000 A 
ATOM     21  C   UNL     1       1.988   8.305  19.252  0.00  0.00    +0.000 A 
ATOM     22  C   UNL     1       1.838   7.249  20.155  0.00  0.00    +0.000 A 
ATOM     23  C   UNL     1       2.308   5.948  19.862  0.00  0.00    +0.000 A 
BRANCH  18  25
ATOM     24  C   UNL     1       4.812   4.221  18.768  0.00  0.00    +0.000 C 
ATOM     25  O   UNL     1       3.466   4.468  18.365  0.00  0.00    +0.000 OA
ENDBRANCH  18  25
BRANCH  23  26
ATOM     26  O   UNL     1       2.046   5.060  20.875  0.00  0.00    +0.000 OA
ATOM     27  C   UNL     1       1.154   3.982  20.629  0.00  0.00    +0.000 C 
ENDBRANCH  23  26
ENDBRANCH   1  21
TORSDOF 3
ENDMDL
MODEL 7
REMARK VINA RESULT:      -7.2      2.809      8.389
REMARK  Name = 
REMARK  6 active torsions:
REMARK  status: ('A' for Active; 'I' for Inactive)
REMARK    1  A    between atoms: C_1  and  O_2
REMARK    2  A    between atoms: O_2  and  C_3
REMARK    3  A    between atoms: C_6  and  N_7
REMARK    4  A    between atoms: C_18  and  C_19
REMARK    5  A    between atoms: C_24  and  O_25
REMARK    6  A    between atoms: O_25  and  C_26
REMARK                            x       y       z     vdW  Elec       q    Type
REMARK                         _______ _______ _______ _____ _____    ______ ____
ROOT
ATOM      1  N   UNL     1       8.868   8.724  18.742  0.00  0.00    +0.000 N 
ATOM      2  C   UNL     1       8.613   9.958  18.190  0.00  0.00    +0.000 C 
ATOM      3  O   UNL     1       7.633  10.222  17.499  0.00  0.00    +0.000 OA
ATOM      4  N   UNL     1       9.556  10.927  18.411  0.00  0.00    +0.000 N 
ATOM      5  C   UNL     1      10.749  10.990  19.246  0.00  0.00    +0.000 C 
ATOM      6  C   UNL     1      11.691  11.865  18.391  0.00  0.00    +0.000 C 
ATOM      7  C   UNL     1      10.758  12.641  17.439  0.00  0.00    +0.000 C 
ATOM      8  C   UNL     1       9.349  12.276  17.908  0.00  0.00    +0.000 C 
ATOM      9  C   UNL     1       8.950  13.144  19.071  0.00  0.00    +0.000 A 
ATOM     10  C   UNL     1       8.089  14.210  18.958  0.00  0.00    +0.000 A 
ATOM     11  N   UNL     1       7.773  15.014  19.989  0.00  0.00    +0.000 NA
ATOM     12  C   UNL     1       8.341  14.722  21.177  0.00  0.00    +0.000 A 
ATOM     13  C   UNL     1       7.998  15.599  22.340  0.00  0.00    +0.000 C 
ATOM     14  N   UNL     1       9.193  13.698  21.397  0.00  0.00    +0.000 NA
ATOM     15  C   UNL     1       9.483  12.917  20.336  0.00  0.00    +0.000 A 
ATOM     16  C   UNL     1      10.384  11.714  20.568  0.00  0.00    +0.000 C 
ATOM     17  H   UNL     1       9.532   8.684  19.498  0.00  0.00    +0.000 HD
ENDROOT
BRANCH   1  21
ATOM     18  C   UNL     1       6.551   5.250  17.920  0.00  0.00    +0.000 A 
ATOM     19  C   UNL     1       7.428   5.276  19.007  0.00  0.00    +0.000 A 
ATOM     20  C   UNL     1       8.180   6.417  19.299  0.00  0.00    +0.000 A 
ATOM     21  C   UNL     1       8.123   7.544  18.483  0.00  0.00    +0.000 A 
ATOM     22  C   UNL     1       7.279   7.505  17.370  0.00  0.00    +0.000 A 
ATOM     23  C   UNL     1       6.499   6.365  17.068  0.00  0.00    +0.000 A 
BRANCH  18  25
ATOM     24  C   UNL     1       4.709   3.906  18.585  0.00  0.00    +0.000 C 
ATOM     25  O   UNL     1       5.770   4.154  17.665  0.00  0.00    +0.000 OA
ENDBRANCH  18  25
BRANCH  23  26
ATOM     26  O   UNL     1       5.755   6.531  15.927  0.00  0.00    +0.000 OA
ATOM     27  C   UNL     1       5.717   5.478  14.973  0.00  0.00    +0.000 C 
ENDBRANCH  23  26
ENDBRANCH   1  21
TORSDOF 3
ENDMDL
MODEL 8
REMARK VINA RESULT:      -7.2      5.014      8.763
REMARK  Name = 
REMARK  6 active torsions:
REMARK  status: ('A' for Active; 'I' for Inactive)
REMARK    1  A    between atoms: C_1  and  O_2
REMARK    2  A    between atoms: O_2  and  C_3
REMARK    3  A    between atoms: C_6  and  N_7
REMARK    4  A    between atoms: C_18  and  C_19
REMARK    5  A    between atoms: C_24  and  O_25
REMARK    6  A    between atoms: O_25  and  C_26
REMARK                            x       y       z     vdW  Elec       q    Type
REMARK                         _______ _______ _______ _____ _____    ______ ____
ROOT
ATOM      1  N   UNL     1       2.239   7.275  19.004  0.00  0.00    +0.000 N 
ATOM      2  C   UNL     1       1.574   8.105  19.876  0.00  0.00    +0.000 C 
ATOM      3  O   UNL     1       1.523   7.941  21.092  0.00  0.00    +0.000 OA
ATOM      4  N   UNL     1       0.901   9.158  19.314  0.00  0.00    +0.000 N 
ATOM      5  C   UNL     1       0.838   9.698  17.962  0.00  0.00    +0.000 C 
ATOM      6  C   UNL     1      -0.623  10.191  17.882  0.00  0.00    +0.000 C 
ATOM      7  C   UNL     1      -1.062  10.372  19.350  0.00  0.00    +0.000 C 
ATOM      8  C   UNL     1       0.210  10.119  20.160  0.00  0.00    +0.000 C 
ATOM      9  C   UNL     1       1.046  11.369  20.214  0.00  0.00    +0.000 A 
ATOM     10  C   UNL     1       1.113  12.186  21.318  0.00  0.00    +0.000 A 
ATOM     11  N   UNL     1       1.822  13.329  21.346  0.00  0.00    +0.000 NA
ATOM     12  C   UNL     1       2.494  13.649  20.222  0.00  0.00    +0.000 A 
ATOM     13  C   UNL     1       3.295  14.913  20.233  0.00  0.00    +0.000 C 
ATOM     14  N   UNL     1       2.501  12.915  19.089  0.00  0.00    +0.000 NA
ATOM     15  C   UNL     1       1.777  11.777  19.102  0.00  0.00    +0.000 A 
ATOM     16  C   UNL     1       1.821  10.894  17.866  0.00  0.00    +0.000 C 
ATOM     17  H   UNL     1       2.450   7.637  18.088  0.00  0.00    +0.000 HD
ENDROOT
BRANCH   1  21
ATOM     18  C   UNL     1       4.104   3.570  19.961  0.00  0.00    +0.000 A 
ATOM     19  C   UNL     1       2.776   3.809  20.322  0.00  0.00    +0.000 A 
ATOM     20  C   UNL     1       2.146   5.013  19.997  0.00  0.00    +0.000 A 
ATOM     21  C   UNL     1       2.839   6.036  19.354  0.00  0.00    +0.000 A 
ATOM     22  C   UNL     1       4.179   5.816  19.029  0.00  0.00    +0.000 A 
ATOM     23  C   UNL     1       4.829   4.598  19.337  0.00  0.00    +0.000 A 
BRANCH  18  25
ATOM     24  C   UNL     1       4.410   1.300  19.330  0.00  0.00    +0.000 C 
ATOM     25  O   UNL     1       4.706   2.369  20.227  0.00  0.00    +0.000 OA
ENDBRANCH  18  25
BRANCH  23  26
ATOM     26  O   UNL     1       6.145   4.596  18.946  0.00  0.00    +0.000 OA
ATOM     27  C   UNL     1       6.451   4.725  17.565  0.00  0.00    +0.000 C 
ENDBRANCH  23  26
ENDBRANCH   1  21
TORSDOF 3
ENDMDL
MODEL 9
REMARK VINA RESULT:      -7.1      5.239      7.209
REMARK  Name = 
REMARK  6 active torsions:
REMARK  status: ('A' for Active; 'I' for Inactive)
REMARK    1  A    between atoms: C_1  and  O_2
REMARK    2  A    between atoms: O_2  and  C_3
REMARK    3  A    between atoms: C_6  and  N_7
REMARK    4  A    between atoms: C_18  and  C_19
REMARK    5  A    between atoms: C_24  and  O_25
REMARK    6  A    between atoms: O_25  and  C_26
REMARK                            x       y       z     vdW  Elec       q    Type
REMARK                         _______ _______ _______ _____ _____    ______ ____
ROOT
ATOM      1  N   UNL     1       1.573   8.247  19.893  0.00  0.00    +0.000 N 
ATOM      2  C   UNL     1       1.877   7.628  18.703  0.00  0.00    +0.000 C 
ATOM      3  O   UNL     1       1.906   8.192  17.612  0.00  0.00    +0.000 OA
ATOM      4  N   UNL     1       2.122   6.282  18.766  0.00  0.00    +0.000 N 
ATOM      5  C   UNL     1       2.273   5.344  19.871  0.00  0.00    +0.000 C 
ATOM      6  C   UNL     1       1.658   4.055  19.282  0.00  0.00    +0.000 C 
ATOM      7  C   UNL     1       1.723   4.246  17.753  0.00  0.00    +0.000 C 
ATOM      8  C   UNL     1       2.499   5.550  17.567  0.00  0.00    +0.000 C 
ATOM      9  C   UNL     1       3.979   5.286  17.637  0.00  0.00    +0.000 A 
ATOM     10  C   UNL     1       4.791   5.236  16.528  0.00  0.00    +0.000 A 
ATOM     11  N   UNL     1       6.104   4.951  16.589  0.00  0.00    +0.000 NA
ATOM     12  C   UNL     1       6.614   4.718  17.815  0.00  0.00    +0.000 A 
ATOM     13  C   UNL     1       8.074   4.405  17.909  0.00  0.00    +0.000 C 
ATOM     14  N   UNL     1       5.908   4.748  18.966  0.00  0.00    +0.000 NA
ATOM     15  C   UNL     1       4.594   5.038  18.860  0.00  0.00    +0.000 A 
ATOM     16  C   UNL     1       3.787   5.148  20.144  0.00  0.00    +0.000 C 
ATOM     17  H   UNL     1       1.840   7.776  20.741  0.00  0.00    +0.000 HD
ENDROOT
BRANCH   1  21
ATOM     18  C   UNL     1       0.114  12.218  20.364  0.00  0.00    +0.000 A 
ATOM     19  C   UNL     1       0.615  11.789  19.133  0.00  0.00    +0.000 A 
ATOM     20  C   UNL     1       1.079  10.482  18.959  0.00  0.00    +0.000 A 
ATOM     21  C   UNL     1       1.110   9.584  20.023  0.00  0.00    +0.000 A 
ATOM     22  C   UNL     1       0.649  10.023  21.266  0.00  0.00    +0.000 A 
ATOM     23  C   UNL     1       0.162  11.337  21.456  0.00  0.00    +0.000 A 
BRANCH  18  25
ATOM     24  C   UNL     1      -0.340  14.331  19.378  0.00  0.00    +0.000 C 
ATOM     25  O   UNL     1      -0.395  13.480  20.522  0.00  0.00    +0.000 OA
ENDBRANCH  18  25
BRANCH  23  26
ATOM     26  O   UNL     1      -0.225  11.566  22.753  0.00  0.00    +0.000 OA
ATOM     27  C   UNL     1      -1.573  11.309  23.123  0.00  0.00    +0.000 C 
ENDBRANCH  23  26
ENDBRANCH   1  21
TORSDOF 3
ENDMDL
