MODEL 1
REMARK VINA RESULT:      -6.7      0.000      0.000
REMARK  Name = 
REMARK  9 active torsions:
REMARK  status: ('A' for Active; 'I' for Inactive)
REMARK    1  A    between atoms: C_1  and  C_2
REMARK    2  A    between atoms: C_2  and  C_3
REMARK    3  A    between atoms: C_3  and  C_4
REMARK    4  A    between atoms: C_11  and  O_12
REMARK    5  A    between atoms: O_12  and  C_13
REMARK    6  A    between atoms: N_17  and  C_18
REMARK    7  A    between atoms: C_21  and  S_22
REMARK    8  A    between atoms: S_22  and  C_23
REMARK    9  A    between atoms: C_29  and  C_30
REMARK                            x       y       z     vdW  Elec       q    Type
REMARK                         _______ _______ _______ _____ _____    ______ ____
ROOT
ATOM      1  C   UNL     1       0.577   9.308  20.153  0.00  0.00    +0.000 A 
ATOM      2  C   UNL     1       1.000   8.160  20.688  0.00  0.00    +0.000 A 
ATOM      3  C   UNL     1       2.005   7.304  20.030  0.00  0.00    +0.000 A 
ATOM      4  O   UNL     1       2.366   6.328  20.692  0.00  0.00    +0.000 OA
ATOM      5  N   UNL     1       2.471   7.718  18.765  0.00  0.00    +0.000 N 
ATOM      6  C   UNL     1       1.970   8.907  18.222  0.00  0.00    +0.000 A 
ATOM      7  C   UNL     1       1.080   9.699  18.847  0.00  0.00    +0.000 A 
ATOM      8  C   UNL     1       0.615  10.993  18.237  0.00  0.00    +0.000 C 
ENDROOT
BRANCH   5   9
ATOM      9  C   UNL     1       3.532   6.960  18.115  0.00  0.00    +0.000 A 
ATOM     10  C   UNL     1       4.785   7.534  17.826  0.00  0.00    +0.000 A 
ATOM     11  C   UNL     1       5.752   6.870  17.064  0.00  0.00    +0.000 A 
ATOM     12  C   UNL     1       5.502   5.581  16.617  0.00  0.00    +0.000 A 
ATOM     13  C   UNL     1       4.304   4.947  16.941  0.00  0.00    +0.000 A 
ATOM     14  C   UNL     1       3.333   5.633  17.688  0.00  0.00    +0.000 A 
BRANCH  12  15
ATOM     15  S   UNL     1       6.672   4.786  15.547  0.00  0.00    +0.000 S 
ATOM     16  C   UNL     1       5.802   3.348  14.990  0.00  0.00    +0.000 C 
ATOM     17  O   UNL     1       6.883   5.656  14.405  0.00  0.00    +0.000 OA
ATOM     18  O   UNL     1       7.788   4.348  16.364  0.00  0.00    +0.000 OA
ENDBRANCH  12  15
ENDBRANCH   5   9
BRANCH   1  19
ATOM     19  O   UNL     1      -0.309  10.187  20.746  0.00  0.00    +0.000 OA
BRANCH  19  27
ATOM     20  C   UNL     1      -3.116  16.256  24.337  0.00  0.00    +0.000 A 
ATOM     21  C   UNL     1      -3.433  14.959  24.659  0.00  0.00    +0.000 A 
ATOM     22  N   UNL     1      -2.988  13.885  23.978  0.00  0.00    +0.000 NA
ATOM     23  C   UNL     1      -2.192  14.093  22.918  0.00  0.00    +0.000 A 
ATOM     24  N   UNL     1      -1.753  13.008  22.204  0.00  0.00    +0.000 N 
ATOM     25  C   UNL     1      -2.158  11.668  22.583  0.00  0.00    +0.000 C 
ATOM     26  C   UNL     1      -0.925  10.895  23.028  0.00  0.00    +0.000 C 
ATOM     27  C   UNL     1       0.140  10.889  21.923  0.00  0.00    +0.000 C 
ATOM     28  C   UNL     1       0.484  12.328  21.516  0.00  0.00    +0.000 C 
ATOM     29  C   UNL     1      -0.762  13.134  21.149  0.00  0.00    +0.000 C 
ATOM     30  N   UNL     1      -1.827  15.326  22.531  0.00  0.00    +0.000 NA
ATOM     31  C   UNL     1      -2.299  16.374  23.237  0.00  0.00    +0.000 A 
BRANCH  20  32
ATOM     32  C   UNL     1      -3.637  17.438  25.095  0.00  0.00    +0.000 C 
BRANCH  32  34
ATOM     33  C   UNL     1      -5.710  17.886  23.731  0.00  0.00    +0.000 C 
ATOM     34  C   UNL     1      -5.165  17.509  25.100  0.00  0.00    +0.000 C 
ENDBRANCH  32  34
ENDBRANCH  20  32
ENDBRANCH  19  27
ENDBRANCH   1  19
TORSDOF 6
ENDMDL
MODEL 2
REMARK VINA RESULT:      -6.7      0.615      1.011
REMARK  Name = 
REMARK  9 active torsions:
REMARK  status: ('A' for Active; 'I' for Inactive)
REMARK    1  A    between atoms: C_1  and  C_2
REMARK    2  A    between atoms: C_2  and  C_3
REMARK    3  A    between atoms: C_3  and  C_4
REMARK    4  A    between atoms: C_11  and  O_12
REMARK    5  A    between atoms: O_12  and  C_13
REMARK    6  A    between atoms: N_17  and  C_18
REMARK    7  A    between atoms: C_21  and  S_22
REMARK    8  A    between atoms: S_22  and  C_23
REMARK    9  A    between atoms: C_29  and  C_30
REMARK                            x       y       z     vdW  Elec       q    Type
REMARK                         _______ _______ _______ _____ _____    ______ ____
ROOT
ATOM      1  C   UNL     1       0.228   9.612  20.199  0.00  0.00    +0.000 A 
ATOM      2  C   UNL     1       0.753   8.518  20.758  0.00  0.00    +0.000 A 
ATOM      3  C   UNL     1       1.739   7.671  20.061  0.00  0.00    +0.000 A 
ATOM      4  O   UNL     1       2.204   6.754  20.741  0.00  0.00    +0.000 OA
ATOM      5  N   UNL     1       2.072   8.029  18.738  0.00  0.00    +0.000 N 
ATOM      6  C   UNL     1       1.467   9.159  18.176  0.00  0.00    +0.000 A 
ATOM      7  C   UNL     1       0.595   9.946  18.834  0.00  0.00    +0.000 A 
ATOM      8  C   UNL     1       0.015  11.178  18.196  0.00  0.00    +0.000 C 
ENDROOT
BRANCH   5   9
ATOM      9  C   UNL     1       3.110   7.281  18.040  0.00  0.00    +0.000 A 
ATOM     10  C   UNL     1       3.106   5.874  17.991  0.00  0.00    +0.000 A 
ATOM     11  C   UNL     1       4.175   5.142  17.464  0.00  0.00    +0.000 A 
ATOM     12  C   UNL     1       5.259   5.814  16.919  0.00  0.00    +0.000 A 
ATOM     13  C   UNL     1       5.272   7.208  16.881  0.00  0.00    +0.000 A 
ATOM     14  C   UNL     1       4.203   7.929  17.434  0.00  0.00    +0.000 A 
BRANCH  12  15
ATOM     15  S   UNL     1       6.670   4.892  16.365  0.00  0.00    +0.000 S 
ATOM     16  C   UNL     1       5.950   3.564  15.442  0.00  0.00    +0.000 C 
ATOM     17  O   UNL     1       7.409   5.734  15.444  0.00  0.00    +0.000 OA
ATOM     18  O   UNL     1       7.313   4.328  17.536  0.00  0.00    +0.000 OA
ENDBRANCH  12  15
ENDBRANCH   5   9
BRANCH   1  19
ATOM     19  O   UNL     1      -0.646  10.484  20.819  0.00  0.00    +0.000 OA
BRANCH  19  27
ATOM     20  C   UNL     1      -3.442  16.518  24.478  0.00  0.00    +0.000 A 
ATOM     21  C   UNL     1      -3.699  15.216  24.836  0.00  0.00    +0.000 A 
ATOM     22  N   UNL     1      -3.257  14.146  24.146  0.00  0.00    +0.000 NA
ATOM     23  C   UNL     1      -2.530  14.363  23.039  0.00  0.00    +0.000 A 
ATOM     24  N   UNL     1      -2.097  13.280  22.317  0.00  0.00    +0.000 N 
ATOM     25  C   UNL     1      -2.436  11.935  22.737  0.00  0.00    +0.000 C 
ATOM     26  C   UNL     1      -1.156  11.208  23.122  0.00  0.00    +0.000 C 
ATOM     27  C   UNL     1      -0.154  11.218  21.959  0.00  0.00    +0.000 C 
ATOM     28  C   UNL     1       0.119  12.660  21.513  0.00  0.00    +0.000 C 
ATOM     29  C   UNL     1      -1.171  13.421  21.206  0.00  0.00    +0.000 C 
ATOM     30  N   UNL     1      -2.228  15.600  22.615  0.00  0.00    +0.000 NA
ATOM     31  C   UNL     1      -2.693  16.644  23.332  0.00  0.00    +0.000 A 
BRANCH  20  32
ATOM     32  C   UNL     1      -3.957  17.694  25.248  0.00  0.00    +0.000 C 
BRANCH  32  34
ATOM     33  C   UNL     1      -6.081  17.944  23.912  0.00  0.00    +0.000 C 
ATOM     34  C   UNL     1      -4.812  18.631  24.391  0.00  0.00    +0.000 C 
ENDBRANCH  32  34
ENDBRANCH  20  32
ENDBRANCH  19  27
ENDBRANCH   1  19
TORSDOF 6
ENDMDL
MODEL 3
REMARK VINA RESULT:      -6.6      2.345      3.429
REMARK  Name = 
REMARK  9 active torsions:
REMARK  status: ('A' for Active; 'I' for Inactive)
REMARK    1  A    between atoms: C_1  and  C_2
REMARK    2  A    between atoms: C_2  and  C_3
REMARK    3  A    between atoms: C_3  and  C_4
REMARK    4  A    between atoms: C_11  and  O_12
REMARK    5  A    between atoms: O_12  and  C_13
REMARK    6  A    between atoms: N_17  and  C_18
REMARK    7  A    between atoms: C_21  and  S_22
REMARK    8  A    between atoms: S_22  and  C_23
REMARK    9  A    between atoms: C_29  and  C_30
REMARK                            x       y       z     vdW  Elec       q    Type
REMARK                         _______ _______ _______ _____ _____    ______ ____
ROOT
ATOM      1  C   UNL     1       0.377  10.881  21.162  0.00  0.00    +0.000 A 
ATOM      2  C   UNL     1       0.856  10.809  19.917  0.00  0.00    +0.000 A 
ATOM      3  C   UNL     1       1.474   9.583  19.377  0.00  0.00    +0.000 A 
ATOM      4  O   UNL     1       1.779   9.641  18.184  0.00  0.00    +0.000 OA
ATOM      5  N   UNL     1       1.595   8.485  20.254  0.00  0.00    +0.000 N 
ATOM      6  C   UNL     1       1.116   8.617  21.563  0.00  0.00    +0.000 A 
ATOM      7  C   UNL     1       0.522   9.728  22.035  0.00  0.00    +0.000 A 
ATOM      8  C   UNL     1      -0.019   9.794  23.436  0.00  0.00    +0.000 C 
ENDROOT
BRANCH   5   9
ATOM      9  C   UNL     1       2.111   7.222  19.743  0.00  0.00    +0.000 A 
ATOM     10  C   UNL     1       2.799   7.142  18.518  0.00  0.00    +0.000 A 
ATOM     11  C   UNL     1       3.158   5.919  17.942  0.00  0.00    +0.000 A 
ATOM     12  C   UNL     1       2.880   4.740  18.616  0.00  0.00    +0.000 A 
ATOM     13  C   UNL     1       2.264   4.775  19.866  0.00  0.00    +0.000 A 
ATOM     14  C   UNL     1       1.889   6.008  20.422  0.00  0.00    +0.000 A 
BRANCH  12  15
ATOM     15  S   UNL     1       3.220   3.185  17.832  0.00  0.00    +0.000 S 
ATOM     16  C   UNL     1       4.658   3.527  16.857  0.00  0.00    +0.000 C 
ATOM     17  O   UNL     1       3.593   2.243  18.871  0.00  0.00    +0.000 OA
ATOM     18  O   UNL     1       2.122   2.899  16.929  0.00  0.00    +0.000 OA
ENDBRANCH  12  15
ENDBRANCH   5   9
BRANCH   1  19
ATOM     19  O   UNL     1      -0.272  11.972  21.706  0.00  0.00    +0.000 OA
BRANCH  19  27
ATOM     20  C   UNL     1      -6.306  16.359  23.104  0.00  0.00    +0.000 A 
ATOM     21  C   UNL     1      -5.013  16.822  23.064  0.00  0.00    +0.000 A 
ATOM     22  N   UNL     1      -3.937  16.031  22.883  0.00  0.00    +0.000 NA
ATOM     23  C   UNL     1      -4.138  14.712  22.741  0.00  0.00    +0.000 A 
ATOM     24  N   UNL     1      -3.047  13.896  22.580  0.00  0.00    +0.000 N 
ATOM     25  C   UNL     1      -1.708  14.453  22.583  0.00  0.00    +0.000 C 
ATOM     26  C   UNL     1      -1.092  14.245  21.207  0.00  0.00    +0.000 C 
ATOM     27  C   UNL     1      -1.102  12.758  20.827  0.00  0.00    +0.000 C 
ATOM     28  C   UNL     1      -2.531  12.205  20.902  0.00  0.00    +0.000 C 
ATOM     29  C   UNL     1      -3.185  12.487  22.255  0.00  0.00    +0.000 C 
ATOM     30  N   UNL     1      -5.366  14.171  22.763  0.00  0.00    +0.000 NA
ATOM     31  C   UNL     1      -6.416  14.997  22.951  0.00  0.00    +0.000 A 
BRANCH  20  32
ATOM     32  C   UNL     1      -7.488  17.251  23.325  0.00  0.00    +0.000 C 
BRANCH  32  34
ATOM     33  C   UNL     1      -7.725  18.622  21.222  0.00  0.00    +0.000 C 
ATOM     34  C   UNL     1      -7.313  18.631  22.686  0.00  0.00    +0.000 C 
ENDBRANCH  32  34
ENDBRANCH  20  32
ENDBRANCH  19  27
ENDBRANCH   1  19
TORSDOF 6
ENDMDL
MODEL 4
REMARK VINA RESULT:      -6.6      4.526     12.569
REMARK  Name = 
REMARK  9 active torsions:
REMARK  status: ('A' for Active; 'I' for Inactive)
REMARK    1  A    between atoms: C_1  and  C_2
REMARK    2  A    between atoms: C_2  and  C_3
REMARK    3  A    between atoms: C_3  and  C_4
REMARK    4  A    between atoms: C_11  and  O_12
REMARK    5  A    between atoms: O_12  and  C_13
REMARK    6  A    between atoms: N_17  and  C_18
REMARK    7  A    between atoms: C_21  and  S_22
REMARK    8  A    between atoms: S_22  and  C_23
REMARK    9  A    between atoms: C_29  and  C_30
REMARK                            x       y       z     vdW  Elec       q    Type
REMARK                         _______ _______ _______ _____ _____    ______ ____
ROOT
ATOM      1  C   UNL     1      -0.870  10.758  20.230  0.00  0.00    +0.000 A 
ATOM      2  C   UNL     1      -0.789  11.341  21.430  0.00  0.00    +0.000 A 
ATOM      3  C   UNL     1      -1.693  12.432  21.840  0.00  0.00    +0.000 A 
ATOM      4  O   UNL     1      -1.560  12.799  23.010  0.00  0.00    +0.000 OA
ATOM      5  N   UNL     1      -2.626  12.887  20.886  0.00  0.00    +0.000 N 
ATOM      6  C   UNL     1      -2.648  12.277  19.626  0.00  0.00    +0.000 A 
ATOM      7  C   UNL     1      -1.843  11.257  19.274  0.00  0.00    +0.000 A 
ATOM      8  C   UNL     1      -1.947  10.606  17.922  0.00  0.00    +0.000 C 
ENDROOT
BRANCH   5   9
ATOM      9  C   UNL     1      -3.603  13.897  21.272  0.00  0.00    +0.000 A 
ATOM     10  C   UNL     1      -3.353  15.272  21.108  0.00  0.00    +0.000 A 
ATOM     11  C   UNL     1      -4.210  16.253  21.619  0.00  0.00    +0.000 A 
ATOM     12  C   UNL     1      -5.377  15.870  22.264  0.00  0.00    +0.000 A 
ATOM     13  C   UNL     1      -5.700  14.519  22.385  0.00  0.00    +0.000 A 
ATOM     14  C   UNL     1      -4.819  13.546  21.888  0.00  0.00    +0.000 A 
BRANCH  12  15
ATOM     15  S   UNL     1      -6.401  17.105  23.021  0.00  0.00    +0.000 S 
ATOM     16  C   UNL     1      -5.585  17.423  24.559  0.00  0.00    +0.000 C 
ATOM     17  O   UNL     1      -6.316  18.303  22.208  0.00  0.00    +0.000 OA
ATOM     18  O   UNL     1      -7.684  16.493  23.311  0.00  0.00    +0.000 OA
ENDBRANCH  12  15
ENDBRANCH   5   9
BRANCH   1  19
ATOM     19  O   UNL     1      -0.102   9.690  19.808  0.00  0.00    +0.000 OA
BRANCH  19  27
ATOM     20  C   UNL     1       5.529   5.293  17.245  0.00  0.00    +0.000 A 
ATOM     21  C   UNL     1       5.014   6.363  16.553  0.00  0.00    +0.000 A 
ATOM     22  N   UNL     1       3.970   7.101  16.978  0.00  0.00    +0.000 NA
ATOM     23  C   UNL     1       3.393   6.769  18.143  0.00  0.00    +0.000 A 
ATOM     24  N   UNL     1       2.314   7.499  18.572  0.00  0.00    +0.000 N 
ATOM     25  C   UNL     1       1.804   8.594  17.770  0.00  0.00    +0.000 C 
ATOM     26  C   UNL     1       2.004   9.893  18.538  0.00  0.00    +0.000 C 
ATOM     27  C   UNL     1       1.330   9.819  19.915  0.00  0.00    +0.000 C 
ATOM     28  C   UNL     1       1.859   8.607  20.694  0.00  0.00    +0.000 C 
ATOM     29  C   UNL     1       1.737   7.311  19.892  0.00  0.00    +0.000 C 
ATOM     30  N   UNL     1       3.830   5.741  18.888  0.00  0.00    +0.000 NA
ATOM     31  C   UNL     1       4.874   5.025  18.424  0.00  0.00    +0.000 A 
BRANCH  20  32
ATOM     32  C   UNL     1       6.678   4.473  16.747  0.00  0.00    +0.000 C 
BRANCH  32  34
ATOM     33  C   UNL     1       6.299   3.913  14.317  0.00  0.00    +0.000 C 
ATOM     34  C   UNL     1       7.051   4.799  15.299  0.00  0.00    +0.000 C 
ENDBRANCH  32  34
ENDBRANCH  20  32
ENDBRANCH  19  27
ENDBRANCH   1  19
TORSDOF 6
ENDMDL
MODEL 5
REMARK VINA RESULT:      -6.5      4.365     12.490
REMARK  Name = 
REMARK  9 active torsions:
REMARK  status: ('A' for Active; 'I' for Inactive)
REMARK    1  A    between atoms: C_1  and  C_2
REMARK    2  A    between atoms: C_2  and  C_3
REMARK    3  A    between atoms: C_3  and  C_4
REMARK    4  A    between atoms: C_11  and  O_12
REMARK    5  A    between atoms: O_12  and  C_13
REMARK    6  A    between atoms: N_17  and  C_18
REMARK    7  A    between atoms: C_21  and  S_22
REMARK    8  A    between atoms: S_22  and  C_23
REMARK    9  A    between atoms: C_29  and  C_30
REMARK                            x       y       z     vdW  Elec       q    Type
REMARK                         _______ _______ _______ _____ _____    ______ ____
ROOT
ATOM      1  C   UNL     1      -0.400   9.973  20.439  0.00  0.00    +0.000 A 
ATOM      2  C   UNL     1      -0.419  10.385  21.710  0.00  0.00    +0.000 A 
ATOM      3  C   UNL     1      -1.242  11.524  22.158  0.00  0.00    +0.000 A 
ATOM      4  O   UNL     1      -1.230  11.722  23.376  0.00  0.00    +0.000 OA
ATOM      5  N   UNL     1      -1.978  12.213  21.172  0.00  0.00    +0.000 N 
ATOM      6  C   UNL     1      -1.896  11.773  19.846  0.00  0.00    +0.000 A 
ATOM      7  C   UNL     1      -1.171  10.710  19.453  0.00  0.00    +0.000 A 
ATOM      8  C   UNL     1      -1.161  10.252  18.020  0.00  0.00    +0.000 C 
ENDROOT
BRANCH   5   9
ATOM      9  C   UNL     1      -2.878  13.285  21.576  0.00  0.00    +0.000 A 
ATOM     10  C   UNL     1      -4.216  13.034  21.936  0.00  0.00    +0.000 A 
ATOM     11  C   UNL     1      -5.132  14.065  22.171  0.00  0.00    +0.000 A 
ATOM     12  C   UNL     1      -4.707  15.383  22.103  0.00  0.00    +0.000 A 
ATOM     13  C   UNL     1      -3.373  15.676  21.820  0.00  0.00    +0.000 A 
ATOM     14  C   UNL     1      -2.471  14.632  21.565  0.00  0.00    +0.000 A 
BRANCH  12  15
ATOM     15  S   UNL     1      -5.891  16.693  22.276  0.00  0.00    +0.000 S 
ATOM     16  C   UNL     1      -7.374  15.991  21.611  0.00  0.00    +0.000 C 
ATOM     17  O   UNL     1      -6.094  16.915  23.695  0.00  0.00    +0.000 OA
ATOM     18  O   UNL     1      -5.477  17.777  21.405  0.00  0.00    +0.000 OA
ENDBRANCH  12  15
ENDBRANCH   5   9
BRANCH   1  19
ATOM     19  O   UNL     1       0.293   8.875  19.967  0.00  0.00    +0.000 OA
BRANCH  19  27
ATOM     20  C   UNL     1       5.689   5.022  16.273  0.00  0.00    +0.000 A 
ATOM     21  C   UNL     1       5.237   6.263  15.895  0.00  0.00    +0.000 A 
ATOM     22  N   UNL     1       4.233   6.916  16.511  0.00  0.00    +0.000 NA
ATOM     23  C   UNL     1       3.632   6.318  17.551  0.00  0.00    +0.000 A 
ATOM     24  N   UNL     1       2.592   6.965  18.169  0.00  0.00    +0.000 N 
ATOM     25  C   UNL     1       2.147   8.260  17.693  0.00  0.00    +0.000 C 
ATOM     26  C   UNL     1       2.413   9.294  18.776  0.00  0.00    +0.000 C 
ATOM     27  C   UNL     1       1.729   8.893  20.091  0.00  0.00    +0.000 C 
ATOM     28  C   UNL     1       2.187   7.491  20.515  0.00  0.00    +0.000 C 
ATOM     29  C   UNL     1       2.000   6.464  19.398  0.00  0.00    +0.000 C 
ATOM     30  N   UNL     1       4.008   5.107  17.992  0.00  0.00    +0.000 NA
ATOM     31  C   UNL     1       5.015   4.485  17.345  0.00  0.00    +0.000 A 
BRANCH  20  32
ATOM     32  C   UNL     1       6.794   4.303  15.564  0.00  0.00    +0.000 C 
BRANCH  32  34
ATOM     33  C   UNL     1       6.039   3.714  13.231  0.00  0.00    +0.000 C 
ATOM     34  C   UNL     1       6.874   4.662  14.078  0.00  0.00    +0.000 C 
ENDBRANCH  32  34
ENDBRANCH  20  32
ENDBRANCH  19  27
ENDBRANCH   1  19
TORSDOF 6
ENDMDL
MODEL 6
REMARK VINA RESULT:      -6.4      2.717      3.769
REMARK  Name = 
REMARK  9 active torsions:
REMARK  status: ('A' for Active; 'I' for Inactive)
REMARK    1  A    between atoms: C_1  and  C_2
REMARK    2  A    between atoms: C_2  and  C_3
REMARK    3  A    between atoms: C_3  and  C_4
REMARK    4  A    between atoms: C_11  and  O_12
REMARK    5  A    between atoms: O_12  and  C_13
REMARK    6  A    between atoms: N_17  and  C_18
REMARK    7  A    between atoms: C_21  and  S_22
REMARK    8  A    between atoms: S_22  and  C_23
REMARK    9  A    between atoms: C_29  and  C_30
REMARK                            x       y       z     vdW  Elec       q    Type
REMARK                         _______ _______ _______ _____ _____    ______ ____
ROOT
ATOM      1  C   UNL     1       0.620  10.993  20.023  0.00  0.00    +0.000 A 
ATOM      2  C   UNL     1       1.204  10.679  18.863  0.00  0.00    +0.000 A 
ATOM      3  C   UNL     1       1.779   9.346  18.604  0.00  0.00    +0.000 A 
ATOM      4  O   UNL     1       2.195   9.178  17.455  0.00  0.00    +0.000 OA
ATOM      5  N   UNL     1       1.742   8.413  19.661  0.00  0.00    +0.000 N 
ATOM      6  C   UNL     1       1.157   8.797  20.874  0.00  0.00    +0.000 A 
ATOM      7  C   UNL     1       0.603  10.005  21.088  0.00  0.00    +0.000 A 
ATOM      8  C   UNL     1      -0.057  10.344  22.396  0.00  0.00    +0.000 C 
ENDROOT
BRANCH   5   9
ATOM      9  C   UNL     1       2.211   7.054  19.426  0.00  0.00    +0.000 A 
ATOM     10  C   UNL     1       2.632   6.623  18.154  0.00  0.00    +0.000 A 
ATOM     11  C   UNL     1       2.932   5.285  17.880  0.00  0.00    +0.000 A 
ATOM     12  C   UNL     1       2.868   4.349  18.901  0.00  0.00    +0.000 A 
ATOM     13  C   UNL     1       2.526   4.744  20.194  0.00  0.00    +0.000 A 
ATOM     14  C   UNL     1       2.205   6.086  20.449  0.00  0.00    +0.000 A 
BRANCH  12  15
ATOM     15  S   UNL     1       3.125   2.633  18.531  0.00  0.00    +0.000 S 
ATOM     16  C   UNL     1       4.139   2.075  19.870  0.00  0.00    +0.000 C 
ATOM     17  O   UNL     1       1.840   1.967  18.629  0.00  0.00    +0.000 OA
ATOM     18  O   UNL     1       3.908   2.559  17.312  0.00  0.00    +0.000 OA
ENDBRANCH  12  15
ENDBRANCH   5   9
BRANCH   1  19
ATOM     19  O   UNL     1       0.003  12.196  20.307  0.00  0.00    +0.000 OA
BRANCH  19  27
ATOM     20  C   UNL     1      -6.059  16.724  20.905  0.00  0.00    +0.000 A 
ATOM     21  C   UNL     1      -4.779  17.178  20.697  0.00  0.00    +0.000 A 
ATOM     22  N   UNL     1      -3.695  16.379  20.659  0.00  0.00    +0.000 NA
ATOM     23  C   UNL     1      -3.873  15.061  20.841  0.00  0.00    +0.000 A 
ATOM     24  N   UNL     1      -2.773  14.243  20.828  0.00  0.00    +0.000 N 
ATOM     25  C   UNL     1      -1.447  14.799  20.638  0.00  0.00    +0.000 C 
ATOM     26  C   UNL     1      -0.885  14.277  19.323  0.00  0.00    +0.000 C 
ATOM     27  C   UNL     1      -0.879  12.742  19.306  0.00  0.00    +0.000 C 
ATOM     28  C   UNL     1      -2.292  12.208  19.575  0.00  0.00    +0.000 C 
ATOM     29  C   UNL     1      -2.894  12.795  20.852  0.00  0.00    +0.000 C 
ATOM     30  N   UNL     1      -5.088  14.528  21.047  0.00  0.00    +0.000 NA
ATOM     31  C   UNL     1      -6.146  15.363  21.082  0.00  0.00    +0.000 A 
BRANCH  20  32
ATOM     32  C   UNL     1      -7.249  17.631  20.962  0.00  0.00    +0.000 C 
BRANCH  32  34
ATOM     33  C   UNL     1      -6.924  18.024  23.432  0.00  0.00    +0.000 C 
ATOM     34  C   UNL     1      -7.913  17.645  22.341  0.00  0.00    +0.000 C 
ENDBRANCH  32  34
ENDBRANCH  20  32
ENDBRANCH  19  27
ENDBRANCH   1  19
TORSDOF 6
ENDMDL
MODEL 7
REMARK VINA RESULT:      -6.3      4.128     12.509
REMARK  Name = 
REMARK  9 active torsions:
REMARK  status: ('A' for Active; 'I' for Inactive)
REMARK    1  A    between atoms: C_1  and  C_2
REMARK    2  A    between atoms: C_2  and  C_3
REMARK    3  A    between atoms: C_3  and  C_4
REMARK    4  A    between atoms: C_11  and  O_12
REMARK    5  A    between atoms: O_12  and  C_13
REMARK    6  A    between atoms: N_17  and  C_18
REMARK    7  A    between atoms: C_21  and  S_22
REMARK    8  A    between atoms: S_22  and  C_23
REMARK    9  A    between atoms: C_29  and  C_30
REMARK                            x       y       z     vdW  Elec       q    Type
REMARK                         _______ _______ _______ _____ _____    ______ ____
ROOT
ATOM      1  C   UNL     1       1.030  10.042  20.724  0.00  0.00    +0.000 A 
ATOM      2  C   UNL     1       0.344   9.691  21.815  0.00  0.00    +0.000 A 
ATOM      3  C   UNL     1      -0.682  10.563  22.419  0.00  0.00    +0.000 A 
ATOM      4  O   UNL     1      -1.296  10.060  23.362  0.00  0.00    +0.000 OA
ATOM      5  N   UNL     1      -0.877  11.828  21.828  0.00  0.00    +0.000 N 
ATOM      6  C   UNL     1      -0.108  12.173  20.711  0.00  0.00    +0.000 A 
ATOM      7  C   UNL     1       0.800  11.355  20.146  0.00  0.00    +0.000 A 
ATOM      8  C   UNL     1       1.562  11.760  18.914  0.00  0.00    +0.000 C 
ENDROOT
BRANCH   5   9
ATOM      9  C   UNL     1      -1.942  12.688  22.327  0.00  0.00    +0.000 A 
ATOM     10  C   UNL     1      -3.206  12.739  21.710  0.00  0.00    +0.000 A 
ATOM     11  C   UNL     1      -4.180  13.673  22.079  0.00  0.00    +0.000 A 
ATOM     12  C   UNL     1      -3.925  14.548  23.123  0.00  0.00    +0.000 A 
ATOM     13  C   UNL     1      -2.714  14.485  23.811  0.00  0.00    +0.000 A 
ATOM     14  C   UNL     1      -1.737  13.558  23.415  0.00  0.00    +0.000 A 
BRANCH  12  15
ATOM     15  S   UNL     1      -5.106  15.814  23.511  0.00  0.00    +0.000 S 
ATOM     16  C   UNL     1      -6.603  14.906  23.776  0.00  0.00    +0.000 C 
ATOM     17  O   UNL     1      -4.711  16.411  24.772  0.00  0.00    +0.000 OA
ATOM     18  O   UNL     1      -5.280  16.631  22.324  0.00  0.00    +0.000 OA
ENDBRANCH  12  15
ENDBRANCH   5   9
BRANCH   1  19
ATOM     19  O   UNL     1       1.952   9.248  20.070  0.00  0.00    +0.000 OA
BRANCH  19  27
ATOM     20  C   UNL     1       5.536   4.418  15.441  0.00  0.00    +0.000 A 
ATOM     21  C   UNL     1       5.110   4.095  16.706  0.00  0.00    +0.000 A 
ATOM     22  N   UNL     1       4.534   4.972  17.552  0.00  0.00    +0.000 NA
ATOM     23  C   UNL     1       4.374   6.238  17.138  0.00  0.00    +0.000 A 
ATOM     24  N   UNL     1       3.812   7.144  18.001  0.00  0.00    +0.000 N 
ATOM     25  C   UNL     1       3.417   6.738  19.336  0.00  0.00    +0.000 C 
ATOM     26  C   UNL     1       1.905   6.859  19.455  0.00  0.00    +0.000 C 
ATOM     27  C   UNL     1       1.447   8.286  19.123  0.00  0.00    +0.000 C 
ATOM     28  C   UNL     1       1.944   8.687  17.728  0.00  0.00    +0.000 C 
ATOM     29  C   UNL     1       3.453   8.486  17.577  0.00  0.00    +0.000 C 
ATOM     30  N   UNL     1       4.757   6.643  15.917  0.00  0.00    +0.000 NA
ATOM     31  C   UNL     1       5.332   5.735  15.103  0.00  0.00    +0.000 A 
BRANCH  20  32
ATOM     32  C   UNL     1       6.190   3.433  14.522  0.00  0.00    +0.000 C 
BRANCH  32  34
ATOM     33  C   UNL     1       5.932   3.039  12.044  0.00  0.00    +0.000 C 
ATOM     34  C   UNL     1       6.420   3.998  13.118  0.00  0.00    +0.000 C 
ENDBRANCH  32  34
ENDBRANCH  20  32
ENDBRANCH  19  27
ENDBRANCH   1  19
TORSDOF 6
ENDMDL
MODEL 8
REMARK VINA RESULT:      -6.2      4.098     12.540
REMARK  Name = 
REMARK  9 active torsions:
REMARK  status: ('A' for Active; 'I' for Inactive)
REMARK    1  A    between atoms: C_1  and  C_2
REMARK    2  A    between atoms: C_2  and  C_3
REMARK    3  A    between atoms: C_3  and  C_4
REMARK    4  A    between atoms: C_11  and  O_12
REMARK    5  A    between atoms: O_12  and  C_13
REMARK    6  A    between atoms: N_17  and  C_18
REMARK    7  A    between atoms: C_21  and  S_22
REMARK    8  A    between atoms: S_22  and  C_23
REMARK    9  A    between atoms: C_29  and  C_30
REMARK                            x       y       z     vdW  Elec       q    Type
REMARK                         _______ _______ _______ _____ _____    ______ ____
ROOT
ATOM      1  C   UNL     1       0.700   9.532  20.506  0.00  0.00    +0.000 A 
ATOM      2  C   UNL     1      -0.043  10.206  19.624  0.00  0.00    +0.000 A 
ATOM      3  C   UNL     1      -0.946  11.301  20.026  0.00  0.00    +0.000 A 
ATOM      4  O   UNL     1      -1.490  11.892  19.090  0.00  0.00    +0.000 OA
ATOM      5  N   UNL     1      -1.044  11.580  21.405  0.00  0.00    +0.000 N 
ATOM      6  C   UNL     1      -0.278  10.822  22.298  0.00  0.00    +0.000 A 
ATOM      7  C   UNL     1       0.570   9.848  21.918  0.00  0.00    +0.000 A 
ATOM      8  C   UNL     1       1.406   9.100  22.920  0.00  0.00    +0.000 C 
ENDROOT
BRANCH   5   9
ATOM      9  C   UNL     1      -1.848  12.712  21.845  0.00  0.00    +0.000 A 
ATOM     10  C   UNL     1      -1.262  13.928  22.246  0.00  0.00    +0.000 A 
ATOM     11  C   UNL     1      -2.008  14.963  22.819  0.00  0.00    +0.000 A 
ATOM     12  C   UNL     1      -3.381  14.821  22.955  0.00  0.00    +0.000 A 
ATOM     13  C   UNL     1      -4.013  13.662  22.506  0.00  0.00    +0.000 A 
ATOM     14  C   UNL     1      -3.249  12.623  21.953  0.00  0.00    +0.000 A 
BRANCH  12  15
ATOM     15  S   UNL     1      -4.310  16.077  23.795  0.00  0.00    +0.000 S 
ATOM     16  C   UNL     1      -5.961  15.437  23.784  0.00  0.00    +0.000 C 
ATOM     17  O   UNL     1      -3.850  16.116  25.170  0.00  0.00    +0.000 OA
ATOM     18  O   UNL     1      -4.285  17.269  22.968  0.00  0.00    +0.000 OA
ENDBRANCH  12  15
ENDBRANCH   5   9
BRANCH   1  19
ATOM     19  O   UNL     1       1.613   8.544  20.191  0.00  0.00    +0.000 OA
BRANCH  19  27
ATOM     20  C   UNL     1       5.900   4.622  15.307  0.00  0.00    +0.000 A 
ATOM     21  C   UNL     1       5.476   4.134  16.520  0.00  0.00    +0.000 A 
ATOM     22  N   UNL     1       4.772   4.855  17.415  0.00  0.00    +0.000 NA
ATOM     23  C   UNL     1       4.473   6.127  17.109  0.00  0.00    +0.000 A 
ATOM     24  N   UNL     1       3.778   6.876  18.024  0.00  0.00    +0.000 N 
ATOM     25  C   UNL     1       3.394   6.303  19.300  0.00  0.00    +0.000 C 
ATOM     26  C   UNL     1       1.875   6.235  19.364  0.00  0.00    +0.000 C 
ATOM     27  C   UNL     1       1.258   7.623  19.141  0.00  0.00    +0.000 C 
ATOM     28  C   UNL     1       1.748   8.207  17.809  0.00  0.00    +0.000 C 
ATOM     29  C   UNL     1       3.273   8.200  17.706  0.00  0.00    +0.000 C 
ATOM     30  N   UNL     1       4.843   6.686  15.946  0.00  0.00    +0.000 NA
ATOM     31  C   UNL     1       5.549   5.932  15.080  0.00  0.00    +0.000 A 
BRANCH  20  32
ATOM     32  C   UNL     1       6.697   3.811  14.333  0.00  0.00    +0.000 C 
BRANCH  32  34
ATOM     33  C   UNL     1       6.965   3.655  11.831  0.00  0.00    +0.000 C 
ATOM     34  C   UNL     1       5.983   3.631  12.991  0.00  0.00    +0.000 C 
ENDBRANCH  32  34
ENDBRANCH  20  32
ENDBRANCH  19  27
ENDBRANCH   1  19
TORSDOF 6
ENDMDL
MODEL 9
REMARK VINA RESULT:      -6.2      4.058     12.602
REMARK  Name = 
REMARK  9 active torsions:
REMARK  status: ('A' for Active; 'I' for Inactive)
REMARK    1  A    between atoms: C_1  and  C_2
REMARK    2  A    between atoms: C_2  and  C_3
REMARK    3  A    between atoms: C_3  and  C_4
REMARK    4  A    between atoms: C_11  and  O_12
REMARK    5  A    between atoms: O_12  and  C_13
REMARK    6  A    between atoms: N_17  and  C_18
REMARK    7  A    between atoms: C_21  and  S_22
REMARK    8  A    between atoms: S_22  and  C_23
REMARK    9  A    between atoms: C_29  and  C_30
REMARK                            x       y       z     vdW  Elec       q    Type
REMARK                         _______ _______ _______ _____ _____    ______ ____
ROOT
ATOM      1  C   UNL     1       0.758   9.733  20.478  0.00  0.00    +0.000 A 
ATOM      2  C   UNL     1       0.020  10.537  19.707  0.00  0.00    +0.000 A 
ATOM      3  C   UNL     1      -0.884  11.559  20.267  0.00  0.00    +0.000 A 
ATOM      4  O   UNL     1      -1.421  12.287  19.430  0.00  0.00    +0.000 OA
ATOM      5  N   UNL     1      -0.989  11.622  21.672  0.00  0.00    +0.000 N 
ATOM      6  C   UNL     1      -0.230  10.733  22.442  0.00  0.00    +0.000 A 
ATOM      7  C   UNL     1       0.620   9.828  21.922  0.00  0.00    +0.000 A 
ATOM      8  C   UNL     1       1.448   8.933  22.801  0.00  0.00    +0.000 C 
ENDROOT
BRANCH   5   9
ATOM      9  C   UNL     1      -1.795  12.675  22.277  0.00  0.00    +0.000 A 
ATOM     10  C   UNL     1      -3.173  12.511  22.514  0.00  0.00    +0.000 A 
ATOM     11  C   UNL     1      -3.986  13.564  22.945  0.00  0.00    +0.000 A 
ATOM     12  C   UNL     1      -3.419  14.803  23.202  0.00  0.00    +0.000 A 
ATOM     13  C   UNL     1      -2.046  14.991  23.049  0.00  0.00    +0.000 A 
ATOM     14  C   UNL     1      -1.246  13.931  22.595  0.00  0.00    +0.000 A 
BRANCH  12  15
ATOM     15  S   UNL     1      -4.466  16.171  23.626  0.00  0.00    +0.000 S 
ATOM     16  C   UNL     1      -3.676  16.861  25.053  0.00  0.00    +0.000 C 
ATOM     17  O   UNL     1      -4.378  17.140  22.549  0.00  0.00    +0.000 OA
ATOM     18  O   UNL     1      -5.748  15.632  24.038  0.00  0.00    +0.000 OA
ENDBRANCH  12  15
ENDBRANCH   5   9
BRANCH   1  19
ATOM     19  O   UNL     1       1.672   8.804  20.020  0.00  0.00    +0.000 OA
BRANCH  19  27
ATOM     20  C   UNL     1       5.726   4.489  15.271  0.00  0.00    +0.000 A 
ATOM     21  C   UNL     1       5.165   4.028  16.438  0.00  0.00    +0.000 A 
ATOM     22  N   UNL     1       4.503   4.810  17.313  0.00  0.00    +0.000 NA
ATOM     23  C   UNL     1       4.390   6.118  17.035  0.00  0.00    +0.000 A 
ATOM     24  N   UNL     1       3.740   6.926  17.931  0.00  0.00    +0.000 N 
ATOM     25  C   UNL     1       3.203   6.374  19.161  0.00  0.00    +0.000 C 
ATOM     26  C   UNL     1       1.687   6.503  19.130  0.00  0.00    +0.000 C 
ATOM     27  C   UNL     1       1.270   7.965  18.918  0.00  0.00    +0.000 C 
ATOM     28  C   UNL     1       1.916   8.517  17.641  0.00  0.00    +0.000 C 
ATOM     29  C   UNL     1       3.431   8.313  17.630  0.00  0.00    +0.000 C 
ATOM     30  N   UNL     1       4.904   6.655  15.917  0.00  0.00    +0.000 NA
ATOM     31  C   UNL     1       5.562   5.839  15.069  0.00  0.00    +0.000 A 
BRANCH  20  32
ATOM     32  C   UNL     1       6.473   3.607  14.320  0.00  0.00    +0.000 C 
BRANCH  32  34
ATOM     33  C   UNL     1       5.913   2.781  12.004  0.00  0.00    +0.000 C 
ATOM     34  C   UNL     1       6.249   3.994  12.856  0.00  0.00    +0.000 C 
ENDBRANCH  32  34
ENDBRANCH  20  32
ENDBRANCH  19  27
ENDBRANCH   1  19
TORSDOF 6
ENDMDL
