MODEL 1
REMARK VINA RESULT:      -6.8      0.000      0.000
REMARK  Name = 
REMARK  1 active torsions:
REMARK  status: ('A' for Active; 'I' for Inactive)
REMARK    1  A    between atoms: C_4  and  C_5
REMARK                            x       y       z     vdW  Elec       q    Type
REMARK                         _______ _______ _______ _____ _____    ______ ____
ROOT
ATOM      1  C   UNL     1       4.745   4.969  18.501  0.00  0.00    +0.000 A 
ATOM      2  C   UNL     1       3.811   5.110  19.504  0.00  0.00    +0.000 A 
ATOM      3  N   UNL     1       2.777   4.212  19.393  0.00  0.00    +0.000 N 
ATOM      4  C   UNL     1       1.626   4.174  20.348  0.00  0.00    +0.000 A 
ATOM      5  C   UNL     1       0.651   3.219  20.115  0.00  0.00    +0.000 A 
ATOM      6  C   UNL     1       0.764   2.352  19.027  0.00  0.00    +0.000 A 
ATOM      7  C   UNL     1       1.848   2.409  18.143  0.00  0.00    +0.000 A 
ATOM      8  C   UNL     1       2.847   3.367  18.370  0.00  0.00    +0.000 A 
ATOM      9  S   UNL     1       4.288   3.676  17.466  0.00  0.00    +0.000 S 
ENDROOT
BRANCH   1  13
ATOM     10  C   UNL     1       8.130   7.509  18.116  0.00  0.00    +0.000 A 
ATOM     11  C   UNL     1       8.141   6.462  19.033  0.00  0.00    +0.000 A 
ATOM     12  C   UNL     1       7.056   5.595  19.109  0.00  0.00    +0.000 A 
ATOM     13  C   UNL     1       5.938   5.780  18.279  0.00  0.00    +0.000 A 
ATOM     14  C   UNL     1       5.964   6.808  17.326  0.00  0.00    +0.000 A 
ATOM     15  C   UNL     1       7.060   7.667  17.244  0.00  0.00    +0.000 A 
ENDBRANCH   1  13
TORSDOF 1
ENDMDL
MODEL 2
REMARK VINA RESULT:      -6.7      2.386      6.034
REMARK  Name = 
REMARK  1 active torsions:
REMARK  status: ('A' for Active; 'I' for Inactive)
REMARK    1  A    between atoms: C_4  and  C_5
REMARK                            x       y       z     vdW  Elec       q    Type
REMARK                         _______ _______ _______ _____ _____    ______ ____
ROOT
ATOM      1  C   UNL     1       4.118   3.760  18.393  0.00  0.00    +0.000 A 
ATOM      2  C   UNL     1       4.053   3.543  17.034  0.00  0.00    +0.000 A 
ATOM      3  N   UNL     1       5.145   4.045  16.367  0.00  0.00    +0.000 N 
ATOM      4  C   UNL     1       5.303   3.955  14.882  0.00  0.00    +0.000 A 
ATOM      5  C   UNL     1       6.452   4.507  14.342  0.00  0.00    +0.000 A 
ATOM      6  C   UNL     1       7.395   5.115  15.170  0.00  0.00    +0.000 A 
ATOM      7  C   UNL     1       7.224   5.191  16.557  0.00  0.00    +0.000 A 
ATOM      8  C   UNL     1       6.068   4.631  17.121  0.00  0.00    +0.000 A 
ATOM      9  S   UNL     1       5.583   4.569  18.778  0.00  0.00    +0.000 S 
ENDROOT
BRANCH   1  13
ATOM     10  C   UNL     1       1.232   3.044  21.431  0.00  0.00    +0.000 A 
ATOM     11  C   UNL     1       0.869   3.706  20.262  0.00  0.00    +0.000 A 
ATOM     12  C   UNL     1       1.801   3.880  19.244  0.00  0.00    +0.000 A 
ATOM     13  C   UNL     1       3.116   3.409  19.396  0.00  0.00    +0.000 A 
ATOM     14  C   UNL     1       3.453   2.700  20.557  0.00  0.00    +0.000 A 
ATOM     15  C   UNL     1       2.511   2.517  21.570  0.00  0.00    +0.000 A 
ENDBRANCH   1  13
TORSDOF 1
ENDMDL
MODEL 3
REMARK VINA RESULT:      -6.6      2.238      2.675
REMARK  Name = 
REMARK  1 active torsions:
REMARK  status: ('A' for Active; 'I' for Inactive)
REMARK    1  A    between atoms: C_4  and  C_5
REMARK                            x       y       z     vdW  Elec       q    Type
REMARK                         _______ _______ _______ _____ _____    ______ ____
ROOT
ATOM      1  C   UNL     1       4.271   3.746  17.674  0.00  0.00    +0.000 A 
ATOM      2  C   UNL     1       4.497   3.283  18.952  0.00  0.00    +0.000 A 
ATOM      3  N   UNL     1       3.339   3.160  19.681  0.00  0.00    +0.000 N 
ATOM      4  C   UNL     1       3.318   2.696  21.104  0.00  0.00    +0.000 A 
ATOM      5  C   UNL     1       2.080   2.622  21.719  0.00  0.00    +0.000 A 
ATOM      6  C   UNL     1       0.926   2.976  21.019  0.00  0.00    +0.000 A 
ATOM      7  C   UNL     1       0.970   3.411  19.690  0.00  0.00    +0.000 A 
ATOM      8  C   UNL     1       2.217   3.486  19.050  0.00  0.00    +0.000 A 
ATOM      9  S   UNL     1       2.587   3.978  17.435  0.00  0.00    +0.000 S 
ENDROOT
BRANCH   1  13
ATOM     10  C   UNL     1       7.104   4.926  14.734  0.00  0.00    +0.000 A 
ATOM     11  C   UNL     1       7.436   4.972  16.085  0.00  0.00    +0.000 A 
ATOM     12  C   UNL     1       6.528   4.523  17.038  0.00  0.00    +0.000 A 
ATOM     13  C   UNL     1       5.268   4.042  16.649  0.00  0.00    +0.000 A 
ATOM     14  C   UNL     1       4.967   3.955  15.282  0.00  0.00    +0.000 A 
ATOM     15  C   UNL     1       5.886   4.394  14.329  0.00  0.00    +0.000 A 
ENDBRANCH   1  13
TORSDOF 1
ENDMDL
MODEL 4
REMARK VINA RESULT:      -6.6      2.379      5.876
REMARK  Name = 
REMARK  1 active torsions:
REMARK  status: ('A' for Active; 'I' for Inactive)
REMARK    1  A    between atoms: C_4  and  C_5
REMARK                            x       y       z     vdW  Elec       q    Type
REMARK                         _______ _______ _______ _____ _____    ______ ____
ROOT
ATOM      1  C   UNL     1       4.136   4.010  18.462  0.00  0.00    +0.000 A 
ATOM      2  C   UNL     1       4.052   3.673  17.129  0.00  0.00    +0.000 A 
ATOM      3  N   UNL     1       5.130   4.118  16.403  0.00  0.00    +0.000 N 
ATOM      4  C   UNL     1       5.266   3.898  14.929  0.00  0.00    +0.000 A 
ATOM      5  C   UNL     1       6.403   4.404  14.324  0.00  0.00    +0.000 A 
ATOM      6  C   UNL     1       7.356   5.087  15.080  0.00  0.00    +0.000 A 
ATOM      7  C   UNL     1       7.206   5.285  16.457  0.00  0.00    +0.000 A 
ATOM      8  C   UNL     1       6.062   4.773  17.087  0.00  0.00    +0.000 A 
ATOM      9  S   UNL     1       5.603   4.855  18.751  0.00  0.00    +0.000 S 
ENDROOT
BRANCH   1  13
ATOM     10  C   UNL     1       1.214   2.951  21.361  0.00  0.00    +0.000 A 
ATOM     11  C   UNL     1       2.513   2.462  21.465  0.00  0.00    +0.000 A 
ATOM     12  C   UNL     1       3.480   2.863  20.550  0.00  0.00    +0.000 A 
ATOM     13  C   UNL     1       3.152   3.745  19.508  0.00  0.00    +0.000 A 
ATOM     14  C   UNL     1       1.853   4.269  19.447  0.00  0.00    +0.000 A 
ATOM     15  C   UNL     1       0.889   3.874  20.374  0.00  0.00    +0.000 A 
ENDBRANCH   1  13
TORSDOF 1
ENDMDL
MODEL 5
REMARK VINA RESULT:      -6.6      2.198      2.839
REMARK  Name = 
REMARK  1 active torsions:
REMARK  status: ('A' for Active; 'I' for Inactive)
REMARK    1  A    between atoms: C_4  and  C_5
REMARK                            x       y       z     vdW  Elec       q    Type
REMARK                         _______ _______ _______ _____ _____    ______ ____
ROOT
ATOM      1  C   UNL     1       4.246   4.135  17.770  0.00  0.00    +0.000 A 
ATOM      2  C   UNL     1       4.491   3.396  18.906  0.00  0.00    +0.000 A 
ATOM      3  N   UNL     1       3.382   3.279  19.709  0.00  0.00    +0.000 N 
ATOM      4  C   UNL     1       3.395   2.542  21.012  0.00  0.00    +0.000 A 
ATOM      5  C   UNL     1       2.206   2.506  21.721  0.00  0.00    +0.000 A 
ATOM      6  C   UNL     1       1.071   3.143  21.220  0.00  0.00    +0.000 A 
ATOM      7  C   UNL     1       1.084   3.831  20.001  0.00  0.00    +0.000 A 
ATOM      8  C   UNL     1       2.279   3.871  19.267  0.00  0.00    +0.000 A 
ATOM      9  S   UNL     1       2.602   4.630  17.749  0.00  0.00    +0.000 S 
ENDROOT
BRANCH   1  13
ATOM     10  C   UNL     1       7.120   4.888  14.731  0.00  0.00    +0.000 A 
ATOM     11  C   UNL     1       5.884   4.339  14.405  0.00  0.00    +0.000 A 
ATOM     12  C   UNL     1       4.923   4.155  15.394  0.00  0.00    +0.000 A 
ATOM     13  C   UNL     1       5.200   4.501  16.727  0.00  0.00    +0.000 A 
ATOM     14  C   UNL     1       6.430   5.100  17.031  0.00  0.00    +0.000 A 
ATOM     15  C   UNL     1       7.386   5.295  16.033  0.00  0.00    +0.000 A 
ENDBRANCH   1  13
TORSDOF 1
ENDMDL
MODEL 6
REMARK VINA RESULT:      -6.6      1.032      1.570
REMARK  Name = 
REMARK  1 active torsions:
REMARK  status: ('A' for Active; 'I' for Inactive)
REMARK    1  A    between atoms: C_4  and  C_5
REMARK                            x       y       z     vdW  Elec       q    Type
REMARK                         _______ _______ _______ _____ _____    ______ ____
ROOT
ATOM      1  C   UNL     1       4.565   5.132  18.553  0.00  0.00    +0.000 A 
ATOM      2  C   UNL     1       4.197   3.898  18.065  0.00  0.00    +0.000 A 
ATOM      3  N   UNL     1       2.973   3.488  18.534  0.00  0.00    +0.000 N 
ATOM      4  C   UNL     1       2.359   2.174  18.168  0.00  0.00    +0.000 A 
ATOM      5  C   UNL     1       1.121   1.887  18.717  0.00  0.00    +0.000 A 
ATOM      6  C   UNL     1       0.505   2.800  19.574  0.00  0.00    +0.000 A 
ATOM      7  C   UNL     1       1.100   4.022  19.907  0.00  0.00    +0.000 A 
ATOM      8  C   UNL     1       2.352   4.330  19.353  0.00  0.00    +0.000 A 
ATOM      9  S   UNL     1       3.324   5.742  19.571  0.00  0.00    +0.000 S 
ENDROOT
BRANCH   1  13
ATOM     10  C   UNL     1       8.131   7.400  18.098  0.00  0.00    +0.000 A 
ATOM     11  C   UNL     1       8.077   6.357  19.019  0.00  0.00    +0.000 A 
ATOM     12  C   UNL     1       6.929   5.578  19.118  0.00  0.00    +0.000 A 
ATOM     13  C   UNL     1       5.815   5.848  18.307  0.00  0.00    +0.000 A 
ATOM     14  C   UNL     1       5.903   6.867  17.349  0.00  0.00    +0.000 A 
ATOM     15  C   UNL     1       7.061   7.638  17.245  0.00  0.00    +0.000 A 
ENDBRANCH   1  13
TORSDOF 1
ENDMDL
MODEL 7
REMARK VINA RESULT:      -6.5      2.304      2.959
REMARK  Name = 
REMARK  1 active torsions:
REMARK  status: ('A' for Active; 'I' for Inactive)
REMARK    1  A    between atoms: C_4  and  C_5
REMARK                            x       y       z     vdW  Elec       q    Type
REMARK                         _______ _______ _______ _____ _____    ______ ____
ROOT
ATOM      1  C   UNL     1       4.399   4.156  17.306  0.00  0.00    +0.000 A 
ATOM      2  C   UNL     1       3.206   3.468  17.277  0.00  0.00    +0.000 A 
ATOM      3  N   UNL     1       2.537   3.522  18.476  0.00  0.00    +0.000 N 
ATOM      4  C   UNL     1       1.227   2.836  18.709  0.00  0.00    +0.000 A 
ATOM      5  C   UNL     1       0.666   2.971  19.967  0.00  0.00    +0.000 A 
ATOM      6  C   UNL     1       1.321   3.711  20.952  0.00  0.00    +0.000 A 
ATOM      7  C   UNL     1       2.548   4.340  20.713  0.00  0.00    +0.000 A 
ATOM      8  C   UNL     1       3.127   4.219  19.441  0.00  0.00    +0.000 A 
ATOM      9  S   UNL     1       4.613   4.873  18.852  0.00  0.00    +0.000 S 
ENDROOT
BRANCH   1  13
ATOM     10  C   UNL     1       7.186   4.799  14.162  0.00  0.00    +0.000 A 
ATOM     11  C   UNL     1       7.513   5.147  15.470  0.00  0.00    +0.000 A 
ATOM     12  C   UNL     1       6.623   4.874  16.503  0.00  0.00    +0.000 A 
ATOM     13  C   UNL     1       5.385   4.268  16.234  0.00  0.00    +0.000 A 
ATOM     14  C   UNL     1       5.091   3.878  14.920  0.00  0.00    +0.000 A 
ATOM     15  C   UNL     1       5.993   4.141  13.889  0.00  0.00    +0.000 A 
ENDBRANCH   1  13
TORSDOF 1
ENDMDL
MODEL 8
REMARK VINA RESULT:      -6.5      1.314      6.155
REMARK  Name = 
REMARK  1 active torsions:
REMARK  status: ('A' for Active; 'I' for Inactive)
REMARK    1  A    between atoms: C_4  and  C_5
REMARK                            x       y       z     vdW  Elec       q    Type
REMARK                         _______ _______ _______ _____ _____    ______ ____
ROOT
ATOM      1  C   UNL     1       3.953   4.726  18.915  0.00  0.00    +0.000 A 
ATOM      2  C   UNL     1       5.208   4.746  19.483  0.00  0.00    +0.000 A 
ATOM      3  N   UNL     1       6.054   5.633  18.863  0.00  0.00    +0.000 N 
ATOM      4  C   UNL     1       7.478   5.826  19.280  0.00  0.00    +0.000 A 
ATOM      5  C   UNL     1       8.219   6.752  18.565  0.00  0.00    +0.000 A 
ATOM      6  C   UNL     1       7.637   7.450  17.506  0.00  0.00    +0.000 A 
ATOM      7  C   UNL     1       6.303   7.249  17.131  0.00  0.00    +0.000 A 
ATOM      8  C   UNL     1       5.537   6.320  17.851  0.00  0.00    +0.000 A 
ATOM      9  S   UNL     1       3.886   5.862  17.629  0.00  0.00    +0.000 S 
ENDROOT
BRANCH   1  13
ATOM     10  C   UNL     1       0.473   2.482  19.873  0.00  0.00    +0.000 A 
ATOM     11  C   UNL     1       0.961   2.496  18.569  0.00  0.00    +0.000 A 
ATOM     12  C   UNL     1       2.136   3.180  18.275  0.00  0.00    +0.000 A 
ATOM     13  C   UNL     1       2.826   3.874  19.282  0.00  0.00    +0.000 A 
ATOM     14  C   UNL     1       2.351   3.807  20.599  0.00  0.00    +0.000 A 
ATOM     15  C   UNL     1       1.179   3.110  20.892  0.00  0.00    +0.000 A 
ENDBRANCH   1  13
TORSDOF 1
ENDMDL
MODEL 9
REMARK VINA RESULT:      -6.5      1.323      6.075
REMARK  Name = 
REMARK  1 active torsions:
REMARK  status: ('A' for Active; 'I' for Inactive)
REMARK    1  A    between atoms: C_4  and  C_5
REMARK                            x       y       z     vdW  Elec       q    Type
REMARK                         _______ _______ _______ _____ _____    ______ ____
ROOT
ATOM      1  C   UNL     1       3.799   4.935  18.844  0.00  0.00    +0.000 A 
ATOM      2  C   UNL     1       5.036   4.858  19.446  0.00  0.00    +0.000 A 
ATOM      3  N   UNL     1       5.960   5.690  18.861  0.00  0.00    +0.000 N 
ATOM      4  C   UNL     1       7.382   5.776  19.318  0.00  0.00    +0.000 A 
ATOM      5  C   UNL     1       8.206   6.654  18.635  0.00  0.00    +0.000 A 
ATOM      6  C   UNL     1       7.704   7.404  17.571  0.00  0.00    +0.000 A 
ATOM      7  C   UNL     1       6.371   7.304  17.158  0.00  0.00    +0.000 A 
ATOM      8  C   UNL     1       5.521   6.423  17.844  0.00  0.00    +0.000 A 
ATOM      9  S   UNL     1       3.848   6.087  17.572  0.00  0.00    +0.000 S 
ENDROOT
BRANCH   1  13
ATOM     10  C   UNL     1       0.521   2.448  19.909  0.00  0.00    +0.000 A 
ATOM     11  C   UNL     1       1.144   3.237  20.872  0.00  0.00    +0.000 A 
ATOM     12  C   UNL     1       2.173   4.097  20.505  0.00  0.00    +0.000 A 
ATOM     13  C   UNL     1       2.604   4.161  19.170  0.00  0.00    +0.000 A 
ATOM     14  C   UNL     1       1.934   3.399  18.203  0.00  0.00    +0.000 A 
ATOM     15  C   UNL     1       0.892   2.548  18.574  0.00  0.00    +0.000 A 
ENDBRANCH   1  13
TORSDOF 1
ENDMDL
