MODEL 1
REMARK VINA RESULT:      -6.7      0.000      0.000
REMARK  Name = 
REMARK  4 active torsions:
REMARK  status: ('A' for Active; 'I' for Inactive)
REMARK    1  A    between atoms: N_1  and  C_2
REMARK    2  A    between atoms: C_7  and  C_8
REMARK    3  A    between atoms: N_10  and  N_11
REMARK    4  A    between atoms: C_12  and  C_13
REMARK                            x       y       z     vdW  Elec       q    Type
REMARK                         _______ _______ _______ _____ _____    ______ ____
ROOT
ATOM      1  C   UNL     1       4.977   4.335  18.358  0.00  0.00    +0.000 C 
ATOM      2  O   UNL     1       6.193   4.259  18.534  0.00  0.00    +0.000 OA
ATOM      3  N   UNL     1       4.378   4.646  17.138  0.00  0.00    +0.000 N 
ATOM      4  H   UNL     1       3.362   4.640  17.079  0.00  0.00    +0.000 HD
ENDROOT
BRANCH   1  10
ATOM      5  C   UNL     1       4.000   2.825  20.153  0.00  0.00    +0.000 A 
ATOM      6  N   UNL     1       3.098   2.591  21.134  0.00  0.00    +0.000 NA
ATOM      7  C   UNL     1       2.217   3.582  21.398  0.00  0.00    +0.000 A 
ATOM      8  C   UNL     1       2.221   4.782  20.711  0.00  0.00    +0.000 A 
ATOM      9  N   UNL     1       3.107   5.056  19.726  0.00  0.00    +0.000 NA
ATOM     10  C   UNL     1       4.007   4.052  19.464  0.00  0.00    +0.000 A 
BRANCH   5  11
ATOM     11  N   UNL     1       4.918   1.798  19.980  0.00  0.00    +0.000 N 
ATOM     12  H   UNL     1       4.480   0.908  20.193  0.00  0.00    +0.000 HD
ATOM     13  H   UNL     1       5.390   1.836  19.079  0.00  0.00    +0.000 HD
ENDBRANCH   5  11
ENDBRANCH   1  10
BRANCH   3  14
ATOM     14  N   UNL     1       5.161   4.951  16.065  0.00  0.00    +0.000 NA
ATOM     15  C   UNL     1       5.469   3.988  15.259  0.00  0.00    +0.000 C 
BRANCH  15  16
ATOM     16  C   UNL     1       6.278   4.254  14.102  0.00  0.00    +0.000 A 
ATOM     17  C   UNL     1       6.257   3.720  12.827  0.00  0.00    +0.000 A 
ATOM     18  C   UNL     1       7.294   4.357  12.102  0.00  0.00    +0.000 A 
ATOM     19  C   UNL     1       7.883   5.238  12.977  0.00  0.00    +0.000 A 
ATOM     20  O   UNL     1       7.275   5.185  14.192  0.00  0.00    +0.000 OA
ENDBRANCH  15  16
ENDBRANCH   3  14
TORSDOF 4
ENDMDL
MODEL 2
REMARK VINA RESULT:      -6.7      1.407      1.407
REMARK  Name = 
REMARK  4 active torsions:
REMARK  status: ('A' for Active; 'I' for Inactive)
REMARK    1  A    between atoms: N_1  and  C_2
REMARK    2  A    between atoms: C_7  and  C_8
REMARK    3  A    between atoms: N_10  and  N_11
REMARK    4  A    between atoms: C_12  and  C_13
REMARK                            x       y       z     vdW  Elec       q    Type
REMARK                         _______ _______ _______ _____ _____    ______ ____
ROOT
ATOM      1  C   UNL     1       3.189   3.326  17.697  0.00  0.00    +0.000 C 
ATOM      2  O   UNL     1       2.464   2.791  16.859  0.00  0.00    +0.000 OA
ATOM      3  N   UNL     1       4.368   4.008  17.394  0.00  0.00    +0.000 N 
ATOM      4  H   UNL     1       4.877   4.459  18.152  0.00  0.00    +0.000 HD
ENDROOT
BRANCH   1  10
ATOM      5  C   UNL     1       3.580   2.597  20.099  0.00  0.00    +0.000 A 
ATOM      6  N   UNL     1       3.224   2.601  21.405  0.00  0.00    +0.000 NA
ATOM      7  C   UNL     1       2.130   3.323  21.734  0.00  0.00    +0.000 A 
ATOM      8  C   UNL     1       1.396   4.029  20.798  0.00  0.00    +0.000 A 
ATOM      9  N   UNL     1       1.719   4.054  19.485  0.00  0.00    +0.000 NA
ATOM     10  C   UNL     1       2.836   3.327  19.152  0.00  0.00    +0.000 A 
BRANCH   5  11
ATOM     11  N   UNL     1       4.750   1.897  19.840  0.00  0.00    +0.000 N 
ATOM     12  H   UNL     1       5.380   1.978  20.630  0.00  0.00    +0.000 HD
ATOM     13  H   UNL     1       4.580   0.943  19.526  0.00  0.00    +0.000 HD
ENDBRANCH   5  11
ENDBRANCH   1  10
BRANCH   3  14
ATOM     14  N   UNL     1       4.806   4.050  16.105  0.00  0.00    +0.000 NA
ATOM     15  C   UNL     1       6.019   4.447  15.899  0.00  0.00    +0.000 C 
BRANCH  15  16
ATOM     16  C   UNL     1       6.540   4.495  14.562  0.00  0.00    +0.000 A 
ATOM     17  C   UNL     1       6.178   3.816  13.412  0.00  0.00    +0.000 A 
ATOM     18  C   UNL     1       7.048   4.260  12.386  0.00  0.00    +0.000 A 
ATOM     19  C   UNL     1       7.886   5.179  12.971  0.00  0.00    +0.000 A 
ATOM     20  O   UNL     1       7.587   5.330  14.288  0.00  0.00    +0.000 OA
ENDBRANCH  15  16
ENDBRANCH   3  14
TORSDOF 4
ENDMDL
MODEL 3
REMARK VINA RESULT:      -6.5      5.522      7.034
REMARK  Name = 
REMARK  4 active torsions:
REMARK  status: ('A' for Active; 'I' for Inactive)
REMARK    1  A    between atoms: N_1  and  C_2
REMARK    2  A    between atoms: C_7  and  C_8
REMARK    3  A    between atoms: N_10  and  N_11
REMARK    4  A    between atoms: C_12  and  C_13
REMARK                            x       y       z     vdW  Elec       q    Type
REMARK                         _______ _______ _______ _____ _____    ______ ____
ROOT
ATOM      1  C   UNL     1       7.684   6.380  18.246  0.00  0.00    +0.000 C 
ATOM      2  O   UNL     1       8.051   5.881  19.310  0.00  0.00    +0.000 OA
ATOM      3  N   UNL     1       7.953   7.693  17.861  0.00  0.00    +0.000 N 
ATOM      4  H   UNL     1       7.647   8.002  16.941  0.00  0.00    +0.000 HD
ENDROOT
BRANCH   1  10
ATOM      5  C   UNL     1       6.099   4.506  17.590  0.00  0.00    +0.000 A 
ATOM      6  N   UNL     1       5.445   3.792  16.645  0.00  0.00    +0.000 NA
ATOM      7  C   UNL     1       5.641   4.163  15.360  0.00  0.00    +0.000 A 
ATOM      8  C   UNL     1       6.465   5.217  15.008  0.00  0.00    +0.000 A 
ATOM      9  N   UNL     1       7.134   5.957  15.922  0.00  0.00    +0.000 NA
ATOM     10  C   UNL     1       6.928   5.584  17.228  0.00  0.00    +0.000 A 
BRANCH   5  11
ATOM     11  N   UNL     1       5.801   4.120  18.890  0.00  0.00    +0.000 N 
ATOM     12  H   UNL     1       6.534   4.431  19.517  0.00  0.00    +0.000 HD
ATOM     13  H   UNL     1       4.858   4.379  19.174  0.00  0.00    +0.000 HD
ENDBRANCH   5  11
ENDBRANCH   1  10
BRANCH   3  14
ATOM     14  N   UNL     1       8.610   8.523  18.719  0.00  0.00    +0.000 NA
ATOM     15  C   UNL     1       8.817   9.739  18.332  0.00  0.00    +0.000 C 
BRANCH  15  16
ATOM     16  C   UNL     1       9.490  10.662  19.203  0.00  0.00    +0.000 A 
ATOM     17  C   UNL     1      10.627  11.428  19.025  0.00  0.00    +0.000 A 
ATOM     18  C   UNL     1      10.827  12.147  20.229  0.00  0.00    +0.000 A 
ATOM     19  C   UNL     1       9.803  11.776  21.066  0.00  0.00    +0.000 A 
ATOM     20  O   UNL     1       8.985  10.878  20.455  0.00  0.00    +0.000 OA
ENDBRANCH  15  16
ENDBRANCH   3  14
TORSDOF 4
ENDMDL
MODEL 4
REMARK VINA RESULT:      -6.5      1.684      1.689
REMARK  Name = 
REMARK  4 active torsions:
REMARK  status: ('A' for Active; 'I' for Inactive)
REMARK    1  A    between atoms: N_1  and  C_2
REMARK    2  A    between atoms: C_7  and  C_8
REMARK    3  A    between atoms: N_10  and  N_11
REMARK    4  A    between atoms: C_12  and  C_13
REMARK                            x       y       z     vdW  Elec       q    Type
REMARK                         _______ _______ _______ _____ _____    ______ ____
ROOT
ATOM      1  C   UNL     1       2.978   3.779  17.531  0.00  0.00    +0.000 C 
ATOM      2  O   UNL     1       2.149   3.571  16.645  0.00  0.00    +0.000 OA
ATOM      3  N   UNL     1       4.306   4.134  17.295  0.00  0.00    +0.000 N 
ATOM      4  H   UNL     1       4.906   4.332  18.094  0.00  0.00    +0.000 HD
ENDROOT
BRANCH   1  10
ATOM      5  C   UNL     1       2.010   2.564  19.540  0.00  0.00    +0.000 A 
ATOM      6  N   UNL     1       1.670   2.536  20.850  0.00  0.00    +0.000 NA
ATOM      7  C   UNL     1       1.927   3.652  21.568  0.00  0.00    +0.000 A 
ATOM      8  C   UNL     1       2.507   4.776  21.011  0.00  0.00    +0.000 A 
ATOM      9  N   UNL     1       2.864   4.844  19.708  0.00  0.00    +0.000 NA
ATOM     10  C   UNL     1       2.610   3.707  18.980  0.00  0.00    +0.000 A 
BRANCH   5  11
ATOM     11  N   UNL     1       1.785   1.365  18.878  0.00  0.00    +0.000 N 
ATOM     12  H   UNL     1       1.226   1.532  18.048  0.00  0.00    +0.000 HD
ATOM     13  H   UNL     1       2.638   0.834  18.718  0.00  0.00    +0.000 HD
ENDBRANCH   5  11
ENDBRANCH   1  10
BRANCH   3  14
ATOM     14  N   UNL     1       4.764   4.203  16.014  0.00  0.00    +0.000 NA
ATOM     15  C   UNL     1       6.026   4.429  15.843  0.00  0.00    +0.000 C 
BRANCH  15  16
ATOM     16  C   UNL     1       6.568   4.495  14.514  0.00  0.00    +0.000 A 
ATOM     17  C   UNL     1       6.240   3.815  13.355  0.00  0.00    +0.000 A 
ATOM     18  C   UNL     1       7.117   4.283  12.346  0.00  0.00    +0.000 A 
ATOM     19  C   UNL     1       7.925   5.217  12.949  0.00  0.00    +0.000 A 
ATOM     20  O   UNL     1       7.601   5.355  14.262  0.00  0.00    +0.000 OA
ENDBRANCH  15  16
ENDBRANCH   3  14
TORSDOF 4
ENDMDL
MODEL 5
REMARK VINA RESULT:      -6.4      5.592      7.103
REMARK  Name = 
REMARK  4 active torsions:
REMARK  status: ('A' for Active; 'I' for Inactive)
REMARK    1  A    between atoms: N_1  and  C_2
REMARK    2  A    between atoms: C_7  and  C_8
REMARK    3  A    between atoms: N_10  and  N_11
REMARK    4  A    between atoms: C_12  and  C_13
REMARK                            x       y       z     vdW  Elec       q    Type
REMARK                         _______ _______ _______ _____ _____    ______ ____
ROOT
ATOM      1  C   UNL     1       7.578   6.568  18.116  0.00  0.00    +0.000 C 
ATOM      2  O   UNL     1       7.923   6.053  19.179  0.00  0.00    +0.000 OA
ATOM      3  N   UNL     1       7.901   7.870  17.734  0.00  0.00    +0.000 N 
ATOM      4  H   UNL     1       7.610   8.192  16.813  0.00  0.00    +0.000 HD
ENDROOT
BRANCH   1  10
ATOM      5  C   UNL     1       5.557   5.206  17.398  0.00  0.00    +0.000 A 
ATOM      6  N   UNL     1       4.881   4.505  16.458  0.00  0.00    +0.000 NA
ATOM      7  C   UNL     1       5.460   4.406  15.241  0.00  0.00    +0.000 A 
ATOM      8  C   UNL     1       6.681   4.987  14.950  0.00  0.00    +0.000 A 
ATOM      9  N   UNL     1       7.387   5.698  15.859  0.00  0.00    +0.000 NA
ATOM     10  C   UNL     1       6.794   5.804  17.094  0.00  0.00    +0.000 A 
BRANCH   5  11
ATOM     11  N   UNL     1       4.877   5.329  18.602  0.00  0.00    +0.000 N 
ATOM     12  H   UNL     1       5.541   5.411  19.364  0.00  0.00    +0.000 HD
ATOM     13  H   UNL     1       4.160   6.052  18.581  0.00  0.00    +0.000 HD
ENDBRANCH   5  11
ENDBRANCH   1  10
BRANCH   3  14
ATOM     14  N   UNL     1       8.588   8.671  18.595  0.00  0.00    +0.000 NA
ATOM     15  C   UNL     1       8.791   9.897  18.236  0.00  0.00    +0.000 C 
BRANCH  15  16
ATOM     16  C   UNL     1       9.495  10.791  19.112  0.00  0.00    +0.000 A 
ATOM     17  C   UNL     1       9.421  10.982  20.480  0.00  0.00    +0.000 A 
ATOM     18  C   UNL     1      10.345  12.007  20.799  0.00  0.00    +0.000 A 
ATOM     19  C   UNL     1      10.924  12.379  19.609  0.00  0.00    +0.000 A 
ATOM     20  O   UNL     1      10.418  11.648  18.581  0.00  0.00    +0.000 OA
ENDBRANCH  15  16
ENDBRANCH   3  14
TORSDOF 4
ENDMDL
MODEL 6
REMARK VINA RESULT:      -6.3      1.521      1.666
REMARK  Name = 
REMARK  4 active torsions:
REMARK  status: ('A' for Active; 'I' for Inactive)
REMARK    1  A    between atoms: N_1  and  C_2
REMARK    2  A    between atoms: C_7  and  C_8
REMARK    3  A    between atoms: N_10  and  N_11
REMARK    4  A    between atoms: C_12  and  C_13
REMARK                            x       y       z     vdW  Elec       q    Type
REMARK                         _______ _______ _______ _____ _____    ______ ____
ROOT
ATOM      1  C   UNL     1       3.161   3.612  17.710  0.00  0.00    +0.000 C 
ATOM      2  O   UNL     1       2.451   3.175  16.805  0.00  0.00    +0.000 OA
ATOM      3  N   UNL     1       4.327   4.349  17.507  0.00  0.00    +0.000 N 
ATOM      4  H   UNL     1       4.824   4.708  18.320  0.00  0.00    +0.000 HD
ENDROOT
BRANCH   1  10
ATOM      5  C   UNL     1       3.630   2.698  20.034  0.00  0.00    +0.000 A 
ATOM      6  N   UNL     1       3.268   2.521  21.327  0.00  0.00    +0.000 NA
ATOM      7  C   UNL     1       2.085   3.055  21.705  0.00  0.00    +0.000 A 
ATOM      8  C   UNL     1       1.271   3.751  20.830  0.00  0.00    +0.000 A 
ATOM      9  N   UNL     1       1.596   3.953  19.533  0.00  0.00    +0.000 NA
ATOM     10  C   UNL     1       2.802   3.417  19.151  0.00  0.00    +0.000 A 
BRANCH   5  11
ATOM     11  N   UNL     1       4.884   2.188  19.729  0.00  0.00    +0.000 N 
ATOM     12  H   UNL     1       4.946   1.224  20.040  0.00  0.00    +0.000 HD
ATOM     13  H   UNL     1       5.148   2.340  18.758  0.00  0.00    +0.000 HD
ENDBRANCH   5  11
ENDBRANCH   1  10
BRANCH   3  14
ATOM     14  N   UNL     1       4.770   4.567  16.237  0.00  0.00    +0.000 NA
ATOM     15  C   UNL     1       5.823   3.922  15.854  0.00  0.00    +0.000 C 
BRANCH  15  16
ATOM     16  C   UNL     1       6.325   4.098  14.519  0.00  0.00    +0.000 A 
ATOM     17  C   UNL     1       7.269   4.966  14.002  0.00  0.00    +0.000 A 
ATOM     18  C   UNL     1       7.353   4.696  12.614  0.00  0.00    +0.000 A 
ATOM     19  C   UNL     1       6.457   3.684  12.369  0.00  0.00    +0.000 A 
ATOM     20  O   UNL     1       5.828   3.313  13.516  0.00  0.00    +0.000 OA
ENDBRANCH  15  16
ENDBRANCH   3  14
TORSDOF 4
ENDMDL
MODEL 7
REMARK VINA RESULT:      -6.3      0.964      1.807
REMARK  Name = 
REMARK  4 active torsions:
REMARK  status: ('A' for Active; 'I' for Inactive)
REMARK    1  A    between atoms: N_1  and  C_2
REMARK    2  A    between atoms: C_7  and  C_8
REMARK    3  A    between atoms: N_10  and  N_11
REMARK    4  A    between atoms: C_12  and  C_13
REMARK                            x       y       z     vdW  Elec       q    Type
REMARK                         _______ _______ _______ _____ _____    ______ ____
ROOT
ATOM      1  C   UNL     1       4.884   4.606  18.391  0.00  0.00    +0.000 C 
ATOM      2  O   UNL     1       5.492   5.675  18.415  0.00  0.00    +0.000 OA
ATOM      3  N   UNL     1       5.059   3.625  17.414  0.00  0.00    +0.000 N 
ATOM      4  H   UNL     1       4.543   2.752  17.505  0.00  0.00    +0.000 HD
ENDROOT
BRANCH   1  10
ATOM      5  C   UNL     1       3.048   5.190  20.048  0.00  0.00    +0.000 A 
ATOM      6  N   UNL     1       2.187   4.831  21.028  0.00  0.00    +0.000 NA
ATOM      7  C   UNL     1       2.207   3.534  21.409  0.00  0.00    +0.000 A 
ATOM      8  C   UNL     1       3.057   2.605  20.838  0.00  0.00    +0.000 A 
ATOM      9  N   UNL     1       3.929   2.922  19.854  0.00  0.00    +0.000 NA
ATOM     10  C   UNL     1       3.904   4.238  19.462  0.00  0.00    +0.000 A 
BRANCH   5  11
ATOM     11  N   UNL     1       2.929   6.516  19.656  0.00  0.00    +0.000 N 
ATOM     12  H   UNL     1       2.086   6.636  19.104  0.00  0.00    +0.000 HD
ATOM     13  H   UNL     1       3.028   7.169  20.430  0.00  0.00    +0.000 HD
ENDBRANCH   5  11
ENDBRANCH   1  10
BRANCH   3  14
ATOM     14  N   UNL     1       5.904   3.860  16.373  0.00  0.00    +0.000 NA
ATOM     15  C   UNL     1       5.381   4.000  15.199  0.00  0.00    +0.000 C 
BRANCH  15  16
ATOM     16  C   UNL     1       6.223   4.266  14.066  0.00  0.00    +0.000 A 
ATOM     17  C   UNL     1       6.271   3.700  12.806  0.00  0.00    +0.000 A 
ATOM     18  C   UNL     1       7.312   4.355  12.104  0.00  0.00    +0.000 A 
ATOM     19  C   UNL     1       7.835   5.279  12.977  0.00  0.00    +0.000 A 
ATOM     20  O   UNL     1       7.182   5.236  14.168  0.00  0.00    +0.000 OA
ENDBRANCH  15  16
ENDBRANCH   3  14
TORSDOF 4
ENDMDL
MODEL 8
REMARK VINA RESULT:      -6.3      5.192      6.352
REMARK  Name = 
REMARK  4 active torsions:
REMARK  status: ('A' for Active; 'I' for Inactive)
REMARK    1  A    between atoms: N_1  and  C_2
REMARK    2  A    between atoms: C_7  and  C_8
REMARK    3  A    between atoms: N_10  and  N_11
REMARK    4  A    between atoms: C_12  and  C_13
REMARK                            x       y       z     vdW  Elec       q    Type
REMARK                         _______ _______ _______ _____ _____    ______ ____
ROOT
ATOM      1  C   UNL     1       7.451   5.955  18.591  0.00  0.00    +0.000 C 
ATOM      2  O   UNL     1       8.187   5.545  19.489  0.00  0.00    +0.000 OA
ATOM      3  N   UNL     1       7.534   7.229  18.029  0.00  0.00    +0.000 N 
ATOM      4  H   UNL     1       6.911   7.461  17.258  0.00  0.00    +0.000 HD
ENDROOT
BRANCH   1  10
ATOM      5  C   UNL     1       6.548   4.522  16.698  0.00  0.00    +0.000 A 
ATOM      6  N   UNL     1       5.571   3.752  16.164  0.00  0.00    +0.000 NA
ATOM      7  C   UNL     1       4.463   3.569  16.917  0.00  0.00    +0.000 A 
ATOM      8  C   UNL     1       4.317   4.130  18.173  0.00  0.00    +0.000 A 
ATOM      9  N   UNL     1       5.270   4.902  18.743  0.00  0.00    +0.000 NA
ATOM     10  C   UNL     1       6.399   5.082  17.981  0.00  0.00    +0.000 A 
BRANCH   5  11
ATOM     11  N   UNL     1       7.684   4.612  15.906  0.00  0.00    +0.000 N 
ATOM     12  H   UNL     1       8.112   5.525  16.024  0.00  0.00    +0.000 HD
ATOM     13  H   UNL     1       8.318   3.825  16.029  0.00  0.00    +0.000 HD
ENDBRANCH   5  11
ENDBRANCH   1  10
BRANCH   3  14
ATOM     14  N   UNL     1       8.436   8.122  18.523  0.00  0.00    +0.000 NA
ATOM     15  C   UNL     1       8.332   9.351  18.134  0.00  0.00    +0.000 C 
BRANCH  15  16
ATOM     16  C   UNL     1       9.245  10.340  18.637  0.00  0.00    +0.000 A 
ATOM     17  C   UNL     1      10.076  11.235  17.987  0.00  0.00    +0.000 A 
ATOM     18  C   UNL     1      10.757  11.962  18.994  0.00  0.00    +0.000 A 
ATOM     19  C   UNL     1      10.302  11.469  20.193  0.00  0.00    +0.000 A 
ATOM     20  O   UNL     1       9.385  10.486  19.989  0.00  0.00    +0.000 OA
ENDBRANCH  15  16
ENDBRANCH   3  14
TORSDOF 4
ENDMDL
MODEL 9
REMARK VINA RESULT:      -6.3      6.054      7.293
REMARK  Name = 
REMARK  4 active torsions:
REMARK  status: ('A' for Active; 'I' for Inactive)
REMARK    1  A    between atoms: N_1  and  C_2
REMARK    2  A    between atoms: C_7  and  C_8
REMARK    3  A    between atoms: N_10  and  N_11
REMARK    4  A    between atoms: C_12  and  C_13
REMARK                            x       y       z     vdW  Elec       q    Type
REMARK                         _______ _______ _______ _____ _____    ______ ____
ROOT
ATOM      1  C   UNL     1       7.716   7.117  18.010  0.00  0.00    +0.000 C 
ATOM      2  O   UNL     1       8.218   6.649  19.031  0.00  0.00    +0.000 OA
ATOM      3  N   UNL     1       7.867   8.440  17.596  0.00  0.00    +0.000 N 
ATOM      4  H   UNL     1       7.452   8.723  16.710  0.00  0.00    +0.000 HD
ENDROOT
BRANCH   1  10
ATOM      5  C   UNL     1       7.081   4.875  16.997  0.00  0.00    +0.000 A 
ATOM      6  N   UNL     1       6.350   4.138  16.128  0.00  0.00    +0.000 NA
ATOM      7  C   UNL     1       5.472   4.811  15.350  0.00  0.00    +0.000 A 
ATOM      8  C   UNL     1       5.314   6.183  15.424  0.00  0.00    +0.000 A 
ATOM      9  N   UNL     1       6.022   6.955  16.280  0.00  0.00    +0.000 NA
ATOM     10  C   UNL     1       6.908   6.270  17.075  0.00  0.00    +0.000 A 
BRANCH   5  11
ATOM     11  N   UNL     1       7.910   4.118  17.813  0.00  0.00    +0.000 N 
ATOM     12  H   UNL     1       8.078   3.214  17.386  0.00  0.00    +0.000 HD
ATOM     13  H   UNL     1       8.750   4.618  18.098  0.00  0.00    +0.000 HD
ENDBRANCH   5  11
ENDBRANCH   1  10
BRANCH   3  14
ATOM     14  N   UNL     1       8.559   9.313  18.380  0.00  0.00    +0.000 NA
ATOM     15  C   UNL     1       8.814  10.483  17.890  0.00  0.00    +0.000 C 
BRANCH  15  16
ATOM     16  C   UNL     1       9.524  11.450  18.679  0.00  0.00    +0.000 A 
ATOM     17  C   UNL     1      10.763  11.401  19.292  0.00  0.00    +0.000 A 
ATOM     18  C   UNL     1      10.945  12.646  19.943  0.00  0.00    +0.000 A 
ATOM     19  C   UNL     1       9.809  13.377  19.688  0.00  0.00    +0.000 A 
ATOM     20  O   UNL     1       8.942  12.663  18.922  0.00  0.00    +0.000 OA
ENDBRANCH  15  16
ENDBRANCH   3  14
TORSDOF 4
ENDMDL
