MODEL 1
REMARK VINA RESULT:      -8.1      0.000      0.000
REMARK  Name = 
REMARK  4 active torsions:
REMARK  status: ('A' for Active; 'I' for Inactive)
REMARK    1  A    between atoms: O_1  and  C_2
REMARK    2  A    between atoms: C_7  and  C_8
REMARK    3  A    between atoms: N_9  and  N_10
REMARK    4  A    between atoms: N_10  and  C_11
REMARK                            x       y       z     vdW  Elec       q    Type
REMARK                         _______ _______ _______ _____ _____    ______ ____
ROOT
ATOM      1  N   UNL     1       5.890   4.018  17.891  0.00  0.00    +0.000 N 
ATOM      2  H   UNL     1       6.512   3.992  18.690  0.00  0.00    +0.000 HD
ENDROOT
BRANCH   1   3
ATOM      3  C   UNL     1       4.621   4.617  18.138  0.00  0.00    +0.000 A 
ATOM      4  C   UNL     1       4.522   6.023  18.096  0.00  0.00    +0.000 A 
ATOM      5  C   UNL     1       3.313   6.678  18.291  0.00  0.00    +0.000 A 
ATOM      6  C   UNL     1       2.163   5.936  18.525  0.00  0.00    +0.000 A 
ATOM      7  C   UNL     1       2.209   4.535  18.572  0.00  0.00    +0.000 A 
ATOM      8  C   UNL     1       1.027   3.819  18.823  0.00  0.00    +0.000 A 
ATOM      9  C   UNL     1       1.030   2.429  18.899  0.00  0.00    +0.000 A 
ATOM     10  C   UNL     1       2.218   1.736  18.719  0.00  0.00    +0.000 A 
ATOM     11  C   UNL     1       3.403   2.432  18.458  0.00  0.00    +0.000 A 
ATOM     12  C   UNL     1       3.439   3.847  18.376  0.00  0.00    +0.000 A 
ENDBRANCH   1   3
BRANCH   1  14
ATOM     13  C   UNL     1       5.767   3.851  15.639  0.00  0.00    +0.000 C 
ATOM     14  N   UNL     1       6.434   4.270  16.668  0.00  0.00    +0.000 NA
BRANCH  13  20
ATOM     15  C   UNL     1       7.298   4.994  14.014  0.00  0.00    +0.000 A 
ATOM     16  C   UNL     1       7.784   5.164  12.714  0.00  0.00    +0.000 A 
ATOM     17  C   UNL     1       7.272   4.389  11.670  0.00  0.00    +0.000 A 
ATOM     18  C   UNL     1       6.276   3.446  11.921  0.00  0.00    +0.000 A 
ATOM     19  C   UNL     1       5.791   3.276  13.218  0.00  0.00    +0.000 A 
ATOM     20  C   UNL     1       6.301   4.049  14.272  0.00  0.00    +0.000 A 
BRANCH  15  21
ATOM     21  O   UNL     1       7.801   5.758  15.030  0.00  0.00    +0.000 OA
ATOM     22  H   UNL     1       7.216   6.521  15.170  0.00  0.00    +0.000 HD
ENDBRANCH  15  21
ENDBRANCH  13  20
ENDBRANCH   1  14
TORSDOF 4
ENDMDL
MODEL 2
REMARK VINA RESULT:      -8.0      1.034      1.055
REMARK  Name = 
REMARK  4 active torsions:
REMARK  status: ('A' for Active; 'I' for Inactive)
REMARK    1  A    between atoms: O_1  and  C_2
REMARK    2  A    between atoms: C_7  and  C_8
REMARK    3  A    between atoms: N_9  and  N_10
REMARK    4  A    between atoms: N_10  and  C_11
REMARK                            x       y       z     vdW  Elec       q    Type
REMARK                         _______ _______ _______ _____ _____    ______ ____
ROOT
ATOM      1  N   UNL     1       5.442   3.762  17.858  0.00  0.00    +0.000 N 
ATOM      2  H   UNL     1       5.989   3.342  18.600  0.00  0.00    +0.000 HD
ENDROOT
BRANCH   1   3
ATOM      3  C   UNL     1       4.406   4.636  18.297  0.00  0.00    +0.000 A 
ATOM      4  C   UNL     1       4.339   5.931  17.741  0.00  0.00    +0.000 A 
ATOM      5  C   UNL     1       3.338   6.826  18.093  0.00  0.00    +0.000 A 
ATOM      6  C   UNL     1       2.366   6.443  19.008  0.00  0.00    +0.000 A 
ATOM      7  C   UNL     1       2.388   5.165  19.586  0.00  0.00    +0.000 A 
ATOM      8  C   UNL     1       1.396   4.818  20.518  0.00  0.00    +0.000 A 
ATOM      9  C   UNL     1       1.391   3.569  21.131  0.00  0.00    +0.000 A 
ATOM     10  C   UNL     1       2.379   2.647  20.815  0.00  0.00    +0.000 A 
ATOM     11  C   UNL     1       3.368   2.971  19.882  0.00  0.00    +0.000 A 
ATOM     12  C   UNL     1       3.408   4.235  19.239  0.00  0.00    +0.000 A 
ENDBRANCH   1   3
BRANCH   1  14
ATOM     13  C   UNL     1       5.597   3.722  15.602  0.00  0.00    +0.000 C 
ATOM     14  N   UNL     1       6.094   4.141  16.723  0.00  0.00    +0.000 NA
BRANCH  13  20
ATOM     15  C   UNL     1       7.220   5.068  14.244  0.00  0.00    +0.000 A 
ATOM     16  C   UNL     1       7.832   5.365  13.022  0.00  0.00    +0.000 A 
ATOM     17  C   UNL     1       7.482   4.649  11.875  0.00  0.00    +0.000 A 
ATOM     18  C   UNL     1       6.523   3.639  11.944  0.00  0.00    +0.000 A 
ATOM     19  C   UNL     1       5.914   3.342  13.164  0.00  0.00    +0.000 A 
ATOM     20  C   UNL     1       6.261   4.054  14.321  0.00  0.00    +0.000 A 
BRANCH  15  21
ATOM     21  O   UNL     1       7.566   5.775  15.363  0.00  0.00    +0.000 OA
ATOM     22  H   UNL     1       6.761   5.984  15.864  0.00  0.00    +0.000 HD
ENDBRANCH  15  21
ENDBRANCH  13  20
ENDBRANCH   1  14
TORSDOF 4
ENDMDL
MODEL 3
REMARK VINA RESULT:      -7.8      5.054      8.322
REMARK  Name = 
REMARK  4 active torsions:
REMARK  status: ('A' for Active; 'I' for Inactive)
REMARK    1  A    between atoms: O_1  and  C_2
REMARK    2  A    between atoms: C_7  and  C_8
REMARK    3  A    between atoms: N_9  and  N_10
REMARK    4  A    between atoms: N_10  and  C_11
REMARK                            x       y       z     vdW  Elec       q    Type
REMARK                         _______ _______ _______ _____ _____    ______ ____
ROOT
ATOM      1  N   UNL     1       2.124   6.946  20.779  0.00  0.00    +0.000 N 
ATOM      2  H   UNL     1       1.787   6.389  21.556  0.00  0.00    +0.000 HD
ENDROOT
BRANCH   1   3
ATOM      3  C   UNL     1       2.505   6.200  19.627  0.00  0.00    +0.000 A 
ATOM      4  C   UNL     1       3.399   6.788  18.709  0.00  0.00    +0.000 A 
ATOM      5  C   UNL     1       3.843   6.110  17.583  0.00  0.00    +0.000 A 
ATOM      6  C   UNL     1       3.408   4.812  17.349  0.00  0.00    +0.000 A 
ATOM      7  C   UNL     1       2.521   4.182  18.234  0.00  0.00    +0.000 A 
ATOM      8  C   UNL     1       2.092   2.873  17.957  0.00  0.00    +0.000 A 
ATOM      9  C   UNL     1       1.197   2.217  18.796  0.00  0.00    +0.000 A 
ATOM     10  C   UNL     1       0.721   2.862  19.929  0.00  0.00    +0.000 A 
ATOM     11  C   UNL     1       1.145   4.161  20.226  0.00  0.00    +0.000 A 
ATOM     12  C   UNL     1       2.054   4.862  19.392  0.00  0.00    +0.000 A 
ENDBRANCH   1   3
BRANCH   1  14
ATOM     13  C   UNL     1       0.610   8.511  21.390  0.00  0.00    +0.000 C 
ATOM     14  N   UNL     1       1.510   8.137  20.535  0.00  0.00    +0.000 NA
BRANCH  13  20
ATOM     15  C   UNL     1      -0.476  10.596  22.262  0.00  0.00    +0.000 A 
ATOM     16  C   UNL     1      -1.184  11.782  22.043  0.00  0.00    +0.000 A 
ATOM     17  C   UNL     1      -1.552  12.146  20.746  0.00  0.00    +0.000 A 
ATOM     18  C   UNL     1      -1.218  11.328  19.667  0.00  0.00    +0.000 A 
ATOM     19  C   UNL     1      -0.511  10.145  19.886  0.00  0.00    +0.000 A 
ATOM     20  C   UNL     1      -0.135   9.774  21.185  0.00  0.00    +0.000 A 
BRANCH  15  21
ATOM     21  O   UNL     1      -0.121  10.245  23.536  0.00  0.00    +0.000 OA
ATOM     22  H   UNL     1       0.786  10.548  23.705  0.00  0.00    +0.000 HD
ENDBRANCH  15  21
ENDBRANCH  13  20
ENDBRANCH   1  14
TORSDOF 4
ENDMDL
MODEL 4
REMARK VINA RESULT:      -7.8      4.966      7.512
REMARK  Name = 
REMARK  4 active torsions:
REMARK  status: ('A' for Active; 'I' for Inactive)
REMARK    1  A    between atoms: O_1  and  C_2
REMARK    2  A    between atoms: C_7  and  C_8
REMARK    3  A    between atoms: N_9  and  N_10
REMARK    4  A    between atoms: N_10  and  C_11
REMARK                            x       y       z     vdW  Elec       q    Type
REMARK                         _______ _______ _______ _____ _____    ______ ____
ROOT
ATOM      1  N   UNL     1       1.844   7.666  21.007  0.00  0.00    +0.000 N 
ATOM      2  H   UNL     1       2.533   7.873  21.720  0.00  0.00    +0.000 HD
ENDROOT
BRANCH   1   3
ATOM      3  C   UNL     1       1.204   8.808  20.443  0.00  0.00    +0.000 A 
ATOM      4  C   UNL     1       1.418   9.093  19.078  0.00  0.00    +0.000 A 
ATOM      5  C   UNL     1       0.801  10.166  18.450  0.00  0.00    +0.000 A 
ATOM      6  C   UNL     1      -0.060  10.981  19.174  0.00  0.00    +0.000 A 
ATOM      7  C   UNL     1      -0.308  10.737  20.533  0.00  0.00    +0.000 A 
ATOM      8  C   UNL     1      -1.174  11.591  21.235  0.00  0.00    +0.000 A 
ATOM      9  C   UNL     1      -1.432  11.398  22.589  0.00  0.00    +0.000 A 
ATOM     10  C   UNL     1      -0.829  10.342  23.258  0.00  0.00    +0.000 A 
ATOM     11  C   UNL     1       0.028   9.476  22.572  0.00  0.00    +0.000 A 
ATOM     12  C   UNL     1       0.317   9.643  21.193  0.00  0.00    +0.000 A 
ENDBRANCH   1   3
BRANCH   1  14
ATOM     13  C   UNL     1       1.527   5.517  20.379  0.00  0.00    +0.000 C 
ATOM     14  N   UNL     1       2.110   6.649  20.140  0.00  0.00    +0.000 NA
BRANCH  13  20
ATOM     15  C   UNL     1       1.428   3.056  19.910  0.00  0.00    +0.000 A 
ATOM     16  C   UNL     1       1.687   1.965  19.074  0.00  0.00    +0.000 A 
ATOM     17  C   UNL     1       2.306   2.165  17.837  0.00  0.00    +0.000 A 
ATOM     18  C   UNL     1       2.669   3.450  17.435  0.00  0.00    +0.000 A 
ATOM     19  C   UNL     1       2.410   4.538  18.270  0.00  0.00    +0.000 A 
ATOM     20  C   UNL     1       1.787   4.346  19.511  0.00  0.00    +0.000 A 
BRANCH  15  21
ATOM     21  O   UNL     1       0.824   2.852  21.120  0.00  0.00    +0.000 OA
ATOM     22  H   UNL     1      -0.100   3.146  21.064  0.00  0.00    +0.000 HD
ENDBRANCH  15  21
ENDBRANCH  13  20
ENDBRANCH   1  14
TORSDOF 4
ENDMDL
MODEL 5
REMARK VINA RESULT:      -7.8      4.777      8.316
REMARK  Name = 
REMARK  4 active torsions:
REMARK  status: ('A' for Active; 'I' for Inactive)
REMARK    1  A    between atoms: O_1  and  C_2
REMARK    2  A    between atoms: C_7  and  C_8
REMARK    3  A    between atoms: N_9  and  N_10
REMARK    4  A    between atoms: N_10  and  C_11
REMARK                            x       y       z     vdW  Elec       q    Type
REMARK                         _______ _______ _______ _____ _____    ______ ____
ROOT
ATOM      1  N   UNL     1       2.221   6.200  20.912  0.00  0.00    +0.000 N 
ATOM      2  H   UNL     1       2.417   5.993  21.884  0.00  0.00    +0.000 HD
ENDROOT
BRANCH   1   3
ATOM      3  C   UNL     1       2.039   5.057  20.081  0.00  0.00    +0.000 A 
ATOM      4  C   UNL     1       1.008   4.149  20.403  0.00  0.00    +0.000 A 
ATOM      5  C   UNL     1       0.747   3.032  19.622  0.00  0.00    +0.000 A 
ATOM      6  C   UNL     1       1.508   2.798  18.484  0.00  0.00    +0.000 A 
ATOM      7  C   UNL     1       2.542   3.673  18.120  0.00  0.00    +0.000 A 
ATOM      8  C   UNL     1       3.299   3.397  16.970  0.00  0.00    +0.000 A 
ATOM      9  C   UNL     1       4.347   4.226  16.582  0.00  0.00    +0.000 A 
ATOM     10  C   UNL     1       4.649   5.349  17.340  0.00  0.00    +0.000 A 
ATOM     11  C   UNL     1       3.898   5.646  18.482  0.00  0.00    +0.000 A 
ATOM     12  C   UNL     1       2.826   4.822  18.910  0.00  0.00    +0.000 A 
ENDBRANCH   1   3
BRANCH   1  14
ATOM     13  C   UNL     1       1.350   8.189  21.542  0.00  0.00    +0.000 C 
ATOM     14  N   UNL     1       1.417   7.265  20.636  0.00  0.00    +0.000 NA
BRANCH  13  20
ATOM     15  C   UNL     1      -0.016  10.095  22.431  0.00  0.00    +0.000 A 
ATOM     16  C   UNL     1      -0.846  11.200  22.219  0.00  0.00    +0.000 A 
ATOM     17  C   UNL     1      -1.191  11.574  20.918  0.00  0.00    +0.000 A 
ATOM     18  C   UNL     1      -0.711  10.848  19.829  0.00  0.00    +0.000 A 
ATOM     19  C   UNL     1       0.119   9.746  20.041  0.00  0.00    +0.000 A 
ATOM     20  C   UNL     1       0.471   9.365  21.344  0.00  0.00    +0.000 A 
BRANCH  15  21
ATOM     21  O   UNL     1       0.315   9.733  23.708  0.00  0.00    +0.000 OA
ATOM     22  H   UNL     1       1.187  10.103  23.925  0.00  0.00    +0.000 HD
ENDBRANCH  15  21
ENDBRANCH  13  20
ENDBRANCH   1  14
TORSDOF 4
ENDMDL
MODEL 6
REMARK VINA RESULT:      -7.7      1.061      2.340
REMARK  Name = 
REMARK  4 active torsions:
REMARK  status: ('A' for Active; 'I' for Inactive)
REMARK    1  A    between atoms: O_1  and  C_2
REMARK    2  A    between atoms: C_7  and  C_8
REMARK    3  A    between atoms: N_9  and  N_10
REMARK    4  A    between atoms: N_10  and  C_11
REMARK                            x       y       z     vdW  Elec       q    Type
REMARK                         _______ _______ _______ _____ _____    ______ ____
ROOT
ATOM      1  N   UNL     1       5.437   4.378  17.901  0.00  0.00    +0.000 N 
ATOM      2  H   UNL     1       5.486   5.348  18.188  0.00  0.00    +0.000 HD
ENDROOT
BRANCH   1   3
ATOM      3  C   UNL     1       4.241   3.701  18.277  0.00  0.00    +0.000 A 
ATOM      4  C   UNL     1       4.072   2.360  17.875  0.00  0.00    +0.000 A 
ATOM      5  C   UNL     1       2.951   1.624  18.233  0.00  0.00    +0.000 A 
ATOM      6  C   UNL     1       1.967   2.213  19.016  0.00  0.00    +0.000 A 
ATOM      7  C   UNL     1       2.090   3.543  19.444  0.00  0.00    +0.000 A 
ATOM      8  C   UNL     1       1.068   4.108  20.225  0.00  0.00    +0.000 A 
ATOM      9  C   UNL     1       1.139   5.430  20.654  0.00  0.00    +0.000 A 
ATOM     10  C   UNL     1       2.238   6.204  20.311  0.00  0.00    +0.000 A 
ATOM     11  C   UNL     1       3.270   5.654  19.544  0.00  0.00    +0.000 A 
ATOM     12  C   UNL     1       3.231   4.312  19.085  0.00  0.00    +0.000 A 
ENDBRANCH   1   3
BRANCH   1  14
ATOM     13  C   UNL     1       5.475   4.704  15.663  0.00  0.00    +0.000 C 
ATOM     14  N   UNL     1       5.942   4.049  16.679  0.00  0.00    +0.000 NA
BRANCH  13  20
ATOM     15  C   UNL     1       7.155   4.879  13.810  0.00  0.00    +0.000 A 
ATOM     16  C   UNL     1       7.571   4.569  12.511  0.00  0.00    +0.000 A 
ATOM     17  C   UNL     1       6.769   3.768  11.694  0.00  0.00    +0.000 A 
ATOM     18  C   UNL     1       5.553   3.278  12.170  0.00  0.00    +0.000 A 
ATOM     19  C   UNL     1       5.139   3.587  13.466  0.00  0.00    +0.000 A 
ATOM     20  C   UNL     1       5.939   4.388  14.293  0.00  0.00    +0.000 A 
BRANCH  15  21
ATOM     21  O   UNL     1       7.944   5.666  14.603  0.00  0.00    +0.000 OA
ATOM     22  H   UNL     1       7.716   5.504  15.533  0.00  0.00    +0.000 HD
ENDBRANCH  15  21
ENDBRANCH  13  20
ENDBRANCH   1  14
TORSDOF 4
ENDMDL
MODEL 7
REMARK VINA RESULT:      -7.7      4.649      7.288
REMARK  Name = 
REMARK  4 active torsions:
REMARK  status: ('A' for Active; 'I' for Inactive)
REMARK    1  A    between atoms: O_1  and  C_2
REMARK    2  A    between atoms: C_7  and  C_8
REMARK    3  A    between atoms: N_9  and  N_10
REMARK    4  A    between atoms: N_10  and  C_11
REMARK                            x       y       z     vdW  Elec       q    Type
REMARK                         _______ _______ _______ _____ _____    ______ ____
ROOT
ATOM      1  N   UNL     1       1.785   7.643  21.041  0.00  0.00    +0.000 N 
ATOM      2  H   UNL     1       2.468   7.834  21.765  0.00  0.00    +0.000 HD
ENDROOT
BRANCH   1   3
ATOM      3  C   UNL     1       1.183   8.800  20.465  0.00  0.00    +0.000 A 
ATOM      4  C   UNL     1       1.428   9.079  19.105  0.00  0.00    +0.000 A 
ATOM      5  C   UNL     1       0.849  10.166  18.465  0.00  0.00    +0.000 A 
ATOM      6  C   UNL     1      -0.004  11.003  19.173  0.00  0.00    +0.000 A 
ATOM      7  C   UNL     1      -0.281  10.766  20.527  0.00  0.00    +0.000 A 
ATOM      8  C   UNL     1      -1.139  11.641  21.214  0.00  0.00    +0.000 A 
ATOM      9  C   UNL     1      -1.426  11.456  22.563  0.00  0.00    +0.000 A 
ATOM     10  C   UNL     1      -0.862  10.386  23.243  0.00  0.00    +0.000 A 
ATOM     11  C   UNL     1      -0.014   9.498  22.572  0.00  0.00    +0.000 A 
ATOM     12  C   UNL     1       0.305   9.657  21.199  0.00  0.00    +0.000 A 
ENDBRANCH   1   3
BRANCH   1  14
ATOM     13  C   UNL     1       1.807   5.422  20.619  0.00  0.00    +0.000 C 
ATOM     14  N   UNL     1       2.039   6.619  20.179  0.00  0.00    +0.000 NA
BRANCH  13  20
ATOM     15  C   UNL     1       3.356   4.041  19.211  0.00  0.00    +0.000 A 
ATOM     16  C   UNL     1       3.597   2.924  18.405  0.00  0.00    +0.000 A 
ATOM     17  C   UNL     1       2.570   2.012  18.151  0.00  0.00    +0.000 A 
ATOM     18  C   UNL     1       1.303   2.212  18.698  0.00  0.00    +0.000 A 
ATOM     19  C   UNL     1       1.063   3.327  19.503  0.00  0.00    +0.000 A 
ATOM     20  C   UNL     1       2.089   4.246  19.765  0.00  0.00    +0.000 A 
BRANCH  15  21
ATOM     21  O   UNL     1       4.365   4.931  19.453  0.00  0.00    +0.000 OA
ATOM     22  H   UNL     1       4.256   5.296  20.346  0.00  0.00    +0.000 HD
ENDBRANCH  15  21
ENDBRANCH  13  20
ENDBRANCH   1  14
TORSDOF 4
ENDMDL
MODEL 8
REMARK VINA RESULT:      -7.6      5.129      8.623
REMARK  Name = 
REMARK  4 active torsions:
REMARK  status: ('A' for Active; 'I' for Inactive)
REMARK    1  A    between atoms: O_1  and  C_2
REMARK    2  A    between atoms: C_7  and  C_8
REMARK    3  A    between atoms: N_9  and  N_10
REMARK    4  A    between atoms: N_10  and  C_11
REMARK                            x       y       z     vdW  Elec       q    Type
REMARK                         _______ _______ _______ _____ _____    ______ ____
ROOT
ATOM      1  N   UNL     1       1.816   7.027  21.193  0.00  0.00    +0.000 N 
ATOM      2  H   UNL     1       1.715   6.407  21.988  0.00  0.00    +0.000 HD
ENDROOT
BRANCH   1   3
ATOM      3  C   UNL     1       2.176   6.383  19.974  0.00  0.00    +0.000 A 
ATOM      4  C   UNL     1       2.878   7.127  19.003  0.00  0.00    +0.000 A 
ATOM      5  C   UNL     1       3.294   6.559  17.806  0.00  0.00    +0.000 A 
ATOM      6  C   UNL     1       3.025   5.221  17.553  0.00  0.00    +0.000 A 
ATOM      7  C   UNL     1       2.333   4.438  18.489  0.00  0.00    +0.000 A 
ATOM      8  C   UNL     1       2.068   3.091  18.192  0.00  0.00    +0.000 A 
ATOM      9  C   UNL     1       1.367   2.282  19.083  0.00  0.00    +0.000 A 
ATOM     10  C   UNL     1       0.925   2.812  20.287  0.00  0.00    +0.000 A 
ATOM     11  C   UNL     1       1.189   4.149  20.603  0.00  0.00    +0.000 A 
ATOM     12  C   UNL     1       1.898   5.003  19.720  0.00  0.00    +0.000 A 
ENDBRANCH   1   3
BRANCH   1  14
ATOM     13  C   UNL     1       0.974   8.959  22.013  0.00  0.00    +0.000 C 
ATOM     14  N   UNL     1       0.939   8.063  21.077  0.00  0.00    +0.000 NA
BRANCH  13  20
ATOM     15  C   UNL     1      -0.041  10.956  20.887  0.00  0.00    +0.000 A 
ATOM     16  C   UNL     1      -0.937  12.030  20.889  0.00  0.00    +0.000 A 
ATOM     17  C   UNL     1      -1.761  12.248  21.996  0.00  0.00    +0.000 A 
ATOM     18  C   UNL     1      -1.692  11.399  23.100  0.00  0.00    +0.000 A 
ATOM     19  C   UNL     1      -0.798  10.328  23.097  0.00  0.00    +0.000 A 
ATOM     20  C   UNL     1       0.031  10.100  21.989  0.00  0.00    +0.000 A 
BRANCH  15  21
ATOM     21  O   UNL     1       0.765  10.750  19.801  0.00  0.00    +0.000 OA
ATOM     22  H   UNL     1       1.477  11.411  19.807  0.00  0.00    +0.000 HD
ENDBRANCH  15  21
ENDBRANCH  13  20
ENDBRANCH   1  14
TORSDOF 4
ENDMDL
MODEL 9
REMARK VINA RESULT:      -7.5      4.554      8.314
REMARK  Name = 
REMARK  4 active torsions:
REMARK  status: ('A' for Active; 'I' for Inactive)
REMARK    1  A    between atoms: O_1  and  C_2
REMARK    2  A    between atoms: C_7  and  C_8
REMARK    3  A    between atoms: N_9  and  N_10
REMARK    4  A    between atoms: N_10  and  C_11
REMARK                            x       y       z     vdW  Elec       q    Type
REMARK                         _______ _______ _______ _____ _____    ______ ____
ROOT
ATOM      1  N   UNL     1       2.163   6.314  21.044  0.00  0.00    +0.000 N 
ATOM      2  H   UNL     1       2.412   6.073  21.996  0.00  0.00    +0.000 HD
ENDROOT
BRANCH   1   3
ATOM      3  C   UNL     1       2.016   5.203  20.164  0.00  0.00    +0.000 A 
ATOM      4  C   UNL     1       0.988   4.272  20.421  0.00  0.00    +0.000 A 
ATOM      5  C   UNL     1       0.761   3.185  19.589  0.00  0.00    +0.000 A 
ATOM      6  C   UNL     1       1.555   3.004  18.465  0.00  0.00    +0.000 A 
ATOM      7  C   UNL     1       2.589   3.904  18.164  0.00  0.00    +0.000 A 
ATOM      8  C   UNL     1       3.380   3.681  17.025  0.00  0.00    +0.000 A 
ATOM      9  C   UNL     1       4.429   4.536  16.700  0.00  0.00    +0.000 A 
ATOM     10  C   UNL     1       4.697   5.631  17.509  0.00  0.00    +0.000 A 
ATOM     11  C   UNL     1       3.912   5.874  18.641  0.00  0.00    +0.000 A 
ATOM     12  C   UNL     1       2.838   5.023  19.006  0.00  0.00    +0.000 A 
ENDBRANCH   1   3
BRANCH   1  14
ATOM     13  C   UNL     1       1.400   8.354  21.650  0.00  0.00    +0.000 C 
ATOM     14  N   UNL     1       1.285   7.338  20.854  0.00  0.00    +0.000 NA
BRANCH  13  20
ATOM     15  C   UNL     1       0.212  10.111  20.312  0.00  0.00    +0.000 A 
ATOM     16  C   UNL     1      -0.674  11.190  20.235  0.00  0.00    +0.000 A 
ATOM     17  C   UNL     1      -1.308  11.656  21.389  0.00  0.00    +0.000 A 
ATOM     18  C   UNL     1      -1.058  11.049  22.620  0.00  0.00    +0.000 A 
ATOM     19  C   UNL     1      -0.175   9.972  22.695  0.00  0.00    +0.000 A 
ATOM     20  C   UNL     1       0.464   9.496  21.541  0.00  0.00    +0.000 A 
BRANCH  15  21
ATOM     21  O   UNL     1       0.831   9.662  19.178  0.00  0.00    +0.000 OA
ATOM     22  H   UNL     1       0.264   9.000  18.750  0.00  0.00    +0.000 HD
ENDBRANCH  15  21
ENDBRANCH  13  20
ENDBRANCH   1  14
TORSDOF 4
ENDMDL
