MODEL 1
REMARK VINA RESULT:      -7.0      0.000      0.000
REMARK  Name = 
REMARK  5 active torsions:
REMARK  status: ('A' for Active; 'I' for Inactive)
REMARK    1  A    between atoms: C_1  and  N_2
REMARK    2  A    between atoms: N_5  and  C_6
REMARK    3  A    between atoms: C_6  and  C_7
REMARK    4  A    between atoms: C_7  and  C_8
REMARK    5  A    between atoms: C_8  and  N_9
REMARK                            x       y       z     vdW  Elec       q    Type
REMARK                         _______ _______ _______ _____ _____    ______ ____
ROOT
ATOM      1  N   UNL     1       3.563   5.328  19.075  0.00  0.00    +0.000 N 
ATOM      2  C   UNL     1       2.616   4.278  19.075  0.00  0.00    +0.000 A 
ATOM      3  C   UNL     1       1.403   4.378  19.790  0.00  0.00    +0.000 A 
ATOM      4  C   UNL     1       0.449   3.349  19.821  0.00  0.00    +0.000 A 
ATOM      5  C   UNL     1       0.674   2.165  19.131  0.00  0.00    +0.000 A 
ATOM      6  C   UNL     1       1.844   2.018  18.411  0.00  0.00    +0.000 A 
ATOM      7  C   UNL     1       2.799   3.053  18.366  0.00  0.00    +0.000 A 
ATOM      8  S   UNL     1       4.189   2.709  17.275  0.00  0.00    +0.000 S 
ATOM      9  C   UNL     1       4.693   4.426  17.050  0.00  0.00    +0.000 C 
ATOM     10  C   UNL     1       5.894   4.525  16.137  0.00  0.00    +0.000 C 
ATOM     11  C   UNL     1       6.545   5.709  16.114  0.00  0.00    +0.000 C 
ATOM     12  C   UNL     1       6.579   6.515  17.322  0.00  0.00    +0.000 C 
ATOM     13 CL   UNL     1       7.731   7.802  17.350  0.00  0.00    +0.000 Cl
ATOM     14  C   UNL     1       5.841   6.233  18.402  0.00  0.00    +0.000 C 
ATOM     15  C   UNL     1       4.890   5.045  18.460  0.00  0.00    +0.000 C 
ENDROOT
BRANCH   1  16
ATOM     16  C   UNL     1       3.216   6.673  19.569  0.00  0.00    +0.000 C 
BRANCH  16  17
ATOM     17  C   UNL     1       2.518   7.487  18.476  0.00  0.00    +0.000 C 
BRANCH  17  18
ATOM     18  C   UNL     1       1.708   8.668  19.030  0.00  0.00    +0.000 C 
BRANCH  18  23
ATOM     19  C   UNL     1      -0.788  12.519  20.553  0.00  0.00    +0.000 C 
ATOM     20  N   UNL     1      -0.216  11.865  19.381  0.00  0.00    +0.000 NA
ATOM     21  C   UNL     1      -0.836  10.549  19.152  0.00  0.00    +0.000 C 
ATOM     22  C   UNL     1      -0.201   9.805  17.954  0.00  0.00    +0.000 C 
ATOM     23  N   UNL     1       1.269   9.646  18.023  0.00  0.00    +0.000 NA
ATOM     24  C   UNL     1       1.853  10.985  18.284  0.00  0.00    +0.000 C 
ATOM     25  C   UNL     1       1.245  11.729  19.499  0.00  0.00    +0.000 C 
ENDBRANCH  18  23
ENDBRANCH  17  18
ENDBRANCH  16  17
ENDBRANCH   1  16
TORSDOF 4
ENDMDL
MODEL 2
REMARK VINA RESULT:      -6.8      0.797      1.014
REMARK  Name = 
REMARK  5 active torsions:
REMARK  status: ('A' for Active; 'I' for Inactive)
REMARK    1  A    between atoms: C_1  and  N_2
REMARK    2  A    between atoms: N_5  and  C_6
REMARK    3  A    between atoms: C_6  and  C_7
REMARK    4  A    between atoms: C_7  and  C_8
REMARK    5  A    between atoms: C_8  and  N_9
REMARK                            x       y       z     vdW  Elec       q    Type
REMARK                         _______ _______ _______ _____ _____    ______ ____
ROOT
ATOM      1  N   UNL     1       3.546   5.388  19.017  0.00  0.00    +0.000 N 
ATOM      2  C   UNL     1       2.619   4.320  19.044  0.00  0.00    +0.000 A 
ATOM      3  C   UNL     1       1.380   4.435  19.710  0.00  0.00    +0.000 A 
ATOM      4  C   UNL     1       0.446   3.390  19.767  0.00  0.00    +0.000 A 
ATOM      5  C   UNL     1       0.717   2.173  19.154  0.00  0.00    +0.000 A 
ATOM      6  C   UNL     1       1.915   2.010  18.484  0.00  0.00    +0.000 A 
ATOM      7  C   UNL     1       2.851   3.061  18.413  0.00  0.00    +0.000 A 
ATOM      8  S   UNL     1       4.286   2.686  17.392  0.00  0.00    +0.000 S 
ATOM      9  C   UNL     1       4.764   4.398  17.086  0.00  0.00    +0.000 C 
ATOM     10  C   UNL     1       5.994   4.470  16.211  0.00  0.00    +0.000 C 
ATOM     11  C   UNL     1       6.623   5.665  16.143  0.00  0.00    +0.000 C 
ATOM     12  C   UNL     1       6.598   6.538  17.303  0.00  0.00    +0.000 C 
ATOM     13 CL   UNL     1       7.724   7.849  17.298  0.00  0.00    +0.000 Cl
ATOM     14  C   UNL     1       5.828   6.302  18.372  0.00  0.00    +0.000 C 
ATOM     15  C   UNL     1       4.898   5.099  18.465  0.00  0.00    +0.000 C 
ENDROOT
BRANCH   1  16
ATOM     16  C   UNL     1       3.156   6.752  19.421  0.00  0.00    +0.000 C 
BRANCH  16  17
ATOM     17  C   UNL     1       2.458   7.478  18.268  0.00  0.00    +0.000 C 
BRANCH  17  18
ATOM     18  C   UNL     1       2.087   8.929  18.608  0.00  0.00    +0.000 C 
BRANCH  18  23
ATOM     19  C   UNL     1       0.978  13.065  20.855  0.00  0.00    +0.000 C 
ATOM     20  N   UNL     1       0.437  11.806  20.355  0.00  0.00    +0.000 NA
ATOM     21  C   UNL     1       1.042  10.655  21.049  0.00  0.00    +0.000 C 
ATOM     22  C   UNL     1       0.535   9.305  20.490  0.00  0.00    +0.000 C 
ATOM     23  N   UNL     1       0.692   9.131  19.029  0.00  0.00    +0.000 NA
ATOM     24  C   UNL     1       0.099  10.320  18.370  0.00  0.00    +0.000 C 
ATOM     25  C   UNL     1       0.620  11.680  18.899  0.00  0.00    +0.000 C 
ENDBRANCH  18  23
ENDBRANCH  17  18
ENDBRANCH  16  17
ENDBRANCH   1  16
TORSDOF 4
ENDMDL
MODEL 3
REMARK VINA RESULT:      -6.5      0.744      1.091
REMARK  Name = 
REMARK  5 active torsions:
REMARK  status: ('A' for Active; 'I' for Inactive)
REMARK    1  A    between atoms: C_1  and  N_2
REMARK    2  A    between atoms: N_5  and  C_6
REMARK    3  A    between atoms: C_6  and  C_7
REMARK    4  A    between atoms: C_7  and  C_8
REMARK    5  A    between atoms: C_8  and  N_9
REMARK                            x       y       z     vdW  Elec       q    Type
REMARK                         _______ _______ _______ _____ _____    ______ ____
ROOT
ATOM      1  N   UNL     1       3.555   5.408  18.952  0.00  0.00    +0.000 N 
ATOM      2  C   UNL     1       2.638   4.331  18.979  0.00  0.00    +0.000 A 
ATOM      3  C   UNL     1       1.379   4.449  19.605  0.00  0.00    +0.000 A 
ATOM      4  C   UNL     1       0.454   3.396  19.660  0.00  0.00    +0.000 A 
ATOM      5  C   UNL     1       0.756   2.168  19.087  0.00  0.00    +0.000 A 
ATOM      6  C   UNL     1       1.974   2.001  18.457  0.00  0.00    +0.000 A 
ATOM      7  C   UNL     1       2.902   3.060  18.387  0.00  0.00    +0.000 A 
ATOM      8  S   UNL     1       4.370   2.674  17.419  0.00  0.00    +0.000 S 
ATOM      9  C   UNL     1       4.840   4.383  17.084  0.00  0.00    +0.000 C 
ATOM     10  C   UNL     1       6.096   4.446  16.244  0.00  0.00    +0.000 C 
ATOM     11  C   UNL     1       6.714   5.645  16.165  0.00  0.00    +0.000 C 
ATOM     12  C   UNL     1       6.646   6.547  17.301  0.00  0.00    +0.000 C 
ATOM     13 CL   UNL     1       7.759   7.869  17.296  0.00  0.00    +0.000 Cl
ATOM     14  C   UNL     1       5.847   6.330  18.352  0.00  0.00    +0.000 C 
ATOM     15  C   UNL     1       4.926   5.120  18.448  0.00  0.00    +0.000 C 
ENDROOT
BRANCH   1  16
ATOM     16  C   UNL     1       3.140   6.778  19.310  0.00  0.00    +0.000 C 
BRANCH  16  17
ATOM     17  C   UNL     1       2.654   7.535  18.071  0.00  0.00    +0.000 C 
BRANCH  17  18
ATOM     18  C   UNL     1       1.472   8.471  18.365  0.00  0.00    +0.000 C 
BRANCH  18  23
ATOM     19  C   UNL     1      -2.053  11.644  19.307  0.00  0.00    +0.000 C 
ATOM     20  N   UNL     1      -0.671  11.284  19.605  0.00  0.00    +0.000 NA
ATOM     21  C   UNL     1       0.170  11.357  18.398  0.00  0.00    +0.000 C 
ATOM     22  C   UNL     1       1.626  10.915  18.675  0.00  0.00    +0.000 C 
ATOM     23  N   UNL     1       1.770   9.576  19.288  0.00  0.00    +0.000 NA
ATOM     24  C   UNL     1       0.887   9.533  20.480  0.00  0.00    +0.000 C 
ATOM     25  C   UNL     1      -0.582   9.945  20.212  0.00  0.00    +0.000 C 
ENDBRANCH  18  23
ENDBRANCH  17  18
ENDBRANCH  16  17
ENDBRANCH   1  16
TORSDOF 4
ENDMDL
MODEL 4
REMARK VINA RESULT:      -6.3      8.056     10.728
REMARK  Name = 
REMARK  5 active torsions:
REMARK  status: ('A' for Active; 'I' for Inactive)
REMARK    1  A    between atoms: C_1  and  N_2
REMARK    2  A    between atoms: N_5  and  C_6
REMARK    3  A    between atoms: C_6  and  C_7
REMARK    4  A    between atoms: C_7  and  C_8
REMARK    5  A    between atoms: C_8  and  N_9
REMARK                            x       y       z     vdW  Elec       q    Type
REMARK                         _______ _______ _______ _____ _____    ______ ____
ROOT
ATOM      1  N   UNL     1       8.961  14.794  18.271  0.00  0.00    +0.000 N 
ATOM      2  C   UNL     1       9.575  16.048  18.045  0.00  0.00    +0.000 A 
ATOM      3  C   UNL     1       8.895  17.259  18.297  0.00  0.00    +0.000 A 
ATOM      4  C   UNL     1       9.472  18.518  18.071  0.00  0.00    +0.000 A 
ATOM      5  C   UNL     1      10.766  18.617  17.576  0.00  0.00    +0.000 A 
ATOM      6  C   UNL     1      11.477  17.461  17.317  0.00  0.00    +0.000 A 
ATOM      7  C   UNL     1      10.907  16.194  17.555  0.00  0.00    +0.000 A 
ATOM      8  S   UNL     1      12.041  14.825  17.271  0.00  0.00    +0.000 S 
ATOM      9  C   UNL     1      11.156  13.622  18.283  0.00  0.00    +0.000 C 
ATOM     10  C   UNL     1      11.863  12.285  18.281  0.00  0.00    +0.000 C 
ATOM     11  C   UNL     1      11.166  11.228  18.753  0.00  0.00    +0.000 C 
ATOM     12  C   UNL     1       9.724  11.202  18.576  0.00  0.00    +0.000 C 
ATOM     13 CL   UNL     1       8.949   9.681  18.841  0.00  0.00    +0.000 Cl
ATOM     14  C   UNL     1       9.029  12.257  18.135  0.00  0.00    +0.000 C 
ATOM     15  C   UNL     1       9.685  13.587  17.786  0.00  0.00    +0.000 C 
ENDROOT
BRANCH   1  16
ATOM     16  C   UNL     1       7.710  14.681  19.044  0.00  0.00    +0.000 C 
BRANCH  16  17
ATOM     17  C   UNL     1       6.495  14.913  18.142  0.00  0.00    +0.000 C 
BRANCH  17  18
ATOM     18  C   UNL     1       5.173  14.987  18.921  0.00  0.00    +0.000 C 
BRANCH  18  23
ATOM     19  C   UNL     1       1.026  17.396  19.538  0.00  0.00    +0.000 C 
ATOM     20  N   UNL     1       1.659  16.287  18.832  0.00  0.00    +0.000 NA
ATOM     21  C   UNL     1       2.136  15.261  19.775  0.00  0.00    +0.000 C 
ATOM     22  C   UNL     1       2.871  14.105  19.055  0.00  0.00    +0.000 C 
ATOM     23  N   UNL     1       3.990  14.522  18.181  0.00  0.00    +0.000 NA
ATOM     24  C   UNL     1       3.478  15.574  17.269  0.00  0.00    +0.000 C 
ATOM     25  C   UNL     1       2.765  16.753  17.979  0.00  0.00    +0.000 C 
ENDBRANCH  18  23
ENDBRANCH  17  18
ENDBRANCH  16  17
ENDBRANCH   1  16
TORSDOF 4
ENDMDL
MODEL 5
REMARK VINA RESULT:      -6.2      2.981      7.254
REMARK  Name = 
REMARK  5 active torsions:
REMARK  status: ('A' for Active; 'I' for Inactive)
REMARK    1  A    between atoms: C_1  and  N_2
REMARK    2  A    between atoms: N_5  and  C_6
REMARK    3  A    between atoms: C_6  and  C_7
REMARK    4  A    between atoms: C_7  and  C_8
REMARK    5  A    between atoms: C_8  and  N_9
REMARK                            x       y       z     vdW  Elec       q    Type
REMARK                         _______ _______ _______ _____ _____    ______ ____
ROOT
ATOM      1  N   UNL     1       3.277   6.537  18.561  0.00  0.00    +0.000 N 
ATOM      2  C   UNL     1       2.524   7.726  18.705  0.00  0.00    +0.000 A 
ATOM      3  C   UNL     1       2.564   8.747  17.731  0.00  0.00    +0.000 A 
ATOM      4  C   UNL     1       1.839   9.943  17.850  0.00  0.00    +0.000 A 
ATOM      5  C   UNL     1       1.040  10.169  18.963  0.00  0.00    +0.000 A 
ATOM      6  C   UNL     1       0.962   9.199  19.944  0.00  0.00    +0.000 A 
ATOM      7  C   UNL     1       1.677   7.991  19.822  0.00  0.00    +0.000 A 
ATOM      8  S   UNL     1       1.342   6.815  21.144  0.00  0.00    +0.000 S 
ATOM      9  C   UNL     1       1.882   5.348  20.245  0.00  0.00    +0.000 C 
ATOM     10  C   UNL     1       1.729   4.105  21.091  0.00  0.00    +0.000 C 
ATOM     11  C   UNL     1       2.358   2.991  20.655  0.00  0.00    +0.000 C 
ATOM     12  C   UNL     1       3.605   3.129  19.923  0.00  0.00    +0.000 C 
ATOM     13 CL   UNL     1       4.547   1.693  19.738  0.00  0.00    +0.000 Cl
ATOM     14  C   UNL     1       4.068   4.310  19.497  0.00  0.00    +0.000 C 
ATOM     15  C   UNL     1       3.323   5.618  19.732  0.00  0.00    +0.000 C 
ENDROOT
BRANCH   1  16
ATOM     16  C   UNL     1       3.901   6.176  17.275  0.00  0.00    +0.000 C 
BRANCH  16  17
ATOM     17  C   UNL     1       5.368   6.612  17.245  0.00  0.00    +0.000 C 
BRANCH  17  18
ATOM     18  C   UNL     1       6.021   6.432  15.866  0.00  0.00    +0.000 C 
BRANCH  18  23
ATOM     19  C   UNL     1       5.651   3.254  12.241  0.00  0.00    +0.000 C 
ATOM     20  N   UNL     1       6.441   3.636  13.407  0.00  0.00    +0.000 NA
ATOM     21  C   UNL     1       5.646   3.536  14.643  0.00  0.00    +0.000 C 
ATOM     22  C   UNL     1       6.441   4.000  15.886  0.00  0.00    +0.000 C 
ATOM     23  N   UNL     1       7.022   5.357  15.789  0.00  0.00    +0.000 NA
ATOM     24  C   UNL     1       7.787   5.427  14.520  0.00  0.00    +0.000 C 
ATOM     25  C   UNL     1       6.994   4.993  13.262  0.00  0.00    +0.000 C 
ENDBRANCH  18  23
ENDBRANCH  17  18
ENDBRANCH  16  17
ENDBRANCH   1  16
TORSDOF 4
ENDMDL
MODEL 6
REMARK VINA RESULT:      -6.1      4.381      7.567
REMARK  Name = 
REMARK  5 active torsions:
REMARK  status: ('A' for Active; 'I' for Inactive)
REMARK    1  A    between atoms: C_1  and  N_2
REMARK    2  A    between atoms: N_5  and  C_6
REMARK    3  A    between atoms: C_6  and  C_7
REMARK    4  A    between atoms: C_7  and  C_8
REMARK    5  A    between atoms: C_8  and  N_9
REMARK                            x       y       z     vdW  Elec       q    Type
REMARK                         _______ _______ _______ _____ _____    ______ ____
ROOT
ATOM      1  N   UNL     1       0.417  10.567  19.289  0.00  0.00    +0.000 N 
ATOM      2  C   UNL     1       1.248   9.438  19.098  0.00  0.00    +0.000 A 
ATOM      3  C   UNL     1       2.090   9.325  17.971  0.00  0.00    +0.000 A 
ATOM      4  C   UNL     1       2.916   8.214  17.745  0.00  0.00    +0.000 A 
ATOM      5  C   UNL     1       2.930   7.157  18.647  0.00  0.00    +0.000 A 
ATOM      6  C   UNL     1       2.126   7.220  19.770  0.00  0.00    +0.000 A 
ATOM      7  C   UNL     1       1.305   8.341  20.007  0.00  0.00    +0.000 A 
ATOM      8  S   UNL     1       0.436   8.280  21.582  0.00  0.00    +0.000 S 
ATOM      9  C   UNL     1       0.128  10.053  21.707  0.00  0.00    +0.000 C 
ATOM     10  C   UNL     1      -0.620  10.387  22.978  0.00  0.00    +0.000 C 
ATOM     11  C   UNL     1      -1.163  11.622  23.057  0.00  0.00    +0.000 C 
ATOM     12  C   UNL     1      -1.631  12.262  21.841  0.00  0.00    +0.000 C 
ATOM     13 CL   UNL     1      -2.653  13.641  22.047  0.00  0.00    +0.000 Cl
ATOM     14  C   UNL     1      -1.383  11.771  20.621  0.00  0.00    +0.000 C 
ATOM     15  C   UNL     1      -0.577  10.498  20.397  0.00  0.00    +0.000 C 
ENDROOT
BRANCH   1  16
ATOM     16  C   UNL     1       0.598  11.796  18.495  0.00  0.00    +0.000 C 
BRANCH  16  17
ATOM     17  C   UNL     1       1.568  12.753  19.192  0.00  0.00    +0.000 C 
BRANCH  17  18
ATOM     18  C   UNL     1       2.585  13.384  18.230  0.00  0.00    +0.000 C 
BRANCH  18  23
ATOM     19  C   UNL     1       6.834  15.013  19.867  0.00  0.00    +0.000 C 
ATOM     20  N   UNL     1       5.514  15.414  19.392  0.00  0.00    +0.000 NA
ATOM     21  C   UNL     1       4.453  14.911  20.281  0.00  0.00    +0.000 C 
ATOM     22  C   UNL     1       3.040  15.266  19.763  0.00  0.00    +0.000 C 
ATOM     23  N   UNL     1       2.755  14.838  18.375  0.00  0.00    +0.000 NA
ATOM     24  C   UNL     1       3.858  15.338  17.518  0.00  0.00    +0.000 C 
ATOM     25  C   UNL     1       5.279  14.965  18.009  0.00  0.00    +0.000 C 
ENDBRANCH  18  23
ENDBRANCH  17  18
ENDBRANCH  16  17
ENDBRANCH   1  16
TORSDOF 4
ENDMDL
MODEL 7
REMARK VINA RESULT:      -6.0      4.383      7.479
REMARK  Name = 
REMARK  5 active torsions:
REMARK  status: ('A' for Active; 'I' for Inactive)
REMARK    1  A    between atoms: C_1  and  N_2
REMARK    2  A    between atoms: N_5  and  C_6
REMARK    3  A    between atoms: C_6  and  C_7
REMARK    4  A    between atoms: C_7  and  C_8
REMARK    5  A    between atoms: C_8  and  N_9
REMARK                            x       y       z     vdW  Elec       q    Type
REMARK                         _______ _______ _______ _____ _____    ______ ____
ROOT
ATOM      1  N   UNL     1       0.460  10.623  19.258  0.00  0.00    +0.000 N 
ATOM      2  C   UNL     1       1.228   9.444  19.115  0.00  0.00    +0.000 A 
ATOM      3  C   UNL     1       2.090   9.254  18.014  0.00  0.00    +0.000 A 
ATOM      4  C   UNL     1       2.856   8.092  17.837  0.00  0.00    +0.000 A 
ATOM      5  C   UNL     1       2.786   7.059  18.763  0.00  0.00    +0.000 A 
ATOM      6  C   UNL     1       1.960   7.197  19.863  0.00  0.00    +0.000 A 
ATOM      7  C   UNL     1       1.200   8.368  20.052  0.00  0.00    +0.000 A 
ATOM      8  S   UNL     1       0.289   8.397  21.605  0.00  0.00    +0.000 S 
ATOM      9  C   UNL     1       0.082  10.187  21.679  0.00  0.00    +0.000 C 
ATOM     10  C   UNL     1      -0.676  10.595  22.922  0.00  0.00    +0.000 C 
ATOM     11  C   UNL     1      -1.150  11.861  22.957  0.00  0.00    +0.000 C 
ATOM     12  C   UNL     1      -1.549  12.496  21.714  0.00  0.00    +0.000 C 
ATOM     13 CL   UNL     1      -2.494  13.936  21.860  0.00  0.00    +0.000 Cl
ATOM     14  C   UNL     1      -1.300  11.961  20.513  0.00  0.00    +0.000 C 
ATOM     15  C   UNL     1      -0.563  10.638  20.340  0.00  0.00    +0.000 C 
ENDROOT
BRANCH   1  16
ATOM     16  C   UNL     1       0.731  11.819  18.439  0.00  0.00    +0.000 C 
BRANCH  16  17
ATOM     17  C   UNL     1       1.940  12.584  18.984  0.00  0.00    +0.000 C 
BRANCH  17  18
ATOM     18  C   UNL     1       2.036  14.019  18.446  0.00  0.00    +0.000 C 
BRANCH  18  23
ATOM     19  C   UNL     1      -0.776  17.877  17.679  0.00  0.00    +0.000 C 
ATOM     20  N   UNL     1       0.147  17.251  18.620  0.00  0.00    +0.000 NA
ATOM     21  C   UNL     1       1.490  17.110  18.032  0.00  0.00    +0.000 C 
ATOM     22  C   UNL     1       2.472  16.389  18.985  0.00  0.00    +0.000 C 
ATOM     23  N   UNL     1       2.014  15.070  19.476  0.00  0.00    +0.000 NA
ATOM     24  C   UNL     1       0.650  15.248  20.031  0.00  0.00    +0.000 C 
ATOM     25  C   UNL     1      -0.352  15.943  19.076  0.00  0.00    +0.000 C 
ENDBRANCH  18  23
ENDBRANCH  17  18
ENDBRANCH  16  17
ENDBRANCH   1  16
TORSDOF 4
ENDMDL
MODEL 8
REMARK VINA RESULT:      -5.9      2.966      6.683
REMARK  Name = 
REMARK  5 active torsions:
REMARK  status: ('A' for Active; 'I' for Inactive)
REMARK    1  A    between atoms: C_1  and  N_2
REMARK    2  A    between atoms: N_5  and  C_6
REMARK    3  A    between atoms: C_6  and  C_7
REMARK    4  A    between atoms: C_7  and  C_8
REMARK    5  A    between atoms: C_8  and  N_9
REMARK                            x       y       z     vdW  Elec       q    Type
REMARK                         _______ _______ _______ _____ _____    ______ ____
ROOT
ATOM      1  N   UNL     1       3.131   6.354  18.555  0.00  0.00    +0.000 N 
ATOM      2  C   UNL     1       2.407   7.557  18.727  0.00  0.00    +0.000 A 
ATOM      3  C   UNL     1       2.331   8.525  17.703  0.00  0.00    +0.000 A 
ATOM      4  C   UNL     1       1.633   9.733  17.847  0.00  0.00    +0.000 A 
ATOM      5  C   UNL     1       0.977  10.026  19.036  0.00  0.00    +0.000 A 
ATOM      6  C   UNL     1       1.016   9.109  20.069  0.00  0.00    +0.000 A 
ATOM      7  C   UNL     1       1.705   7.888  19.924  0.00  0.00    +0.000 A 
ATOM      8  S   UNL     1       1.530   6.787  21.337  0.00  0.00    +0.000 S 
ATOM      9  C   UNL     1       1.949   5.269  20.458  0.00  0.00    +0.000 C 
ATOM     10  C   UNL     1       1.896   4.073  21.381  0.00  0.00    +0.000 C 
ATOM     11  C   UNL     1       2.462   2.931  20.931  0.00  0.00    +0.000 C 
ATOM     12  C   UNL     1       3.610   3.018  20.045  0.00  0.00    +0.000 C 
ATOM     13 CL   UNL     1       4.515   1.563  19.822  0.00  0.00    +0.000 Cl
ATOM     14  C   UNL     1       4.022   4.170  19.503  0.00  0.00    +0.000 C 
ATOM     15  C   UNL     1       3.317   5.497  19.758  0.00  0.00    +0.000 C 
ENDROOT
BRANCH   1  16
ATOM     16  C   UNL     1       3.590   5.919  17.223  0.00  0.00    +0.000 C 
BRANCH  16  17
ATOM     17  C   UNL     1       4.863   6.669  16.819  0.00  0.00    +0.000 C 
BRANCH  17  18
ATOM     18  C   UNL     1       5.579   6.033  15.617  0.00  0.00    +0.000 C 
BRANCH  18  23
ATOM     19  C   UNL     1       7.546   5.420  19.992  0.00  0.00    +0.000 C 
ATOM     20  N   UNL     1       7.840   5.592  18.573  0.00  0.00    +0.000 NA
ATOM     21  C   UNL     1       7.364   6.898  18.086  0.00  0.00    +0.000 C 
ATOM     22  C   UNL     1       7.604   7.077  16.569  0.00  0.00    +0.000 C 
ATOM     23  N   UNL     1       7.046   6.005  15.714  0.00  0.00    +0.000 NA
ATOM     24  C   UNL     1       7.524   4.708  16.254  0.00  0.00    +0.000 C 
ATOM     25  C   UNL     1       7.264   4.503  17.767  0.00  0.00    +0.000 C 
ENDBRANCH  18  23
ENDBRANCH  17  18
ENDBRANCH  16  17
ENDBRANCH   1  16
TORSDOF 4
ENDMDL
MODEL 9
REMARK VINA RESULT:      -5.9      4.518      7.415
REMARK  Name = 
REMARK  5 active torsions:
REMARK  status: ('A' for Active; 'I' for Inactive)
REMARK    1  A    between atoms: C_1  and  N_2
REMARK    2  A    between atoms: N_5  and  C_6
REMARK    3  A    between atoms: C_6  and  C_7
REMARK    4  A    between atoms: C_7  and  C_8
REMARK    5  A    between atoms: C_8  and  N_9
REMARK                            x       y       z     vdW  Elec       q    Type
REMARK                         _______ _______ _______ _____ _____    ______ ____
ROOT
ATOM      1  N   UNL     1      -0.564  11.164  19.878  0.00  0.00    +0.000 N 
ATOM      2  C   UNL     1      -1.377  11.599  20.951  0.00  0.00    +0.000 A 
ATOM      3  C   UNL     1      -2.423  12.525  20.755  0.00  0.00    +0.000 A 
ATOM      4  C   UNL     1      -3.239  12.986  21.800  0.00  0.00    +0.000 A 
ATOM      5  C   UNL     1      -3.036  12.535  23.097  0.00  0.00    +0.000 A 
ATOM      6  C   UNL     1      -2.028  11.623  23.342  0.00  0.00    +0.000 A 
ATOM      7  C   UNL     1      -1.215  11.147  22.294  0.00  0.00    +0.000 A 
ATOM      8  S   UNL     1      -0.046   9.876  22.804  0.00  0.00    +0.000 S 
ATOM      9  C   UNL     1       0.220   9.181  21.161  0.00  0.00    +0.000 C 
ATOM     10  C   UNL     1       1.194   8.026  21.210  0.00  0.00    +0.000 C 
ATOM     11  C   UNL     1       1.700   7.607  20.030  0.00  0.00    +0.000 C 
ATOM     12  C   UNL     1       1.893   8.575  18.964  0.00  0.00    +0.000 C 
ATOM     13 CL   UNL     1       2.887   8.071  17.644  0.00  0.00    +0.000 Cl
ATOM     14  C   UNL     1       1.423   9.826  19.028  0.00  0.00    +0.000 C 
ATOM     15  C   UNL     1       0.633  10.347  20.222  0.00  0.00    +0.000 C 
ENDROOT
BRANCH   1  16
ATOM     16  C   UNL     1      -0.942  11.422  18.476  0.00  0.00    +0.000 C 
BRANCH  16  17
ATOM     17  C   UNL     1      -0.741  12.898  18.124  0.00  0.00    +0.000 C 
BRANCH  17  18
ATOM     18  C   UNL     1       0.666  13.411  18.467  0.00  0.00    +0.000 C 
BRANCH  18  23
ATOM     19  C   UNL     1       4.999  15.079  19.817  0.00  0.00    +0.000 C 
ATOM     20  N   UNL     1       3.561  15.220  20.015  0.00  0.00    +0.000 NA
ATOM     21  C   UNL     1       2.975  13.981  20.557  0.00  0.00    +0.000 C 
ATOM     22  C   UNL     1       1.440  14.082  20.713  0.00  0.00    +0.000 C 
ATOM     23  N   UNL     1       0.708  14.470  19.487  0.00  0.00    +0.000 NA
ATOM     24  C   UNL     1       1.345  15.701  18.957  0.00  0.00    +0.000 C 
ATOM     25  C   UNL     1       2.880  15.605  18.768  0.00  0.00    +0.000 C 
ENDBRANCH  18  23
ENDBRANCH  17  18
ENDBRANCH  16  17
ENDBRANCH   1  16
TORSDOF 4
ENDMDL
