MODEL 1
REMARK VINA RESULT:      -8.0      0.000      0.000
REMARK  Name = 
REMARK  7 active torsions:
REMARK  status: ('A' for Active; 'I' for Inactive)
REMARK    1  A    between atoms: C_1  and  C_2
REMARK    2  A    between atoms: C_4  and  O_5
REMARK    3  A    between atoms: C_6  and  C_7
REMARK    4  A    between atoms: N_9  and  C_10
REMARK    5  A    between atoms: C_13  and  S_14
REMARK    6  A    between atoms: S_14  and  N_15
REMARK    7  A    between atoms: C_20  and  C_21
REMARK                            x       y       z     vdW  Elec       q    Type
REMARK                         _______ _______ _______ _____ _____    ______ ____
ROOT
ATOM      1  C   UNL     1       1.445   9.273  19.085  0.00  0.00    +0.000 C 
ATOM      2  N   UNL     1       0.753   9.534  20.154  0.00  0.00    +0.000 NA
ATOM      3  N   UNL     1       0.095  10.704  19.924  0.00  0.00    +0.000 N 
ATOM      4  C   UNL     1       0.359  11.290  18.612  0.00  0.00    +0.000 C 
ATOM      5  C   UNL     1       1.333  10.296  17.984  0.00  0.00    +0.000 C 
ENDROOT
BRANCH   1  10
ATOM      6  C   UNL     1       4.491   4.389  18.297  0.00  0.00    +0.000 C 
ATOM      7  C   UNL     1       3.760   5.685  18.517  0.00  0.00    +0.000 A 
ATOM      8  C   UNL     1       2.970   5.836  19.667  0.00  0.00    +0.000 A 
ATOM      9  C   UNL     1       2.229   7.002  19.876  0.00  0.00    +0.000 A 
ATOM     10  C   UNL     1       2.255   8.039  18.939  0.00  0.00    +0.000 A 
ATOM     11  C   UNL     1       3.061   7.906  17.798  0.00  0.00    +0.000 A 
ATOM     12  C   UNL     1       3.809   6.741  17.593  0.00  0.00    +0.000 A 
ATOM     13 CL   UNL     1       4.784   6.640  16.171  0.00  0.00    +0.000 Cl
BRANCH   9  14
ATOM     14  O   UNL     1       1.455   7.091  20.998  0.00  0.00    +0.000 OA
ATOM     15  H   UNL     1       1.668   6.359  21.601  0.00  0.00    +0.000 HD
ENDBRANCH   9  14
ENDBRANCH   1  10
BRANCH   4  16
ATOM     16  C   UNL     1       0.947  12.689  18.755  0.00  0.00    +0.000 A 
ATOM     17  C   UNL     1       2.278  12.881  19.173  0.00  0.00    +0.000 A 
ATOM     18  C   UNL     1       2.785  14.166  19.381  0.00  0.00    +0.000 A 
ATOM     19  C   UNL     1       1.964  15.270  19.177  0.00  0.00    +0.000 A 
ATOM     20 CL   UNL     1       2.572  16.853  19.476  0.00  0.00    +0.000 Cl
ATOM     21  C   UNL     1       0.648  15.103  18.751  0.00  0.00    +0.000 A 
ATOM     22  C   UNL     1       0.142  13.818  18.536  0.00  0.00    +0.000 A 
ENDBRANCH   4  16
BRANCH   3  23
ATOM     23  C   UNL     1      -0.788  11.226  20.862  0.00  0.00    +0.000 A 
ATOM     24  C   UNL     1      -1.912  11.959  20.447  0.00  0.00    +0.000 A 
ATOM     25  C   UNL     1      -2.823  12.480  21.370  0.00  0.00    +0.000 A 
ATOM     26  C   UNL     1      -2.600  12.285  22.732  0.00  0.00    +0.000 A 
ATOM     27  C   UNL     1      -1.488  11.573  23.176  0.00  0.00    +0.000 A 
ATOM     28  C   UNL     1      -0.600  11.038  22.240  0.00  0.00    +0.000 A 
BRANCH  26  29
ATOM     29  S   UNL     1      -3.736  12.943  23.907  0.00  0.00    +0.000 S 
ATOM     30  O   UNL     1      -4.446  11.858  24.547  0.00  0.00    +0.000 OA
ATOM     31  O   UNL     1      -3.099  14.001  24.655  0.00  0.00    +0.000 OA
BRANCH  29  32
ATOM     32  N   UNL     1      -4.840  13.687  22.889  0.00  0.00    +0.000 NA
ATOM     33  H   UNL     1      -4.453  13.776  21.950  0.00  0.00    +0.000 HD
ATOM     34  H   UNL     1      -5.744  13.220  22.942  0.00  0.00    +0.000 HD
ENDBRANCH  29  32
ENDBRANCH  26  29
ENDBRANCH   3  23
TORSDOF 6
ENDMDL
MODEL 2
REMARK VINA RESULT:      -8.0      0.234      1.243
REMARK  Name = 
REMARK  7 active torsions:
REMARK  status: ('A' for Active; 'I' for Inactive)
REMARK    1  A    between atoms: C_1  and  C_2
REMARK    2  A    between atoms: C_4  and  O_5
REMARK    3  A    between atoms: C_6  and  C_7
REMARK    4  A    between atoms: N_9  and  C_10
REMARK    5  A    between atoms: C_13  and  S_14
REMARK    6  A    between atoms: S_14  and  N_15
REMARK    7  A    between atoms: C_20  and  C_21
REMARK                            x       y       z     vdW  Elec       q    Type
REMARK                         _______ _______ _______ _____ _____    ______ ____
ROOT
ATOM      1  C   UNL     1       1.479   9.176  19.078  0.00  0.00    +0.000 C 
ATOM      2  N   UNL     1       0.770   9.458  20.131  0.00  0.00    +0.000 NA
ATOM      3  N   UNL     1       0.129  10.631  19.874  0.00  0.00    +0.000 N 
ATOM      4  C   UNL     1       0.425  11.198  18.560  0.00  0.00    +0.000 C 
ATOM      5  C   UNL     1       1.400  10.187  17.963  0.00  0.00    +0.000 C 
ENDROOT
BRANCH   1  10
ATOM      6  C   UNL     1       4.487   4.251  18.410  0.00  0.00    +0.000 C 
ATOM      7  C   UNL     1       3.766   5.557  18.599  0.00  0.00    +0.000 A 
ATOM      8  C   UNL     1       2.963   5.735  19.736  0.00  0.00    +0.000 A 
ATOM      9  C   UNL     1       2.231   6.911  19.917  0.00  0.00    +0.000 A 
ATOM     10  C   UNL     1       2.279   7.932  18.963  0.00  0.00    +0.000 A 
ATOM     11  C   UNL     1       3.098   7.772  17.835  0.00  0.00    +0.000 A 
ATOM     12  C   UNL     1       3.837   6.597  17.658  0.00  0.00    +0.000 A 
ATOM     13 CL   UNL     1       4.829   6.463  16.251  0.00  0.00    +0.000 Cl
BRANCH   9  14
ATOM     14  O   UNL     1       1.444   7.026  21.027  0.00  0.00    +0.000 OA
ATOM     15  H   UNL     1       0.704   6.398  20.970  0.00  0.00    +0.000 HD
ENDBRANCH   9  14
ENDBRANCH   1  10
BRANCH   4  16
ATOM     16  C   UNL     1       1.025  12.593  18.698  0.00  0.00    +0.000 A 
ATOM     17  C   UNL     1       0.213  13.743  18.652  0.00  0.00    +0.000 A 
ATOM     18  C   UNL     1       0.777  15.020  18.696  0.00  0.00    +0.000 A 
ATOM     19  C   UNL     1       2.159  15.159  18.781  0.00  0.00    +0.000 A 
ATOM     20 CL   UNL     1       2.859  16.731  18.790  0.00  0.00    +0.000 Cl
ATOM     21  C   UNL     1       2.979  14.035  18.841  0.00  0.00    +0.000 A 
ATOM     22  C   UNL     1       2.414  12.756  18.804  0.00  0.00    +0.000 A 
ENDBRANCH   4  16
BRANCH   3  23
ATOM     23  C   UNL     1      -0.767  11.174  20.788  0.00  0.00    +0.000 A 
ATOM     24  C   UNL     1      -0.550  11.027  22.168  0.00  0.00    +0.000 A 
ATOM     25  C   UNL     1      -1.427  11.576  23.105  0.00  0.00    +0.000 A 
ATOM     26  C   UNL     1      -2.552  12.269  22.662  0.00  0.00    +0.000 A 
ATOM     27  C   UNL     1      -2.802  12.422  21.301  0.00  0.00    +0.000 A 
ATOM     28  C   UNL     1      -1.903  11.888  20.375  0.00  0.00    +0.000 A 
BRANCH  26  29
ATOM     29  S   UNL     1      -3.671  12.962  23.834  0.00  0.00    +0.000 S 
ATOM     30  O   UNL     1      -4.396  11.897  24.491  0.00  0.00    +0.000 OA
ATOM     31  O   UNL     1      -3.013  14.018  24.565  0.00  0.00    +0.000 OA
BRANCH  29  32
ATOM     32  N   UNL     1      -4.767  13.711  22.811  0.00  0.00    +0.000 NA
ATOM     33  H   UNL     1      -5.330  13.016  22.323  0.00  0.00    +0.000 HD
ATOM     34  H   UNL     1      -5.296  14.421  23.315  0.00  0.00    +0.000 HD
ENDBRANCH  29  32
ENDBRANCH  26  29
ENDBRANCH   3  23
TORSDOF 6
ENDMDL
MODEL 3
REMARK VINA RESULT:      -7.9      0.682      1.178
REMARK  Name = 
REMARK  7 active torsions:
REMARK  status: ('A' for Active; 'I' for Inactive)
REMARK    1  A    between atoms: C_1  and  C_2
REMARK    2  A    between atoms: C_4  and  O_5
REMARK    3  A    between atoms: C_6  and  C_7
REMARK    4  A    between atoms: N_9  and  C_10
REMARK    5  A    between atoms: C_13  and  S_14
REMARK    6  A    between atoms: S_14  and  N_15
REMARK    7  A    between atoms: C_20  and  C_21
REMARK                            x       y       z     vdW  Elec       q    Type
REMARK                         _______ _______ _______ _____ _____    ______ ____
ROOT
ATOM      1  C   UNL     1       1.485   9.212  19.068  0.00  0.00    +0.000 C 
ATOM      2  N   UNL     1       0.749   9.490  20.102  0.00  0.00    +0.000 NA
ATOM      3  N   UNL     1       0.121  10.669  19.835  0.00  0.00    +0.000 N 
ATOM      4  C   UNL     1       0.456  11.243  18.534  0.00  0.00    +0.000 C 
ATOM      5  C   UNL     1       1.442  10.230  17.958  0.00  0.00    +0.000 C 
ENDROOT
BRANCH   1  10
ATOM      6  C   UNL     1       4.476   4.269  18.457  0.00  0.00    +0.000 C 
ATOM      7  C   UNL     1       3.760   5.580  18.630  0.00  0.00    +0.000 A 
ATOM      8  C   UNL     1       2.971   5.781  19.773  0.00  0.00    +0.000 A 
ATOM      9  C   UNL     1       2.243   6.962  19.940  0.00  0.00    +0.000 A 
ATOM     10  C   UNL     1       2.282   7.965  18.967  0.00  0.00    +0.000 A 
ATOM     11  C   UNL     1       3.087   7.782  17.832  0.00  0.00    +0.000 A 
ATOM     12  C   UNL     1       3.822   6.602  17.669  0.00  0.00    +0.000 A 
ATOM     13 CL   UNL     1       4.797   6.439  16.253  0.00  0.00    +0.000 Cl
BRANCH   9  14
ATOM     14  O   UNL     1       1.469   7.099  21.057  0.00  0.00    +0.000 OA
ATOM     15  H   UNL     1       1.974   6.826  21.841  0.00  0.00    +0.000 HD
ENDBRANCH   9  14
ENDBRANCH   1  10
BRANCH   4  16
ATOM     16  C   UNL     1       1.058  12.634  18.698  0.00  0.00    +0.000 A 
ATOM     17  C   UNL     1       0.248  13.785  18.686  0.00  0.00    +0.000 A 
ATOM     18  C   UNL     1       0.813  15.060  18.754  0.00  0.00    +0.000 A 
ATOM     19  C   UNL     1       2.196  15.195  18.829  0.00  0.00    +0.000 A 
ATOM     20 CL   UNL     1       2.899  16.766  18.866  0.00  0.00    +0.000 Cl
ATOM     21  C   UNL     1       3.016  14.069  18.855  0.00  0.00    +0.000 A 
ATOM     22  C   UNL     1       2.449  12.793  18.794  0.00  0.00    +0.000 A 
ENDBRANCH   4  16
BRANCH   3  23
ATOM     23  C   UNL     1      -0.797  11.210  20.728  0.00  0.00    +0.000 A 
ATOM     24  C   UNL     1      -1.919  11.911  20.255  0.00  0.00    +0.000 A 
ATOM     25  C   UNL     1      -2.863  12.451  21.131  0.00  0.00    +0.000 A 
ATOM     26  C   UNL     1      -2.678  12.307  22.505  0.00  0.00    +0.000 A 
ATOM     27  C   UNL     1      -1.570  11.629  23.007  0.00  0.00    +0.000 A 
ATOM     28  C   UNL     1      -0.647  11.074  22.117  0.00  0.00    +0.000 A 
BRANCH  26  29
ATOM     29  S   UNL     1      -3.857  12.989  23.623  0.00  0.00    +0.000 S 
ATOM     30  O   UNL     1      -4.820  13.776  22.883  0.00  0.00    +0.000 OA
ATOM     31  O   UNL     1      -4.250  11.986  24.582  0.00  0.00    +0.000 OA
BRANCH  29  32
ATOM     32  N   UNL     1      -2.899  14.084  24.455  0.00  0.00    +0.000 NA
ATOM     33  H   UNL     1      -3.190  15.039  24.248  0.00  0.00    +0.000 HD
ATOM     34  H   UNL     1      -2.865  13.846  25.445  0.00  0.00    +0.000 HD
ENDBRANCH  29  32
ENDBRANCH  26  29
ENDBRANCH   3  23
TORSDOF 6
ENDMDL
MODEL 4
REMARK VINA RESULT:      -7.8      0.670      1.185
REMARK  Name = 
REMARK  7 active torsions:
REMARK  status: ('A' for Active; 'I' for Inactive)
REMARK    1  A    between atoms: C_1  and  C_2
REMARK    2  A    between atoms: C_4  and  O_5
REMARK    3  A    between atoms: C_6  and  C_7
REMARK    4  A    between atoms: N_9  and  C_10
REMARK    5  A    between atoms: C_13  and  S_14
REMARK    6  A    between atoms: S_14  and  N_15
REMARK    7  A    between atoms: C_20  and  C_21
REMARK                            x       y       z     vdW  Elec       q    Type
REMARK                         _______ _______ _______ _____ _____    ______ ____
ROOT
ATOM      1  C   UNL     1       1.432   9.374  19.123  0.00  0.00    +0.000 C 
ATOM      2  N   UNL     1       0.656   9.615  20.138  0.00  0.00    +0.000 NA
ATOM      3  N   UNL     1       0.050  10.811  19.898  0.00  0.00    +0.000 N 
ATOM      4  C   UNL     1       0.444  11.438  18.639  0.00  0.00    +0.000 C 
ATOM      5  C   UNL     1       1.444  10.441  18.059  0.00  0.00    +0.000 C 
ENDROOT
BRANCH   1  10
ATOM      6  C   UNL     1       4.392   4.425  18.423  0.00  0.00    +0.000 C 
ATOM      7  C   UNL     1       3.684   5.737  18.619  0.00  0.00    +0.000 A 
ATOM      8  C   UNL     1       2.898   5.923  19.767  0.00  0.00    +0.000 A 
ATOM      9  C   UNL     1       2.178   7.105  19.955  0.00  0.00    +0.000 A 
ATOM     10  C   UNL     1       2.221   8.124  19.000  0.00  0.00    +0.000 A 
ATOM     11  C   UNL     1       3.023   7.956  17.861  0.00  0.00    +0.000 A 
ATOM     12  C   UNL     1       3.750   6.775  17.676  0.00  0.00    +0.000 A 
ATOM     13 CL   UNL     1       4.722   6.630  16.256  0.00  0.00    +0.000 Cl
BRANCH   9  14
ATOM     14  O   UNL     1       1.406   7.228  21.076  0.00  0.00    +0.000 OA
ATOM     15  H   UNL     1       1.873   7.766  21.737  0.00  0.00    +0.000 HD
ENDBRANCH   9  14
ENDBRANCH   1  10
BRANCH   4  16
ATOM     16  C   UNL     1       1.052  12.814  18.888  0.00  0.00    +0.000 A 
ATOM     17  C   UNL     1       2.330  12.952  19.464  0.00  0.00    +0.000 A 
ATOM     18  C   UNL     1       2.846  14.214  19.765  0.00  0.00    +0.000 A 
ATOM     19  C   UNL     1       2.088  15.349  19.498  0.00  0.00    +0.000 A 
ATOM     20 CL   UNL     1       2.703  16.903  19.910  0.00  0.00    +0.000 Cl
ATOM     21  C   UNL     1       0.828  15.236  18.916  0.00  0.00    +0.000 A 
ATOM     22  C   UNL     1       0.313  13.973  18.608  0.00  0.00    +0.000 A 
ENDBRANCH   4  16
BRANCH   3  23
ATOM     23  C   UNL     1      -0.899  11.323  20.775  0.00  0.00    +0.000 A 
ATOM     24  C   UNL     1      -0.755  11.144  22.161  0.00  0.00    +0.000 A 
ATOM     25  C   UNL     1      -1.687  11.661  23.063  0.00  0.00    +0.000 A 
ATOM     26  C   UNL     1      -2.794  12.354  22.576  0.00  0.00    +0.000 A 
ATOM     27  C   UNL     1      -2.973  12.538  21.207  0.00  0.00    +0.000 A 
ATOM     28  C   UNL     1      -2.020  12.035  20.319  0.00  0.00    +0.000 A 
BRANCH  26  29
ATOM     29  S   UNL     1      -3.982  13.007  23.702  0.00  0.00    +0.000 S 
ATOM     30  O   UNL     1      -4.916  13.844  22.982  0.00  0.00    +0.000 OA
ATOM     31  O   UNL     1      -4.411  11.969  24.608  0.00  0.00    +0.000 OA
BRANCH  29  32
ATOM     32  N   UNL     1      -3.020  14.045  24.600  0.00  0.00    +0.000 NA
ATOM     33  H   UNL     1      -3.340  15.006  24.494  0.00  0.00    +0.000 HD
ATOM     34  H   UNL     1      -2.945  13.717  25.562  0.00  0.00    +0.000 HD
ENDBRANCH  29  32
ENDBRANCH  26  29
ENDBRANCH   3  23
TORSDOF 6
ENDMDL
MODEL 5
REMARK VINA RESULT:      -7.7      3.938      7.901
REMARK  Name = 
REMARK  7 active torsions:
REMARK  status: ('A' for Active; 'I' for Inactive)
REMARK    1  A    between atoms: C_1  and  C_2
REMARK    2  A    between atoms: C_4  and  O_5
REMARK    3  A    between atoms: C_6  and  C_7
REMARK    4  A    between atoms: N_9  and  C_10
REMARK    5  A    between atoms: C_13  and  S_14
REMARK    6  A    between atoms: S_14  and  N_15
REMARK    7  A    between atoms: C_20  and  C_21
REMARK                            x       y       z     vdW  Elec       q    Type
REMARK                         _______ _______ _______ _____ _____    ______ ____
ROOT
ATOM      1  C   UNL     1      -1.957  11.656  19.312  0.00  0.00    +0.000 C 
ATOM      2  N   UNL     1      -1.330  10.617  18.846  0.00  0.00    +0.000 NA
ATOM      3  N   UNL     1      -0.095  10.611  19.419  0.00  0.00    +0.000 N 
ATOM      4  C   UNL     1       0.146  11.726  20.332  0.00  0.00    +0.000 C 
ATOM      5  C   UNL     1      -1.166  12.505  20.273  0.00  0.00    +0.000 C 
ENDROOT
BRANCH   1  10
ATOM      6  C   UNL     1      -7.541  12.721  18.112  0.00  0.00    +0.000 C 
ATOM      7  C   UNL     1      -6.083  12.511  18.415  0.00  0.00    +0.000 A 
ATOM      8  C   UNL     1      -5.269  11.890  17.454  0.00  0.00    +0.000 A 
ATOM      9  C   UNL     1      -3.924  11.624  17.722  0.00  0.00    +0.000 A 
ATOM     10  C   UNL     1      -3.364  11.966  18.956  0.00  0.00    +0.000 A 
ATOM     11  C   UNL     1      -4.164  12.609  19.913  0.00  0.00    +0.000 A 
ATOM     12  C   UNL     1      -5.509  12.882  19.642  0.00  0.00    +0.000 A 
ATOM     13 CL   UNL     1      -6.440  13.678  20.859  0.00  0.00    +0.000 Cl
BRANCH   9  14
ATOM     14  O   UNL     1      -3.180  10.995  16.765  0.00  0.00    +0.000 OA
ATOM     15  H   UNL     1      -3.118  10.047  16.970  0.00  0.00    +0.000 HD
ENDBRANCH   9  14
ENDBRANCH   1  10
BRANCH   4  16
ATOM     16  C   UNL     1       1.347  12.547  19.875  0.00  0.00    +0.000 A 
ATOM     17  C   UNL     1       2.209  13.157  20.807  0.00  0.00    +0.000 A 
ATOM     18  C   UNL     1       3.258  13.975  20.382  0.00  0.00    +0.000 A 
ATOM     19  C   UNL     1       3.452  14.194  19.022  0.00  0.00    +0.000 A 
ATOM     20 CL   UNL     1       4.717  15.238  18.498  0.00  0.00    +0.000 Cl
ATOM     21  C   UNL     1       2.620  13.590  18.083  0.00  0.00    +0.000 A 
ATOM     22  C   UNL     1       1.573  12.765  18.507  0.00  0.00    +0.000 A 
ENDBRANCH   4  16
BRANCH   3  23
ATOM     23  C   UNL     1       0.805   9.580  19.172  0.00  0.00    +0.000 A 
ATOM     24  C   UNL     1       1.161   8.688  20.197  0.00  0.00    +0.000 A 
ATOM     25  C   UNL     1       2.051   7.636  19.971  0.00  0.00    +0.000 A 
ATOM     26  C   UNL     1       2.611   7.478  18.704  0.00  0.00    +0.000 A 
ATOM     27  C   UNL     1       2.288   8.352  17.669  0.00  0.00    +0.000 A 
ATOM     28  C   UNL     1       1.378   9.385  17.906  0.00  0.00    +0.000 A 
BRANCH  26  29
ATOM     29  S   UNL     1       3.740   6.159  18.405  0.00  0.00    +0.000 S 
ATOM     30  O   UNL     1       4.627   6.523  17.322  0.00  0.00    +0.000 OA
ATOM     31  O   UNL     1       4.225   5.643  19.663  0.00  0.00    +0.000 OA
BRANCH  29  32
ATOM     32  N   UNL     1       2.702   4.996  17.789  0.00  0.00    +0.000 NA
ATOM     33  H   UNL     1       1.761   5.373  17.697  0.00  0.00    +0.000 HD
ATOM     34  H   UNL     1       3.090   4.588  16.940  0.00  0.00    +0.000 HD
ENDBRANCH  29  32
ENDBRANCH  26  29
ENDBRANCH   3  23
TORSDOF 6
ENDMDL
MODEL 6
REMARK VINA RESULT:      -7.6      3.709      7.949
REMARK  Name = 
REMARK  7 active torsions:
REMARK  status: ('A' for Active; 'I' for Inactive)
REMARK    1  A    between atoms: C_1  and  C_2
REMARK    2  A    between atoms: C_4  and  O_5
REMARK    3  A    between atoms: C_6  and  C_7
REMARK    4  A    between atoms: N_9  and  C_10
REMARK    5  A    between atoms: C_13  and  S_14
REMARK    6  A    between atoms: S_14  and  N_15
REMARK    7  A    between atoms: C_20  and  C_21
REMARK                            x       y       z     vdW  Elec       q    Type
REMARK                         _______ _______ _______ _____ _____    ______ ____
ROOT
ATOM      1  C   UNL     1      -1.939  12.084  20.201  0.00  0.00    +0.000 C 
ATOM      2  N   UNL     1      -1.460  11.003  19.659  0.00  0.00    +0.000 NA
ATOM      3  N   UNL     1      -0.130  10.971  19.948  0.00  0.00    +0.000 N 
ATOM      4  C   UNL     1       0.338  12.112  20.732  0.00  0.00    +0.000 C 
ATOM      5  C   UNL     1      -0.931  12.939  20.924  0.00  0.00    +0.000 C 
ENDROOT
BRANCH   1  10
ATOM      6  C   UNL     1      -7.625  13.273  20.158  0.00  0.00    +0.000 C 
ATOM      7  C   UNL     1      -6.141  13.031  20.171  0.00  0.00    +0.000 A 
ATOM      8  C   UNL     1      -5.509  12.607  18.992  0.00  0.00    +0.000 A 
ATOM      9  C   UNL     1      -4.142  12.315  18.980  0.00  0.00    +0.000 A 
ATOM     10  C   UNL     1      -3.379  12.435  20.145  0.00  0.00    +0.000 A 
ATOM     11  C   UNL     1      -3.999  12.881  21.322  0.00  0.00    +0.000 A 
ATOM     12  C   UNL     1      -5.366  13.180  21.332  0.00  0.00    +0.000 A 
ATOM     13 CL   UNL     1      -6.069  13.729  22.811  0.00  0.00    +0.000 Cl
BRANCH   9  14
ATOM     14  O   UNL     1      -3.578  11.881  17.815  0.00  0.00    +0.000 OA
ATOM     15  H   UNL     1      -2.612  11.845  17.912  0.00  0.00    +0.000 HD
ENDBRANCH   9  14
ENDBRANCH   1  10
BRANCH   4  16
ATOM     16  C   UNL     1       1.433  12.866  19.986  0.00  0.00    +0.000 A 
ATOM     17  C   UNL     1       2.534  13.417  20.670  0.00  0.00    +0.000 A 
ATOM     18  C   UNL     1       3.490  14.176  19.993  0.00  0.00    +0.000 A 
ATOM     19  C   UNL     1       3.352  14.396  18.626  0.00  0.00    +0.000 A 
ATOM     20 CL   UNL     1       4.504  15.370  17.797  0.00  0.00    +0.000 Cl
ATOM     21  C   UNL     1       2.277  13.850  17.928  0.00  0.00    +0.000 A 
ATOM     22  C   UNL     1       1.324  13.084  18.604  0.00  0.00    +0.000 A 
ENDBRANCH   4  16
BRANCH   3  23
ATOM     23  C   UNL     1       0.662   9.897  19.562  0.00  0.00    +0.000 A 
ATOM     24  C   UNL     1       1.093   8.954  20.510  0.00  0.00    +0.000 A 
ATOM     25  C   UNL     1       1.877   7.858  20.143  0.00  0.00    +0.000 A 
ATOM     26  C   UNL     1       2.256   7.707  18.811  0.00  0.00    +0.000 A 
ATOM     27  C   UNL     1       1.856   8.630  17.848  0.00  0.00    +0.000 A 
ATOM     28  C   UNL     1       1.052   9.708  18.226  0.00  0.00    +0.000 A 
BRANCH  26  29
ATOM     29  S   UNL     1       3.251   6.332  18.335  0.00  0.00    +0.000 S 
ATOM     30  O   UNL     1       2.406   5.301  17.773  0.00  0.00    +0.000 OA
ATOM     31  O   UNL     1       4.442   6.805  17.672  0.00  0.00    +0.000 OA
BRANCH  29  32
ATOM     32  N   UNL     1       3.740   5.769  19.835  0.00  0.00    +0.000 NA
ATOM     33  H   UNL     1       4.729   5.523  19.817  0.00  0.00    +0.000 HD
ATOM     34  H   UNL     1       3.471   6.426  20.566  0.00  0.00    +0.000 HD
ENDBRANCH  29  32
ENDBRANCH  26  29
ENDBRANCH   3  23
TORSDOF 6
ENDMDL
MODEL 7
REMARK VINA RESULT:      -7.5      3.751      5.237
REMARK  Name = 
REMARK  7 active torsions:
REMARK  status: ('A' for Active; 'I' for Inactive)
REMARK    1  A    between atoms: C_1  and  C_2
REMARK    2  A    between atoms: C_4  and  O_5
REMARK    3  A    between atoms: C_6  and  C_7
REMARK    4  A    between atoms: N_9  and  C_10
REMARK    5  A    between atoms: C_13  and  S_14
REMARK    6  A    between atoms: S_14  and  N_15
REMARK    7  A    between atoms: C_20  and  C_21
REMARK                            x       y       z     vdW  Elec       q    Type
REMARK                         _______ _______ _______ _____ _____    ______ ____
ROOT
ATOM      1  C   UNL     1       1.017  10.101  20.118  0.00  0.00    +0.000 C 
ATOM      2  N   UNL     1       1.255  11.276  19.613  0.00  0.00    +0.000 NA
ATOM      3  N   UNL     1       0.680  12.188  20.445  0.00  0.00    +0.000 N 
ATOM      4  C   UNL     1      -0.007  11.600  21.593  0.00  0.00    +0.000 C 
ATOM      5  C   UNL     1       0.204  10.102  21.386  0.00  0.00    +0.000 C 
ENDROOT
BRANCH   1  10
ATOM      6  C   UNL     1       3.254   5.213  17.917  0.00  0.00    +0.000 C 
ATOM      7  C   UNL     1       2.614   6.450  18.484  0.00  0.00    +0.000 A 
ATOM      8  C   UNL     1       2.479   7.584  17.669  0.00  0.00    +0.000 A 
ATOM      9  C   UNL     1       1.944   8.770  18.177  0.00  0.00    +0.000 A 
ATOM     10  C   UNL     1       1.538   8.851  19.512  0.00  0.00    +0.000 A 
ATOM     11  C   UNL     1       1.648   7.715  20.328  0.00  0.00    +0.000 A 
ATOM     12  C   UNL     1       2.177   6.525  19.816  0.00  0.00    +0.000 A 
ATOM     13 CL   UNL     1       2.281   5.161  20.870  0.00  0.00    +0.000 Cl
BRANCH   9  14
ATOM     14  O   UNL     1       1.858   9.854  17.351  0.00  0.00    +0.000 OA
ATOM     15  H   UNL     1       0.969   9.898  16.961  0.00  0.00    +0.000 HD
ENDBRANCH   9  14
ENDBRANCH   1  10
BRANCH   4  16
ATOM     16  C   UNL     1      -1.479  11.998  21.603  0.00  0.00    +0.000 A 
ATOM     17  C   UNL     1      -2.183  12.215  20.402  0.00  0.00    +0.000 A 
ATOM     18  C   UNL     1      -3.506  12.658  20.419  0.00  0.00    +0.000 A 
ATOM     19  C   UNL     1      -4.137  12.894  21.637  0.00  0.00    +0.000 A 
ATOM     20 CL   UNL     1      -5.754  13.484  21.660  0.00  0.00    +0.000 Cl
ATOM     21  C   UNL     1      -3.464  12.673  22.836  0.00  0.00    +0.000 A 
ATOM     22  C   UNL     1      -2.141  12.222  22.820  0.00  0.00    +0.000 A 
ENDBRANCH   4  16
BRANCH   3  23
ATOM     23  C   UNL     1       0.813  13.552  20.214  0.00  0.00    +0.000 A 
ATOM     24  C   UNL     1       0.447  14.102  18.974  0.00  0.00    +0.000 A 
ATOM     25  C   UNL     1       0.557  15.471  18.724  0.00  0.00    +0.000 A 
ATOM     26  C   UNL     1       1.057  16.308  19.720  0.00  0.00    +0.000 A 
ATOM     27  C   UNL     1       1.441  15.793  20.956  0.00  0.00    +0.000 A 
ATOM     28  C   UNL     1       1.302  14.425  21.199  0.00  0.00    +0.000 A 
BRANCH  26  29
ATOM     29  S   UNL     1       1.208  18.037  19.416  0.00  0.00    +0.000 S 
ATOM     30  O   UNL     1      -0.110  18.630  19.356  0.00  0.00    +0.000 OA
ATOM     31  O   UNL     1       2.266  18.581  20.232  0.00  0.00    +0.000 OA
BRANCH  29  32
ATOM     32  N   UNL     1       1.787  18.026  17.843  0.00  0.00    +0.000 NA
ATOM     33  H   UNL     1       1.092  18.412  17.206  0.00  0.00    +0.000 HD
ATOM     34  H   UNL     1       2.705  18.466  17.799  0.00  0.00    +0.000 HD
ENDBRANCH  29  32
ENDBRANCH  26  29
ENDBRANCH   3  23
TORSDOF 6
ENDMDL
MODEL 8
REMARK VINA RESULT:      -7.5      3.750      5.263
REMARK  Name = 
REMARK  7 active torsions:
REMARK  status: ('A' for Active; 'I' for Inactive)
REMARK    1  A    between atoms: C_1  and  C_2
REMARK    2  A    between atoms: C_4  and  O_5
REMARK    3  A    between atoms: C_6  and  C_7
REMARK    4  A    between atoms: N_9  and  C_10
REMARK    5  A    between atoms: C_13  and  S_14
REMARK    6  A    between atoms: S_14  and  N_15
REMARK    7  A    between atoms: C_20  and  C_21
REMARK                            x       y       z     vdW  Elec       q    Type
REMARK                         _______ _______ _______ _____ _____    ______ ____
ROOT
ATOM      1  C   UNL     1       1.010  10.005  20.150  0.00  0.00    +0.000 C 
ATOM      2  N   UNL     1       1.360  11.190  19.746  0.00  0.00    +0.000 NA
ATOM      3  N   UNL     1       0.734  12.086  20.558  0.00  0.00    +0.000 N 
ATOM      4  C   UNL     1      -0.111  11.475  21.582  0.00  0.00    +0.000 C 
ATOM      5  C   UNL     1       0.053   9.981  21.313  0.00  0.00    +0.000 C 
ENDROOT
BRANCH   1  10
ATOM      6  C   UNL     1       3.283   5.147  17.918  0.00  0.00    +0.000 C 
ATOM      7  C   UNL     1       2.634   6.375  18.493  0.00  0.00    +0.000 A 
ATOM      8  C   UNL     1       2.498   7.516  17.687  0.00  0.00    +0.000 A 
ATOM      9  C   UNL     1       1.954   8.695  18.203  0.00  0.00    +0.000 A 
ATOM     10  C   UNL     1       1.541   8.763  19.536  0.00  0.00    +0.000 A 
ATOM     11  C   UNL     1       1.651   7.620  20.343  0.00  0.00    +0.000 A 
ATOM     12  C   UNL     1       2.188   6.437  19.823  0.00  0.00    +0.000 A 
ATOM     13 CL   UNL     1       2.294   5.064  20.865  0.00  0.00    +0.000 Cl
BRANCH   9  14
ATOM     14  O   UNL     1       1.867   9.786  17.386  0.00  0.00    +0.000 OA
ATOM     15  H   UNL     1       2.759  10.079  17.136  0.00  0.00    +0.000 HD
ENDBRANCH   9  14
ENDBRANCH   1  10
BRANCH   4  16
ATOM     16  C   UNL     1      -1.554  11.950  21.444  0.00  0.00    +0.000 A 
ATOM     17  C   UNL     1      -2.141  12.139  20.178  0.00  0.00    +0.000 A 
ATOM     18  C   UNL     1      -3.434  12.652  20.059  0.00  0.00    +0.000 A 
ATOM     19  C   UNL     1      -4.150  12.985  21.204  0.00  0.00    +0.000 A 
ATOM     20 CL   UNL     1      -5.727  13.659  21.058  0.00  0.00    +0.000 Cl
ATOM     21  C   UNL     1      -3.594  12.792  22.466  0.00  0.00    +0.000 A 
ATOM     22  C   UNL     1      -2.302  12.273  22.587  0.00  0.00    +0.000 A 
ENDBRANCH   4  16
BRANCH   3  23
ATOM     23  C   UNL     1       0.956  13.451  20.426  0.00  0.00    +0.000 A 
ATOM     24  C   UNL     1       1.202  14.244  21.559  0.00  0.00    +0.000 A 
ATOM     25  C   UNL     1       1.443  15.615  21.450  0.00  0.00    +0.000 A 
ATOM     26  C   UNL     1       1.421  16.213  20.191  0.00  0.00    +0.000 A 
ATOM     27  C   UNL     1       1.168  15.458  19.049  0.00  0.00    +0.000 A 
ATOM     28  C   UNL     1       0.952  14.083  19.172  0.00  0.00    +0.000 A 
BRANCH  26  29
ATOM     29  S   UNL     1       1.717  17.944  20.039  0.00  0.00    +0.000 S 
ATOM     30  O   UNL     1       1.444  18.359  18.681  0.00  0.00    +0.000 OA
ATOM     31  O   UNL     1       1.170  18.630  21.184  0.00  0.00    +0.000 OA
BRANCH  29  32
ATOM     32  N   UNL     1       3.383  17.990  20.216  0.00  0.00    +0.000 NA
ATOM     33  H   UNL     1       3.799  18.595  19.509  0.00  0.00    +0.000 HD
ATOM     34  H   UNL     1       3.632  18.214  21.179  0.00  0.00    +0.000 HD
ENDBRANCH  29  32
ENDBRANCH  26  29
ENDBRANCH   3  23
TORSDOF 6
ENDMDL
MODEL 9
REMARK VINA RESULT:      -7.5      3.795      5.241
REMARK  Name = 
REMARK  7 active torsions:
REMARK  status: ('A' for Active; 'I' for Inactive)
REMARK    1  A    between atoms: C_1  and  C_2
REMARK    2  A    between atoms: C_4  and  O_5
REMARK    3  A    between atoms: C_6  and  C_7
REMARK    4  A    between atoms: N_9  and  C_10
REMARK    5  A    between atoms: C_13  and  S_14
REMARK    6  A    between atoms: S_14  and  N_15
REMARK    7  A    between atoms: C_20  and  C_21
REMARK                            x       y       z     vdW  Elec       q    Type
REMARK                         _______ _______ _______ _____ _____    ______ ____
ROOT
ATOM      1  C   UNL     1       0.986  10.030  20.147  0.00  0.00    +0.000 C 
ATOM      2  N   UNL     1       1.390  11.211  19.783  0.00  0.00    +0.000 NA
ATOM      3  N   UNL     1       0.743  12.111  20.574  0.00  0.00    +0.000 N 
ATOM      4  C   UNL     1      -0.175  11.509  21.538  0.00  0.00    +0.000 C 
ATOM      5  C   UNL     1      -0.036  10.015  21.254  0.00  0.00    +0.000 C 
ENDROOT
BRANCH   1  10
ATOM      6  C   UNL     1       3.259   5.154  17.956  0.00  0.00    +0.000 C 
ATOM      7  C   UNL     1       2.610   6.387  18.519  0.00  0.00    +0.000 A 
ATOM      8  C   UNL     1       2.489   7.526  17.708  0.00  0.00    +0.000 A 
ATOM      9  C   UNL     1       1.945   8.709  18.215  0.00  0.00    +0.000 A 
ATOM     10  C   UNL     1       1.517   8.784  19.543  0.00  0.00    +0.000 A 
ATOM     11  C   UNL     1       1.613   7.643  20.354  0.00  0.00    +0.000 A 
ATOM     12  C   UNL     1       2.150   6.455  19.844  0.00  0.00    +0.000 A 
ATOM     13 CL   UNL     1       2.237   5.085  20.892  0.00  0.00    +0.000 Cl
BRANCH   9  14
ATOM     14  O   UNL     1       1.873   9.798  17.394  0.00  0.00    +0.000 OA
ATOM     15  H   UNL     1       2.761  10.026  17.073  0.00  0.00    +0.000 HD
ENDBRANCH   9  14
ENDBRANCH   1  10
BRANCH   4  16
ATOM     16  C   UNL     1      -1.594  12.025  21.328  0.00  0.00    +0.000 A 
ATOM     17  C   UNL     1      -2.407  12.386  22.420  0.00  0.00    +0.000 A 
ATOM     18  C   UNL     1      -3.732  12.780  22.226  0.00  0.00    +0.000 A 
ATOM     19  C   UNL     1      -4.259  12.812  20.938  0.00  0.00    +0.000 A 
ATOM     20 CL   UNL     1      -5.906  13.253  20.700  0.00  0.00    +0.000 Cl
ATOM     21  C   UNL     1      -3.468  12.472  19.843  0.00  0.00    +0.000 A 
ATOM     22  C   UNL     1      -2.139  12.084  20.036  0.00  0.00    +0.000 A 
ENDBRANCH   4  16
BRANCH   3  23
ATOM     23  C   UNL     1       1.009  13.472  20.477  0.00  0.00    +0.000 A 
ATOM     24  C   UNL     1       1.105  14.089  19.219  0.00  0.00    +0.000 A 
ATOM     25  C   UNL     1       1.356  15.458  19.096  0.00  0.00    +0.000 A 
ATOM     26  C   UNL     1       1.534  16.224  20.247  0.00  0.00    +0.000 A 
ATOM     27  C   UNL     1       1.457  15.640  21.509  0.00  0.00    +0.000 A 
ATOM     28  C   UNL     1       1.181  14.275  21.616  0.00  0.00    +0.000 A 
BRANCH  26  29
ATOM     29  S   UNL     1       1.858  17.950  20.107  0.00  0.00    +0.000 S 
ATOM     30  O   UNL     1       1.541  18.391  18.767  0.00  0.00    +0.000 OA
ATOM     31  O   UNL     1       1.370  18.631  21.282  0.00  0.00    +0.000 OA
BRANCH  29  32
ATOM     32  N   UNL     1       3.531  17.962  20.220  0.00  0.00    +0.000 NA
ATOM     33  H   UNL     1       3.948  18.046  19.294  0.00  0.00    +0.000 HD
ATOM     34  H   UNL     1       3.836  18.657  20.898  0.00  0.00    +0.000 HD
ENDBRANCH  29  32
ENDBRANCH  26  29
ENDBRANCH   3  23
TORSDOF 6
ENDMDL
