MODEL 1
REMARK VINA RESULT:      -8.2      0.000      0.000
REMARK  Name = 
REMARK  12 active torsions:
REMARK  status: ('A' for Active; 'I' for Inactive)
REMARK    1  A    between atoms: CD_2  and  OE2_3
REMARK    2  A    between atoms: CD_2  and  CG_4
REMARK    3  A    between atoms: CG_4  and  CB_5
REMARK    4  A    between atoms: CB_5  and  CA_6
REMARK    5  A    between atoms: CA_6  and  N_7
REMARK    6  A    between atoms: CA_6  and  C_33
REMARK    7  A    between atoms: C_8  and  C_10
REMARK    8  A    between atoms: C_13  and  N_14
REMARK    9  A    between atoms: C_16  and  C_17
REMARK   10  A    between atoms: C_17  and  O_18
REMARK   11  A    between atoms: O_18  and  C_19
REMARK   12  A    between atoms: C_33  and  OXT_35
REMARK                            x       y       z     vdW  Elec       q    Type
REMARK                         _______ _______ _______ _____ _____    ______ ____
ROOT
ATOM      1  C   UNK A   0       3.015   5.813  18.874  0.00  0.00    +0.000 A 
ATOM      2  C   UNK A   0       2.828   7.058  18.254  0.00  0.00    +0.000 A 
ATOM      3  C   UNK A   0       2.065   8.057  18.870  0.00  0.00    +0.000 A 
ATOM      4  C   UNK A   0       1.500   7.817  20.128  0.00  0.00    +0.000 A 
ATOM      5  C   UNK A   0       1.656   6.558  20.733  0.00  0.00    +0.000 A 
ATOM      6  C   UNK A   0       2.397   5.555  20.100  0.00  0.00    +0.000 A 
ENDROOT
BRANCH   4   7
ATOM      7  N   UNK A   0       0.796   8.836  20.820  0.00  0.00    +0.000 N 
ATOM      8  C   UNK A   0       0.804  10.198  20.614  0.00  0.00    +0.000 A 
ATOM      9  C   UNK A   0      -0.035  10.707  21.585  0.00  0.00    +0.000 A 
ATOM     10  N   UNK A   0      -0.504   9.674  22.349  0.00  0.00    +0.000 NA
ATOM     11  N   UNK A   0      -0.025   8.542  21.855  0.00  0.00    +0.000 NA
BRANCH   9  12
ATOM     12  C   UNK A   0      -0.508  12.100  21.836  0.00  0.00    +0.000 C 
BRANCH  12  13
ATOM     13  O   UNK A   0      -0.807  12.782  20.619  0.00  0.00    +0.000 OA
BRANCH  13  14
ATOM     14  C   UNK A   0      -1.999  12.483  20.011  0.00  0.00    +0.000 A 
ATOM     15  C   UNK A   0      -1.875  12.003  18.707  0.00  0.00    +0.000 A 
ATOM     16  C   UNK A   0      -3.002  11.607  17.981  0.00  0.00    +0.000 A 
ATOM     17  C   UNK A   0      -4.281  11.692  18.547  0.00  0.00    +0.000 A 
ATOM     18  C   UNK A   0      -5.416  11.239  17.854  0.00  0.00    +0.000 A 
ATOM     19  C   UNK A   0      -6.686  11.340  18.423  0.00  0.00    +0.000 A 
ATOM     20  C   UNK A   0      -6.839  11.925  19.675  0.00  0.00    +0.000 A 
ATOM     21  C   UNK A   0      -5.718  12.371  20.380  0.00  0.00    +0.000 A 
ATOM     22  C   UNK A   0      -4.425  12.235  19.844  0.00  0.00    +0.000 A 
ATOM     23  C   UNK A   0      -3.275  12.616  20.567  0.00  0.00    +0.000 A 
ENDBRANCH  13  14
ENDBRANCH  12  13
ENDBRANCH   9  12
ENDBRANCH   4   7
BRANCH   1  25
ATOM     24  N   GLU A   1       5.016   5.309  17.582  0.00  0.00    +0.000 N 
ATOM     25  C   UNK A   0       3.896   4.815  18.208  0.00  0.00    +0.000 C 
ATOM     26  O   UNK A   0       3.575   3.634  18.206  0.00  0.00    +0.000 OA
ATOM     27  H   GLU A   1       5.195   6.306  17.544  0.00  0.00    +0.000 HD
BRANCH  24  28
ATOM     28  CA  GLU A   1       5.878   4.468  16.757  0.00  0.00    +0.000 C 
BRANCH  28  29
ATOM     29  C   GLU A   1       7.316   4.964  16.939  0.00  0.00    +0.000 C 
ATOM     30  O   GLU A   1       8.219   4.266  17.389  0.00  0.00    +0.000 OA
BRANCH  29  31
ATOM     31  OXT GLU A   1       7.505   6.256  16.584  0.00  0.00    +0.000 OA
ATOM     32  HXT GLU A   1       7.340   6.440  15.629  0.00  0.00    +0.000 HD
ENDBRANCH  29  31
ENDBRANCH  28  29
BRANCH  28  33
ATOM     33  CB  GLU A   1       5.445   4.576  15.285  0.00  0.00    +0.000 C 
BRANCH  33  34
ATOM     34  CG  GLU A   1       6.051   3.552  14.328  0.00  0.00    +0.000 C 
BRANCH  34  36
ATOM     35  OE1 GLU A   1       6.776   3.828  12.058  0.00  0.00    +0.000 OA
ATOM     36  CD  GLU A   1       6.812   4.225  13.216  0.00  0.00    +0.000 C 
BRANCH  36  37
ATOM     37  OE2 GLU A   1       7.549   5.283  13.607  0.00  0.00    +0.000 OA
ATOM     38  HE2 GLU A   1       8.118   5.676  12.916  0.00  0.00    +0.000 HD
ENDBRANCH  36  37
ENDBRANCH  34  36
ENDBRANCH  33  34
ENDBRANCH  28  33
ENDBRANCH  24  28
ENDBRANCH   1  25
TORSDOF 12
ENDMDL
MODEL 2
REMARK VINA RESULT:      -8.1      3.177      4.339
REMARK  Name = 
REMARK  12 active torsions:
REMARK  status: ('A' for Active; 'I' for Inactive)
REMARK    1  A    between atoms: CD_2  and  OE2_3
REMARK    2  A    between atoms: CD_2  and  CG_4
REMARK    3  A    between atoms: CG_4  and  CB_5
REMARK    4  A    between atoms: CB_5  and  CA_6
REMARK    5  A    between atoms: CA_6  and  N_7
REMARK    6  A    between atoms: CA_6  and  C_33
REMARK    7  A    between atoms: C_8  and  C_10
REMARK    8  A    between atoms: C_13  and  N_14
REMARK    9  A    between atoms: C_16  and  C_17
REMARK   10  A    between atoms: C_17  and  O_18
REMARK   11  A    between atoms: O_18  and  C_19
REMARK   12  A    between atoms: C_33  and  OXT_35
REMARK                            x       y       z     vdW  Elec       q    Type
REMARK                         _______ _______ _______ _____ _____    ______ ____
ROOT
ATOM      1  C   UNK A   0       2.619   7.223  18.657  0.00  0.00    +0.000 A 
ATOM      2  C   UNK A   0       2.165   7.288  19.983  0.00  0.00    +0.000 A 
ATOM      3  C   UNK A   0       1.426   8.389  20.432  0.00  0.00    +0.000 A 
ATOM      4  C   UNK A   0       1.119   9.425  19.542  0.00  0.00    +0.000 A 
ATOM      5  C   UNK A   0       1.605   9.377  18.224  0.00  0.00    +0.000 A 
ATOM      6  C   UNK A   0       2.366   8.288  17.788  0.00  0.00    +0.000 A 
ENDROOT
BRANCH   4   7
ATOM      7  N   UNK A   0       0.298  10.511  19.939  0.00  0.00    +0.000 N 
ATOM      8  C   UNK A   0       0.488  11.428  20.949  0.00  0.00    +0.000 A 
ATOM      9  C   UNK A   0      -0.628  12.240  20.905  0.00  0.00    +0.000 A 
ATOM     10  N   UNK A   0      -1.456  11.798  19.910  0.00  0.00    +0.000 NA
ATOM     11  N   UNK A   0      -0.870  10.775  19.306  0.00  0.00    +0.000 NA
BRANCH   9  12
ATOM     12  C   UNK A   0      -0.976  13.465  21.682  0.00  0.00    +0.000 C 
BRANCH  12  13
ATOM     13  O   UNK A   0       0.037  14.463  21.573  0.00  0.00    +0.000 OA
BRANCH  13  14
ATOM     14  C   UNK A   0      -0.053  15.333  20.516  0.00  0.00    +0.000 A 
ATOM     15  C   UNK A   0      -1.326  15.868  20.318  0.00  0.00    +0.000 A 
ATOM     16  C   UNK A   0      -1.557  16.810  19.312  0.00  0.00    +0.000 A 
ATOM     17  C   UNK A   0      -0.515  17.231  18.476  0.00  0.00    +0.000 A 
ATOM     18  C   UNK A   0      -0.716  18.222  17.502  0.00  0.00    +0.000 A 
ATOM     19  C   UNK A   0       0.327  18.625  16.667  0.00  0.00    +0.000 A 
ATOM     20  C   UNK A   0       1.573  18.018  16.775  0.00  0.00    +0.000 A 
ATOM     21  C   UNK A   0       1.791  17.036  17.745  0.00  0.00    +0.000 A 
ATOM     22  C   UNK A   0       0.765  16.650  18.626  0.00  0.00    +0.000 A 
ATOM     23  C   UNK A   0       0.983  15.712  19.658  0.00  0.00    +0.000 A 
ENDBRANCH  13  14
ENDBRANCH  12  13
ENDBRANCH   9  12
ENDBRANCH   4   7
BRANCH   1  25
ATOM     24  N   GLU A   1       4.681   6.132  17.955  0.00  0.00    +0.000 N 
ATOM     25  C   UNK A   0       3.337   5.996  18.215  0.00  0.00    +0.000 C 
ATOM     26  O   UNK A   0       2.711   4.954  18.062  0.00  0.00    +0.000 OA
ATOM     27  H   GLU A   1       5.135   7.036  18.021  0.00  0.00    +0.000 HD
BRANCH  24  28
ATOM     28  CA  GLU A   1       5.469   5.055  17.365  0.00  0.00    +0.000 C 
BRANCH  28  29
ATOM     29  C   GLU A   1       6.938   5.319  17.706  0.00  0.00    +0.000 C 
ATOM     30  O   GLU A   1       7.614   6.184  17.157  0.00  0.00    +0.000 OA
BRANCH  29  31
ATOM     31  OXT GLU A   1       7.444   4.494  18.652  0.00  0.00    +0.000 OA
ATOM     32  HXT GLU A   1       7.662   4.942  19.503  0.00  0.00    +0.000 HD
ENDBRANCH  29  31
ENDBRANCH  28  29
BRANCH  28  33
ATOM     33  CB  GLU A   1       5.256   5.039  15.841  0.00  0.00    +0.000 C 
BRANCH  33  34
ATOM     34  CG  GLU A   1       5.939   3.906  15.077  0.00  0.00    +0.000 C 
BRANCH  34  36
ATOM     35  OE1 GLU A   1       6.639   4.046  12.788  0.00  0.00    +0.000 OA
ATOM     36  CD  GLU A   1       6.772   4.437  13.941  0.00  0.00    +0.000 C 
BRANCH  36  37
ATOM     37  OE2 GLU A   1       7.687   5.358  14.303  0.00  0.00    +0.000 OA
ATOM     38  HE2 GLU A   1       7.587   5.714  15.208  0.00  0.00    +0.000 HD
ENDBRANCH  36  37
ENDBRANCH  34  36
ENDBRANCH  33  34
ENDBRANCH  28  33
ENDBRANCH  24  28
ENDBRANCH   1  25
TORSDOF 12
ENDMDL
MODEL 3
REMARK VINA RESULT:      -8.0      3.512      5.262
REMARK  Name = 
REMARK  12 active torsions:
REMARK  status: ('A' for Active; 'I' for Inactive)
REMARK    1  A    between atoms: CD_2  and  OE2_3
REMARK    2  A    between atoms: CD_2  and  CG_4
REMARK    3  A    between atoms: CG_4  and  CB_5
REMARK    4  A    between atoms: CB_5  and  CA_6
REMARK    5  A    between atoms: CA_6  and  N_7
REMARK    6  A    between atoms: CA_6  and  C_33
REMARK    7  A    between atoms: C_8  and  C_10
REMARK    8  A    between atoms: C_13  and  N_14
REMARK    9  A    between atoms: C_16  and  C_17
REMARK   10  A    between atoms: C_17  and  O_18
REMARK   11  A    between atoms: O_18  and  C_19
REMARK   12  A    between atoms: C_33  and  OXT_35
REMARK                            x       y       z     vdW  Elec       q    Type
REMARK                         _______ _______ _______ _____ _____    ______ ____
ROOT
ATOM      1  C   UNK A   0       2.418   7.376  19.090  0.00  0.00    +0.000 A 
ATOM      2  C   UNK A   0       1.831   7.700  20.323  0.00  0.00    +0.000 A 
ATOM      3  C   UNK A   0       1.013   8.828  20.451  0.00  0.00    +0.000 A 
ATOM      4  C   UNK A   0       0.761   9.629  19.332  0.00  0.00    +0.000 A 
ATOM      5  C   UNK A   0       1.377   9.325  18.105  0.00  0.00    +0.000 A 
ATOM      6  C   UNK A   0       2.215   8.212  17.990  0.00  0.00    +0.000 A 
ENDROOT
BRANCH   4   7
ATOM      7  N   UNK A   0      -0.134  10.728  19.404  0.00  0.00    +0.000 N 
ATOM      8  C   UNK A   0      -0.343  11.618  20.435  0.00  0.00    +0.000 A 
ATOM      9  C   UNK A   0      -1.338  12.459  19.979  0.00  0.00    +0.000 A 
ATOM     10  N   UNK A   0      -1.713  12.060  18.724  0.00  0.00    +0.000 NA
ATOM     11  N   UNK A   0      -0.952  11.036  18.371  0.00  0.00    +0.000 NA
BRANCH   9  12
ATOM     12  C   UNK A   0      -1.947  13.676  20.591  0.00  0.00    +0.000 C 
BRANCH  12  13
ATOM     13  O   UNK A   0      -0.951  14.573  21.080  0.00  0.00    +0.000 OA
BRANCH  13  14
ATOM     14  C   UNK A   0      -0.299  15.348  20.156  0.00  0.00    +0.000 A 
ATOM     15  C   UNK A   0       1.080  15.145  20.104  0.00  0.00    +0.000 A 
ATOM     16  C   UNK A   0       1.869  15.827  19.173  0.00  0.00    +0.000 A 
ATOM     17  C   UNK A   0       1.290  16.735  18.277  0.00  0.00    +0.000 A 
ATOM     18  C   UNK A   0       2.059  17.380  17.294  0.00  0.00    +0.000 A 
ATOM     19  C   UNK A   0       1.473  18.292  16.415  0.00  0.00    +0.000 A 
ATOM     20  C   UNK A   0       0.121  18.593  16.530  0.00  0.00    +0.000 A 
ATOM     21  C   UNK A   0      -0.658  17.952  17.496  0.00  0.00    +0.000 A 
ATOM     22  C   UNK A   0      -0.097  16.996  18.361  0.00  0.00    +0.000 A 
ATOM     23  C   UNK A   0      -0.879  16.287  19.297  0.00  0.00    +0.000 A 
ENDBRANCH  13  14
ENDBRANCH  12  13
ENDBRANCH   9  12
ENDBRANCH   4   7
BRANCH   1  25
ATOM     24  N   GLU A   1       3.652   5.768  17.740  0.00  0.00    +0.000 N 
ATOM     25  C   UNK A   0       3.218   6.124  18.995  0.00  0.00    +0.000 C 
ATOM     26  O   UNK A   0       3.415   5.457  20.003  0.00  0.00    +0.000 OA
ATOM     27  H   GLU A   1       3.393   6.313  16.925  0.00  0.00    +0.000 HD
BRANCH  24  28
ATOM     28  CA  GLU A   1       4.305   4.490  17.478  0.00  0.00    +0.000 C 
BRANCH  28  29
ATOM     29  C   GLU A   1       5.329   4.715  16.362  0.00  0.00    +0.000 C 
ATOM     30  O   GLU A   1       5.208   5.579  15.499  0.00  0.00    +0.000 OA
BRANCH  29  31
ATOM     31  OXT GLU A   1       6.375   3.856  16.389  0.00  0.00    +0.000 OA
ATOM     32  HXT GLU A   1       6.316   3.129  15.725  0.00  0.00    +0.000 HD
ENDBRANCH  29  31
ENDBRANCH  28  29
BRANCH  28  33
ATOM     33  CB  GLU A   1       3.252   3.452  17.053  0.00  0.00    +0.000 C 
BRANCH  33  34
ATOM     34  CG  GLU A   1       3.222   2.155  17.859  0.00  0.00    +0.000 C 
BRANCH  34  36
ATOM     35  OE1 GLU A   1       1.259   2.338  19.225  0.00  0.00    +0.000 OA
ATOM     36  CD  GLU A   1       2.482   2.334  19.158  0.00  0.00    +0.000 C 
BRANCH  36  37
ATOM     37  OE2 GLU A   1       3.277   2.510  20.232  0.00  0.00    +0.000 OA
ATOM     38  HE2 GLU A   1       3.074   3.295  20.779  0.00  0.00    +0.000 HD
ENDBRANCH  36  37
ENDBRANCH  34  36
ENDBRANCH  33  34
ENDBRANCH  28  33
ENDBRANCH  24  28
ENDBRANCH   1  25
TORSDOF 12
ENDMDL
MODEL 4
REMARK VINA RESULT:      -8.0      1.164      2.110
REMARK  Name = 
REMARK  12 active torsions:
REMARK  status: ('A' for Active; 'I' for Inactive)
REMARK    1  A    between atoms: CD_2  and  OE2_3
REMARK    2  A    between atoms: CD_2  and  CG_4
REMARK    3  A    between atoms: CG_4  and  CB_5
REMARK    4  A    between atoms: CB_5  and  CA_6
REMARK    5  A    between atoms: CA_6  and  N_7
REMARK    6  A    between atoms: CA_6  and  C_33
REMARK    7  A    between atoms: C_8  and  C_10
REMARK    8  A    between atoms: C_13  and  N_14
REMARK    9  A    between atoms: C_16  and  C_17
REMARK   10  A    between atoms: C_17  and  O_18
REMARK   11  A    between atoms: O_18  and  C_19
REMARK   12  A    between atoms: C_33  and  OXT_35
REMARK                            x       y       z     vdW  Elec       q    Type
REMARK                         _______ _______ _______ _____ _____    ______ ____
ROOT
ATOM      1  C   UNK A   0       2.867   5.757  19.438  0.00  0.00    +0.000 A 
ATOM      2  C   UNK A   0       2.867   7.049  18.889  0.00  0.00    +0.000 A 
ATOM      3  C   UNK A   0       2.142   8.082  19.494  0.00  0.00    +0.000 A 
ATOM      4  C   UNK A   0       1.427   7.829  20.670  0.00  0.00    +0.000 A 
ATOM      5  C   UNK A   0       1.398   6.527  21.200  0.00  0.00    +0.000 A 
ATOM      6  C   UNK A   0       2.102   5.492  20.576  0.00  0.00    +0.000 A 
ENDROOT
BRANCH   4   7
ATOM      7  N   UNK A   0       0.755   8.872  21.357  0.00  0.00    +0.000 N 
ATOM      8  C   UNK A   0      -0.329   9.624  20.960  0.00  0.00    +0.000 A 
ATOM      9  C   UNK A   0      -0.546  10.507  21.998  0.00  0.00    +0.000 A 
ATOM     10  N   UNK A   0       0.397  10.291  22.966  0.00  0.00    +0.000 NA
ATOM     11  N   UNK A   0       1.156   9.275  22.586  0.00  0.00    +0.000 NA
BRANCH   9  12
ATOM     12  C   UNK A   0      -1.620  11.521  22.211  0.00  0.00    +0.000 C 
BRANCH  12  13
ATOM     13  O   UNK A   0      -1.668  12.468  21.144  0.00  0.00    +0.000 OA
BRANCH  13  14
ATOM     14  C   UNK A   0      -2.294  12.077  19.988  0.00  0.00    +0.000 A 
ATOM     15  C   UNK A   0      -3.616  12.507  19.876  0.00  0.00    +0.000 A 
ATOM     16  C   UNK A   0      -4.362  12.229  18.727  0.00  0.00    +0.000 A 
ATOM     17  C   UNK A   0      -3.799  11.505  17.668  0.00  0.00    +0.000 A 
ATOM     18  C   UNK A   0      -4.515  11.272  16.482  0.00  0.00    +0.000 A 
ATOM     19  C   UNK A   0      -3.948  10.539  15.439  0.00  0.00    +0.000 A 
ATOM     20  C   UNK A   0      -2.673  10.004  15.582  0.00  0.00    +0.000 A 
ATOM     21  C   UNK A   0      -1.945  10.236  16.753  0.00  0.00    +0.000 A 
ATOM     22  C   UNK A   0      -2.481  11.010  17.796  0.00  0.00    +0.000 A 
ATOM     23  C   UNK A   0      -1.738  11.313  18.957  0.00  0.00    +0.000 A 
ENDBRANCH  13  14
ENDBRANCH  12  13
ENDBRANCH   9  12
ENDBRANCH   4   7
BRANCH   1  25
ATOM     24  N   GLU A   1       4.947   5.123  18.342  0.00  0.00    +0.000 N 
ATOM     25  C   UNK A   0       3.715   4.716  18.796  0.00  0.00    +0.000 C 
ATOM     26  O   UNK A   0       3.276   3.580  18.661  0.00  0.00    +0.000 OA
ATOM     27  H   GLU A   1       5.232   6.094  18.405  0.00  0.00    +0.000 HD
BRANCH  24  28
ATOM     28  CA  GLU A   1       5.810   4.249  17.553  0.00  0.00    +0.000 C 
BRANCH  28  29
ATOM     29  C   GLU A   1       7.202   4.888  17.515  0.00  0.00    +0.000 C 
ATOM     30  O   GLU A   1       7.393   6.097  17.610  0.00  0.00    +0.000 OA
BRANCH  29  31
ATOM     31  OXT GLU A   1       8.212   4.005  17.339  0.00  0.00    +0.000 OA
ATOM     32  HXT GLU A   1       8.478   3.529  18.161  0.00  0.00    +0.000 HD
ENDBRANCH  29  31
ENDBRANCH  28  29
BRANCH  28  33
ATOM     33  CB  GLU A   1       5.236   4.105  16.133  0.00  0.00    +0.000 C 
BRANCH  33  34
ATOM     34  CG  GLU A   1       5.614   5.202  15.139  0.00  0.00    +0.000 C 
BRANCH  34  36
ATOM     35  OE1 GLU A   1       7.792   5.368  14.147  0.00  0.00    +0.000 OA
ATOM     36  CD  GLU A   1       6.733   4.758  14.234  0.00  0.00    +0.000 C 
BRANCH  36  37
ATOM     37  OE2 GLU A   1       6.463   3.650  13.516  0.00  0.00    +0.000 OA
ATOM     38  HE2 GLU A   1       7.014   3.522  12.719  0.00  0.00    +0.000 HD
ENDBRANCH  36  37
ENDBRANCH  34  36
ENDBRANCH  33  34
ENDBRANCH  28  33
ENDBRANCH  24  28
ENDBRANCH   1  25
TORSDOF 12
ENDMDL
MODEL 5
REMARK VINA RESULT:      -8.0      1.163      2.239
REMARK  Name = 
REMARK  12 active torsions:
REMARK  status: ('A' for Active; 'I' for Inactive)
REMARK    1  A    between atoms: CD_2  and  OE2_3
REMARK    2  A    between atoms: CD_2  and  CG_4
REMARK    3  A    between atoms: CG_4  and  CB_5
REMARK    4  A    between atoms: CB_5  and  CA_6
REMARK    5  A    between atoms: CA_6  and  N_7
REMARK    6  A    between atoms: CA_6  and  C_33
REMARK    7  A    between atoms: C_8  and  C_10
REMARK    8  A    between atoms: C_13  and  N_14
REMARK    9  A    between atoms: C_16  and  C_17
REMARK   10  A    between atoms: C_17  and  O_18
REMARK   11  A    between atoms: O_18  and  C_19
REMARK   12  A    between atoms: C_33  and  OXT_35
REMARK                            x       y       z     vdW  Elec       q    Type
REMARK                         _______ _______ _______ _____ _____    ______ ____
ROOT
ATOM      1  C   UNK A   0       3.325   5.596  18.592  0.00  0.00    +0.000 A 
ATOM      2  C   UNK A   0       2.789   5.196  19.826  0.00  0.00    +0.000 A 
ATOM      3  C   UNK A   0       2.027   6.084  20.596  0.00  0.00    +0.000 A 
ATOM      4  C   UNK A   0       1.780   7.376  20.118  0.00  0.00    +0.000 A 
ATOM      5  C   UNK A   0       2.348   7.788  18.900  0.00  0.00    +0.000 A 
ATOM      6  C   UNK A   0       3.131   6.906  18.148  0.00  0.00    +0.000 A 
ENDROOT
BRANCH   4   7
ATOM      7  N   UNK A   0       0.940   8.271  20.829  0.00  0.00    +0.000 N 
ATOM      8  C   UNK A   0       1.016   9.642  20.937  0.00  0.00    +0.000 A 
ATOM      9  C   UNK A   0      -0.032   9.990  21.765  0.00  0.00    +0.000 A 
ATOM     10  N   UNK A   0      -0.690   8.853  22.147  0.00  0.00    +0.000 NA
ATOM     11  N   UNK A   0      -0.118   7.821  21.545  0.00  0.00    +0.000 NA
BRANCH   9  12
ATOM     12  C   UNK A   0      -0.534  11.327  22.197  0.00  0.00    +0.000 C 
BRANCH  12  13
ATOM     13  O   UNK A   0      -0.606  12.241  21.103  0.00  0.00    +0.000 OA
BRANCH  13  14
ATOM     14  C   UNK A   0      -1.482  11.938  20.092  0.00  0.00    +0.000 A 
ATOM     15  C   UNK A   0      -2.772  12.436  20.281  0.00  0.00    +0.000 A 
ATOM     16  C   UNK A   0      -3.758  12.252  19.307  0.00  0.00    +0.000 A 
ATOM     17  C   UNK A   0      -3.472  11.557  18.125  0.00  0.00    +0.000 A 
ATOM     18  C   UNK A   0      -4.434  11.418  17.110  0.00  0.00    +0.000 A 
ATOM     19  C   UNK A   0      -4.141  10.713  15.942  0.00  0.00    +0.000 A 
ATOM     20  C   UNK A   0      -2.897  10.111  15.790  0.00  0.00    +0.000 A 
ATOM     21  C   UNK A   0      -1.928  10.249  16.787  0.00  0.00    +0.000 A 
ATOM     22  C   UNK A   0      -2.187  10.994  17.950  0.00  0.00    +0.000 A 
ATOM     23  C   UNK A   0      -1.200  11.203  18.937  0.00  0.00    +0.000 A 
ENDBRANCH  13  14
ENDBRANCH  12  13
ENDBRANCH   9  12
ENDBRANCH   4   7
BRANCH   1  25
ATOM     24  N   GLU A   1       5.137   5.053  17.058  0.00  0.00    +0.000 N 
ATOM     25  C   UNK A   0       4.064   4.589  17.783  0.00  0.00    +0.000 C 
ATOM     26  O   UNK A   0       3.673   3.429  17.761  0.00  0.00    +0.000 OA
ATOM     27  H   GLU A   1       5.372   6.039  17.048  0.00  0.00    +0.000 HD
BRANCH  24  28
ATOM     28  CA  GLU A   1       5.849   4.212  16.102  0.00  0.00    +0.000 C 
BRANCH  28  29
ATOM     29  C   GLU A   1       7.312   4.662  16.091  0.00  0.00    +0.000 C 
ATOM     30  O   GLU A   1       7.766   5.464  15.282  0.00  0.00    +0.000 OA
BRANCH  29  31
ATOM     31  OXT GLU A   1       8.079   4.076  17.041  0.00  0.00    +0.000 OA
ATOM     32  HXT GLU A   1       8.562   3.275  16.730  0.00  0.00    +0.000 HD
ENDBRANCH  29  31
ENDBRANCH  28  29
BRANCH  28  33
ATOM     33  CB  GLU A   1       5.218   4.371  14.708  0.00  0.00    +0.000 C 
BRANCH  33  34
ATOM     34  CG  GLU A   1       6.114   4.029  13.520  0.00  0.00    +0.000 C 
BRANCH  34  36
ATOM     35  OE1 GLU A   1       4.256   3.567  12.076  0.00  0.00    +0.000 OA
ATOM     36  CD  GLU A   1       5.365   3.240  12.478  0.00  0.00    +0.000 C 
BRANCH  36  37
ATOM     37  OE2 GLU A   1       6.009   2.138  12.044  0.00  0.00    +0.000 OA
ATOM     38  HE2 GLU A   1       6.965   2.106  12.243  0.00  0.00    +0.000 HD
ENDBRANCH  36  37
ENDBRANCH  34  36
ENDBRANCH  33  34
ENDBRANCH  28  33
ENDBRANCH  24  28
ENDBRANCH   1  25
TORSDOF 12
ENDMDL
MODEL 6
REMARK VINA RESULT:      -7.9      1.794      2.667
REMARK  Name = 
REMARK  12 active torsions:
REMARK  status: ('A' for Active; 'I' for Inactive)
REMARK    1  A    between atoms: CD_2  and  OE2_3
REMARK    2  A    between atoms: CD_2  and  CG_4
REMARK    3  A    between atoms: CG_4  and  CB_5
REMARK    4  A    between atoms: CB_5  and  CA_6
REMARK    5  A    between atoms: CA_6  and  N_7
REMARK    6  A    between atoms: CA_6  and  C_33
REMARK    7  A    between atoms: C_8  and  C_10
REMARK    8  A    between atoms: C_13  and  N_14
REMARK    9  A    between atoms: C_16  and  C_17
REMARK   10  A    between atoms: C_17  and  O_18
REMARK   11  A    between atoms: O_18  and  C_19
REMARK   12  A    between atoms: C_33  and  OXT_35
REMARK                            x       y       z     vdW  Elec       q    Type
REMARK                         _______ _______ _______ _____ _____    ______ ____
ROOT
ATOM      1  C   UNK A   0       2.948   6.368  19.189  0.00  0.00    +0.000 A 
ATOM      2  C   UNK A   0       2.867   7.238  18.092  0.00  0.00    +0.000 A 
ATOM      3  C   UNK A   0       2.108   8.412  18.165  0.00  0.00    +0.000 A 
ATOM      4  C   UNK A   0       1.441   8.730  19.353  0.00  0.00    +0.000 A 
ATOM      5  C   UNK A   0       1.492   7.841  20.440  0.00  0.00    +0.000 A 
ATOM      6  C   UNK A   0       2.230   6.656  20.352  0.00  0.00    +0.000 A 
ENDROOT
BRANCH   4   7
ATOM      7  N   UNK A   0       0.737   9.954  19.492  0.00  0.00    +0.000 N 
ATOM      8  C   UNK A   0       0.747  10.855  20.534  0.00  0.00    +0.000 A 
ATOM      9  C   UNK A   0      -0.137  11.845  20.154  0.00  0.00    +0.000 A 
ATOM     10  N   UNK A   0      -0.664  11.522  18.934  0.00  0.00    +0.000 NA
ATOM     11  N   UNK A   0      -0.101  10.395  18.524  0.00  0.00    +0.000 NA
BRANCH   9  12
ATOM     12  C   UNK A   0      -0.499  13.136  20.810  0.00  0.00    +0.000 C 
BRANCH  12  13
ATOM     13  O   UNK A   0      -1.743  13.640  20.327  0.00  0.00    +0.000 OA
BRANCH  13  14
ATOM     14  C   UNK A   0      -2.860  13.374  21.077  0.00  0.00    +0.000 A 
ATOM     15  C   UNK A   0      -2.704  13.605  22.443  0.00  0.00    +0.000 A 
ATOM     16  C   UNK A   0      -3.774  13.428  23.325  0.00  0.00    +0.000 A 
ATOM     17  C   UNK A   0      -5.025  13.009  22.854  0.00  0.00    +0.000 A 
ATOM     18  C   UNK A   0      -6.126  12.888  23.717  0.00  0.00    +0.000 A 
ATOM     19  C   UNK A   0      -7.364  12.457  23.239  0.00  0.00    +0.000 A 
ATOM     20  C   UNK A   0      -7.506  12.112  21.900  0.00  0.00    +0.000 A 
ATOM     21  C   UNK A   0      -6.421  12.236  21.027  0.00  0.00    +0.000 A 
ATOM     22  C   UNK A   0      -5.179  12.712  21.481  0.00  0.00    +0.000 A 
ATOM     23  C   UNK A   0      -4.091  12.910  20.603  0.00  0.00    +0.000 A 
ENDBRANCH  13  14
ENDBRANCH  12  13
ENDBRANCH   9  12
ENDBRANCH   4   7
BRANCH   1  25
ATOM     24  N   GLU A   1       5.006   5.339  18.390  0.00  0.00    +0.000 N 
ATOM     25  C   UNK A   0       3.829   5.172  19.080  0.00  0.00    +0.000 C 
ATOM     26  O   UNK A   0       3.460   4.106  19.557  0.00  0.00    +0.000 OA
ATOM     27  H   GLU A   1       5.228   6.223  17.944  0.00  0.00    +0.000 HD
BRANCH  24  28
ATOM     28  CA  GLU A   1       5.884   4.218  18.070  0.00  0.00    +0.000 C 
BRANCH  28  29
ATOM     29  C   GLU A   1       7.326   4.728  18.137  0.00  0.00    +0.000 C 
ATOM     30  O   GLU A   1       7.769   5.381  19.076  0.00  0.00    +0.000 OA
BRANCH  29  31
ATOM     31  OXT GLU A   1       8.073   4.420  17.050  0.00  0.00    +0.000 OA
ATOM     32  HXT GLU A   1       8.258   3.457  16.949  0.00  0.00    +0.000 HD
ENDBRANCH  29  31
ENDBRANCH  28  29
BRANCH  28  33
ATOM     33  CB  GLU A   1       5.554   3.693  16.662  0.00  0.00    +0.000 C 
BRANCH  33  34
ATOM     34  CG  GLU A   1       4.702   4.608  15.785  0.00  0.00    +0.000 C 
BRANCH  34  36
ATOM     35  OE1 GLU A   1       5.180   6.937  15.469  0.00  0.00    +0.000 OA
ATOM     36  CD  GLU A   1       5.504   5.773  15.268  0.00  0.00    +0.000 C 
BRANCH  36  37
ATOM     37  OE2 GLU A   1       6.591   5.427  14.551  0.00  0.00    +0.000 OA
ATOM     38  HE2 GLU A   1       7.036   4.604  14.835  0.00  0.00    +0.000 HD
ENDBRANCH  36  37
ENDBRANCH  34  36
ENDBRANCH  33  34
ENDBRANCH  28  33
ENDBRANCH  24  28
ENDBRANCH   1  25
TORSDOF 12
ENDMDL
MODEL 7
REMARK VINA RESULT:      -7.8      3.462      4.834
REMARK  Name = 
REMARK  12 active torsions:
REMARK  status: ('A' for Active; 'I' for Inactive)
REMARK    1  A    between atoms: CD_2  and  OE2_3
REMARK    2  A    between atoms: CD_2  and  CG_4
REMARK    3  A    between atoms: CG_4  and  CB_5
REMARK    4  A    between atoms: CB_5  and  CA_6
REMARK    5  A    between atoms: CA_6  and  N_7
REMARK    6  A    between atoms: CA_6  and  C_33
REMARK    7  A    between atoms: C_8  and  C_10
REMARK    8  A    between atoms: C_13  and  N_14
REMARK    9  A    between atoms: C_16  and  C_17
REMARK   10  A    between atoms: C_17  and  O_18
REMARK   11  A    between atoms: O_18  and  C_19
REMARK   12  A    between atoms: C_33  and  OXT_35
REMARK                            x       y       z     vdW  Elec       q    Type
REMARK                         _______ _______ _______ _____ _____    ______ ____
ROOT
ATOM      1  C   UNK A   0       1.908   7.824  19.652  0.00  0.00    +0.000 A 
ATOM      2  C   UNK A   0       1.328   7.982  20.920  0.00  0.00    +0.000 A 
ATOM      3  C   UNK A   0       0.590   9.131  21.230  0.00  0.00    +0.000 A 
ATOM      4  C   UNK A   0       0.412  10.121  20.258  0.00  0.00    +0.000 A 
ATOM      5  C   UNK A   0       1.023   9.979  18.999  0.00  0.00    +0.000 A 
ATOM      6  C   UNK A   0       1.782   8.842  18.704  0.00  0.00    +0.000 A 
ENDROOT
BRANCH   4   7
ATOM      7  N   UNK A   0      -0.404  11.255  20.508  0.00  0.00    +0.000 N 
ATOM      8  C   UNK A   0      -0.239  12.263  21.432  0.00  0.00    +0.000 A 
ATOM      9  C   UNK A   0      -1.334  13.085  21.258  0.00  0.00    +0.000 A 
ATOM     10  N   UNK A   0      -2.127  12.561  20.273  0.00  0.00    +0.000 NA
ATOM     11  N   UNK A   0      -1.536  11.475  19.799  0.00  0.00    +0.000 NA
BRANCH   9  12
ATOM     12  C   UNK A   0      -1.691  14.386  21.895  0.00  0.00    +0.000 C 
BRANCH  12  13
ATOM     13  O   UNK A   0      -0.628  15.331  21.793  0.00  0.00    +0.000 OA
BRANCH  13  14
ATOM     14  C   UNK A   0      -0.513  16.019  20.612  0.00  0.00    +0.000 A 
ATOM     15  C   UNK A   0      -1.695  16.623  20.181  0.00  0.00    +0.000 A 
ATOM     16  C   UNK A   0      -1.718  17.402  19.021  0.00  0.00    +0.000 A 
ATOM     17  C   UNK A   0      -0.555  17.587  18.263  0.00  0.00    +0.000 A 
ATOM     18  C   UNK A   0      -0.546  18.418  17.130  0.00  0.00    +0.000 A 
ATOM     19  C   UNK A   0       0.615  18.584  16.376  0.00  0.00    +0.000 A 
ATOM     20  C   UNK A   0       1.772  17.897  16.726  0.00  0.00    +0.000 A 
ATOM     21  C   UNK A   0       1.782  17.074  17.855  0.00  0.00    +0.000 A 
ATOM     22  C   UNK A   0       0.634  16.930  18.655  0.00  0.00    +0.000 A 
ATOM     23  C   UNK A   0       0.642  16.159  19.837  0.00  0.00    +0.000 A 
ENDBRANCH  13  14
ENDBRANCH  12  13
ENDBRANCH   9  12
ENDBRANCH   4   7
BRANCH   1  25
ATOM     24  N   GLU A   1       3.519   6.580  18.314  0.00  0.00    +0.000 N 
ATOM     25  C   UNK A   0       2.619   6.551  19.354  0.00  0.00    +0.000 C 
ATOM     26  O   UNK A   0       2.351   5.545  19.999  0.00  0.00    +0.000 OA
ATOM     27  H   GLU A   1       3.646   7.419  17.759  0.00  0.00    +0.000 HD
BRANCH  24  28
ATOM     28  CA  GLU A   1       4.164   5.371  17.812  0.00  0.00    +0.000 C 
BRANCH  28  29
ATOM     29  C   GLU A   1       5.096   4.855  18.913  0.00  0.00    +0.000 C 
ATOM     30  O   GLU A   1       6.099   5.455  19.284  0.00  0.00    +0.000 OA
BRANCH  29  31
ATOM     31  OXT GLU A   1       4.733   3.658  19.429  0.00  0.00    +0.000 OA
ATOM     32  HXT GLU A   1       3.897   3.681  19.951  0.00  0.00    +0.000 HD
ENDBRANCH  29  31
ENDBRANCH  28  29
BRANCH  28  33
ATOM     33  CB  GLU A   1       4.956   5.704  16.536  0.00  0.00    +0.000 C 
BRANCH  33  34
ATOM     34  CG  GLU A   1       5.643   4.528  15.844  0.00  0.00    +0.000 C 
BRANCH  34  36
ATOM     35  OE1 GLU A   1       7.877   4.388  16.705  0.00  0.00    +0.000 OA
ATOM     36  CD  GLU A   1       7.135   4.720  15.789  0.00  0.00    +0.000 C 
BRANCH  36  37
ATOM     37  OE2 GLU A   1       7.580   5.306  14.660  0.00  0.00    +0.000 OA
ATOM     38  HE2 GLU A   1       8.412   5.811  14.750  0.00  0.00    +0.000 HD
ENDBRANCH  36  37
ENDBRANCH  34  36
ENDBRANCH  33  34
ENDBRANCH  28  33
ENDBRANCH  24  28
ENDBRANCH   1  25
TORSDOF 12
ENDMDL
MODEL 8
REMARK VINA RESULT:      -7.8      3.427      4.946
REMARK  Name = 
REMARK  12 active torsions:
REMARK  status: ('A' for Active; 'I' for Inactive)
REMARK    1  A    between atoms: CD_2  and  OE2_3
REMARK    2  A    between atoms: CD_2  and  CG_4
REMARK    3  A    between atoms: CG_4  and  CB_5
REMARK    4  A    between atoms: CB_5  and  CA_6
REMARK    5  A    between atoms: CA_6  and  N_7
REMARK    6  A    between atoms: CA_6  and  C_33
REMARK    7  A    between atoms: C_8  and  C_10
REMARK    8  A    between atoms: C_13  and  N_14
REMARK    9  A    between atoms: C_16  and  C_17
REMARK   10  A    between atoms: C_17  and  O_18
REMARK   11  A    between atoms: O_18  and  C_19
REMARK   12  A    between atoms: C_33  and  OXT_35
REMARK                            x       y       z     vdW  Elec       q    Type
REMARK                         _______ _______ _______ _____ _____    ______ ____
ROOT
ATOM      1  C   UNK A   0       2.424   6.994  19.486  0.00  0.00    +0.000 A 
ATOM      2  C   UNK A   0       2.255   7.766  18.326  0.00  0.00    +0.000 A 
ATOM      3  C   UNK A   0       1.508   8.949  18.357  0.00  0.00    +0.000 A 
ATOM      4  C   UNK A   0       0.942   9.377  19.563  0.00  0.00    +0.000 A 
ATOM      5  C   UNK A   0       1.081   8.586  20.717  0.00  0.00    +0.000 A 
ATOM      6  C   UNK A   0       1.805   7.391  20.673  0.00  0.00    +0.000 A 
ENDROOT
BRANCH   4   7
ATOM      7  N   UNK A   0       0.255  10.615  19.650  0.00  0.00    +0.000 N 
ATOM      8  C   UNK A   0      -0.220  11.275  20.763  0.00  0.00    +0.000 A 
ATOM      9  C   UNK A   0      -0.825  12.413  20.268  0.00  0.00    +0.000 A 
ATOM     10  N   UNK A   0      -0.724  12.409  18.903  0.00  0.00    +0.000 NA
ATOM     11  N   UNK A   0      -0.036  11.337  18.542  0.00  0.00    +0.000 NA
BRANCH   9  12
ATOM     12  C   UNK A   0      -1.451  13.571  20.970  0.00  0.00    +0.000 C 
BRANCH  12  13
ATOM     13  O   UNK A   0      -0.479  14.548  21.341  0.00  0.00    +0.000 OA
BRANCH  13  14
ATOM     14  C   UNK A   0      -0.007  15.370  20.349  0.00  0.00    +0.000 A 
ATOM     15  C   UNK A   0       1.366  15.271  20.127  0.00  0.00    +0.000 A 
ATOM     16  C   UNK A   0       1.980  16.009  19.111  0.00  0.00    +0.000 A 
ATOM     17  C   UNK A   0       1.228  16.869  18.300  0.00  0.00    +0.000 A 
ATOM     18  C   UNK A   0       1.819  17.570  17.235  0.00  0.00    +0.000 A 
ATOM     19  C   UNK A   0       1.062  18.433  16.442  0.00  0.00    +0.000 A 
ATOM     20  C   UNK A   0      -0.285  18.631  16.725  0.00  0.00    +0.000 A 
ATOM     21  C   UNK A   0      -0.888  17.934  17.775  0.00  0.00    +0.000 A 
ATOM     22  C   UNK A   0      -0.153  17.025  18.556  0.00  0.00    +0.000 A 
ATOM     23  C   UNK A   0      -0.758  16.260  19.577  0.00  0.00    +0.000 A 
ENDBRANCH  13  14
ENDBRANCH  12  13
ENDBRANCH   9  12
ENDBRANCH   4   7
BRANCH   1  25
ATOM     24  N   GLU A   1       4.185   5.736  18.369  0.00  0.00    +0.000 N 
ATOM     25  C   UNK A   0       3.290   5.785  19.411  0.00  0.00    +0.000 C 
ATOM     26  O   UNK A   0       3.144   4.888  20.232  0.00  0.00    +0.000 OA
ATOM     27  H   GLU A   1       4.211   6.469  17.669  0.00  0.00    +0.000 HD
BRANCH  24  28
ATOM     28  CA  GLU A   1       4.978   4.545  18.083  0.00  0.00    +0.000 C 
BRANCH  28  29
ATOM     29  C   GLU A   1       6.403   5.006  17.763  0.00  0.00    +0.000 C 
ATOM     30  O   GLU A   1       6.681   6.148  17.412  0.00  0.00    +0.000 OA
BRANCH  29  31
ATOM     31  OXT GLU A   1       7.338   4.033  17.874  0.00  0.00    +0.000 OA
ATOM     32  HXT GLU A   1       7.044   3.250  18.396  0.00  0.00    +0.000 HD
ENDBRANCH  29  31
ENDBRANCH  28  29
BRANCH  28  33
ATOM     33  CB  GLU A   1       4.366   3.794  16.889  0.00  0.00    +0.000 C 
BRANCH  33  34
ATOM     34  CG  GLU A   1       2.946   3.266  17.082  0.00  0.00    +0.000 C 
BRANCH  34  36
ATOM     35  OE1 GLU A   1       3.706   1.278  18.189  0.00  0.00    +0.000 OA
ATOM     36  CD  GLU A   1       2.898   2.198  18.144  0.00  0.00    +0.000 C 
BRANCH  36  37
ATOM     37  OE2 GLU A   1       1.884   2.330  19.021  0.00  0.00    +0.000 OA
ATOM     38  HE2 GLU A   1       1.704   1.545  19.574  0.00  0.00    +0.000 HD
ENDBRANCH  36  37
ENDBRANCH  34  36
ENDBRANCH  33  34
ENDBRANCH  28  33
ENDBRANCH  24  28
ENDBRANCH   1  25
TORSDOF 12
ENDMDL
MODEL 9
REMARK VINA RESULT:      -7.7      2.233      3.352
REMARK  Name = 
REMARK  12 active torsions:
REMARK  status: ('A' for Active; 'I' for Inactive)
REMARK    1  A    between atoms: CD_2  and  OE2_3
REMARK    2  A    between atoms: CD_2  and  CG_4
REMARK    3  A    between atoms: CG_4  and  CB_5
REMARK    4  A    between atoms: CB_5  and  CA_6
REMARK    5  A    between atoms: CA_6  and  N_7
REMARK    6  A    between atoms: CA_6  and  C_33
REMARK    7  A    between atoms: C_8  and  C_10
REMARK    8  A    between atoms: C_13  and  N_14
REMARK    9  A    between atoms: C_16  and  C_17
REMARK   10  A    between atoms: C_17  and  O_18
REMARK   11  A    between atoms: O_18  and  C_19
REMARK   12  A    between atoms: C_33  and  OXT_35
REMARK                            x       y       z     vdW  Elec       q    Type
REMARK                         _______ _______ _______ _____ _____    ______ ____
ROOT
ATOM      1  C   UNK A   0       2.535   7.418  18.728  0.00  0.00    +0.000 A 
ATOM      2  C   UNK A   0       2.058   8.511  17.988  0.00  0.00    +0.000 A 
ATOM      3  C   UNK A   0       1.270   9.496  18.596  0.00  0.00    +0.000 A 
ATOM      4  C   UNK A   0       0.974   9.400  19.960  0.00  0.00    +0.000 A 
ATOM      5  C   UNK A   0       1.422   8.286  20.693  0.00  0.00    +0.000 A 
ATOM      6  C   UNK A   0       2.185   7.291  20.074  0.00  0.00    +0.000 A 
ENDROOT
BRANCH   4   7
ATOM      7  N   UNK A   0       0.255  10.424  20.627  0.00  0.00    +0.000 N 
ATOM      8  C   UNK A   0       0.192  11.772  20.349  0.00  0.00    +0.000 A 
ATOM      9  C   UNK A   0      -0.628  12.298  21.327  0.00  0.00    +0.000 A 
ATOM     10  N   UNK A   0      -1.018  11.289  22.166  0.00  0.00    +0.000 NA
ATOM     11  N   UNK A   0      -0.510  10.153  21.712  0.00  0.00    +0.000 NA
BRANCH   9  12
ATOM     12  C   UNK A   0      -1.152  13.681  21.524  0.00  0.00    +0.000 C 
BRANCH  12  13
ATOM     13  O   UNK A   0      -2.230  13.967  20.634  0.00  0.00    +0.000 OA
BRANCH  13  14
ATOM     14  C   UNK A   0      -3.485  13.576  21.025  0.00  0.00    +0.000 A 
ATOM     15  C   UNK A   0      -4.189  12.856  20.061  0.00  0.00    +0.000 A 
ATOM     16  C   UNK A   0      -5.461  12.347  20.337  0.00  0.00    +0.000 A 
ATOM     17  C   UNK A   0      -6.058  12.556  21.587  0.00  0.00    +0.000 A 
ATOM     18  C   UNK A   0      -7.308  11.998  21.902  0.00  0.00    +0.000 A 
ATOM     19  C   UNK A   0      -7.897  12.224  23.146  0.00  0.00    +0.000 A 
ATOM     20  C   UNK A   0      -7.260  13.037  24.076  0.00  0.00    +0.000 A 
ATOM     21  C   UNK A   0      -6.012  13.592  23.781  0.00  0.00    +0.000 A 
ATOM     22  C   UNK A   0      -5.380  13.338  22.551  0.00  0.00    +0.000 A 
ATOM     23  C   UNK A   0      -4.090  13.831  22.259  0.00  0.00    +0.000 A 
ENDBRANCH  13  14
ENDBRANCH  12  13
ENDBRANCH   9  12
ENDBRANCH   4   7
BRANCH   1  25
ATOM     24  N   GLU A   1       3.528   5.196  18.626  0.00  0.00    +0.000 N 
ATOM     25  C   UNK A   0       3.429   6.441  18.048  0.00  0.00    +0.000 C 
ATOM     26  O   UNK A   0       4.056   6.787  17.056  0.00  0.00    +0.000 OA
ATOM     27  H   GLU A   1       3.048   4.985  19.494  0.00  0.00    +0.000 HD
BRANCH  24  28
ATOM     28  CA  GLU A   1       4.485   4.199  18.159  0.00  0.00    +0.000 C 
BRANCH  28  29
ATOM     29  C   GLU A   1       3.993   2.829  18.636  0.00  0.00    +0.000 C 
ATOM     30  O   GLU A   1       3.444   2.648  19.718  0.00  0.00    +0.000 OA
BRANCH  29  31
ATOM     31  OXT GLU A   1       4.240   1.820  17.768  0.00  0.00    +0.000 OA
ATOM     32  HXT GLU A   1       4.875   1.145  18.107  0.00  0.00    +0.000 HD
ENDBRANCH  29  31
ENDBRANCH  28  29
BRANCH  28  33
ATOM     33  CB  GLU A   1       5.876   4.512  18.738  0.00  0.00    +0.000 C 
BRANCH  33  34
ATOM     34  CG  GLU A   1       6.972   4.830  17.722  0.00  0.00    +0.000 C 
BRANCH  34  36
ATOM     35  OE1 GLU A   1       7.402   7.108  17.108  0.00  0.00    +0.000 OA
ATOM     36  CD  GLU A   1       7.529   6.212  17.934  0.00  0.00    +0.000 C 
BRANCH  36  37
ATOM     37  OE2 GLU A   1       8.196   6.373  19.094  0.00  0.00    +0.000 OA
ATOM     38  HE2 GLU A   1       7.641   6.378  19.899  0.00  0.00    +0.000 HD
ENDBRANCH  36  37
ENDBRANCH  34  36
ENDBRANCH  33  34
ENDBRANCH  28  33
ENDBRANCH  24  28
ENDBRANCH   1  25
TORSDOF 12
ENDMDL
