MODEL 1
REMARK VINA RESULT:      -8.7      0.000      0.000
REMARK  Name = 
REMARK  4 active torsions:
REMARK  status: ('A' for Active; 'I' for Inactive)
REMARK    1  A    between atoms: C_2  and  C_19
REMARK    2  A    between atoms: N_3  and  C_4
REMARK    3  A    between atoms: C_7  and  S_8
REMARK    4  A    between atoms: S_8  and  N_11
REMARK                            x       y       z     vdW  Elec       q    Type
REMARK                         _______ _______ _______ _____ _____    ______ ____
ROOT
ATOM      1  C   UNL     1       8.170   7.827  18.457  0.00  0.00    +0.000 A 
ATOM      2  C   UNL     1       7.273   7.976  17.392  0.00  0.00    +0.000 A 
ATOM      3  C   UNL     1       6.462   6.923  16.988  0.00  0.00    +0.000 A 
ATOM      4  C   UNL     1       6.561   5.695  17.636  0.00  0.00    +0.000 A 
ATOM      5  C   UNL     1       7.459   5.514  18.687  0.00  0.00    +0.000 A 
ATOM      6  C   UNL     1       8.274   6.582  19.088  0.00  0.00    +0.000 A 
ENDROOT
BRANCH   1   9
ATOM      7  O   UNL     1       8.073  10.622  17.679  0.00  0.00    +0.000 OA
ATOM      8  C   UNL     1       8.920  10.179  18.450  0.00  0.00    +0.000 C 
ATOM      9  N   UNL     1       8.986   8.882  18.920  0.00  0.00    +0.000 N 
ATOM     10  H   UNL     1       9.567   8.698  19.726  0.00  0.00    +0.000 HD
BRANCH   8  11
ATOM     11  C   UNL     1       9.970  11.122  18.905  0.00  0.00    +0.000 A 
ATOM     12  C   UNL     1      11.020  11.551  18.060  0.00  0.00    +0.000 A 
ATOM     13  C   UNL     1      11.783  12.673  18.405  0.00  0.00    +0.000 A 
ATOM     14  C   UNL     1      11.433  13.349  19.555  0.00  0.00    +0.000 A 
ATOM     15  C   UNL     1      10.451  12.888  20.404  0.00  0.00    +0.000 A 
ATOM     16  C   UNL     1       9.731  11.756  20.131  0.00  0.00    +0.000 A 
ATOM     17  O   UNL     1      10.200  13.754  21.424  0.00  0.00    +0.000 OA
ATOM     18  C   UNL     1      10.868  14.917  20.903  0.00  0.00    +0.000 C 
ATOM     19  O   UNL     1      11.891  14.573  19.941  0.00  0.00    +0.000 OA
ENDBRANCH   8  11
ENDBRANCH   1   9
BRANCH   4  20
ATOM     20  S   UNL     1       5.464   4.397  17.143  0.00  0.00    +0.000 S 
ATOM     21  O   UNL     1       4.141   4.974  17.015  0.00  0.00    +0.000 OA
ATOM     22  O   UNL     1       6.078   3.686  16.044  0.00  0.00    +0.000 OA
BRANCH  20  23
ATOM     23  N   UNL     1       5.424   3.461  18.551  0.00  0.00    +0.000 N 
ATOM     24  C   UNL     1       4.108   3.095  18.904  0.00  0.00    +0.000 A 
ATOM     25  N   UNL     1       3.520   3.734  19.881  0.00  0.00    +0.000 NA
ATOM     26  C   UNL     1       2.246   3.224  20.039  0.00  0.00    +0.000 A 
ATOM     27  C   UNL     1       1.941   2.127  19.260  0.00  0.00    +0.000 A 
ATOM     28  S   UNL     1       3.273   1.759  18.243  0.00  0.00    +0.000 S 
ATOM     29  H   UNL     1       5.816   4.048  19.286  0.00  0.00    +0.000 HD
ENDBRANCH  20  23
ENDBRANCH   4  20
TORSDOF 4
ENDMDL
MODEL 2
REMARK VINA RESULT:      -8.5      1.705      2.197
REMARK  Name = 
REMARK  4 active torsions:
REMARK  status: ('A' for Active; 'I' for Inactive)
REMARK    1  A    between atoms: C_2  and  C_19
REMARK    2  A    between atoms: N_3  and  C_4
REMARK    3  A    between atoms: C_7  and  S_8
REMARK    4  A    between atoms: S_8  and  N_11
REMARK                            x       y       z     vdW  Elec       q    Type
REMARK                         _______ _______ _______ _____ _____    ______ ____
ROOT
ATOM      1  C   UNL     1       7.387   7.971  17.631  0.00  0.00    +0.000 A 
ATOM      2  C   UNL     1       7.887   6.837  18.282  0.00  0.00    +0.000 A 
ATOM      3  C   UNL     1       7.117   5.686  18.407  0.00  0.00    +0.000 A 
ATOM      4  C   UNL     1       5.821   5.673  17.899  0.00  0.00    +0.000 A 
ATOM      5  C   UNL     1       5.292   6.795  17.262  0.00  0.00    +0.000 A 
ATOM      6  C   UNL     1       6.077   7.950  17.141  0.00  0.00    +0.000 A 
ENDROOT
BRANCH   1   9
ATOM      7  O   UNL     1       8.938   9.402  19.624  0.00  0.00    +0.000 OA
ATOM      8  C   UNL     1       8.810   9.805  18.472  0.00  0.00    +0.000 C 
ATOM      9  N   UNL     1       8.150   9.146  17.454  0.00  0.00    +0.000 N 
ATOM     10  H   UNL     1       8.317   9.449  16.504  0.00  0.00    +0.000 HD
BRANCH   8  11
ATOM     11  C   UNL     1       9.409  11.123  18.153  0.00  0.00    +0.000 A 
ATOM     12  C   UNL     1       8.641  12.206  17.666  0.00  0.00    +0.000 A 
ATOM     13  C   UNL     1       9.164  13.505  17.693  0.00  0.00    +0.000 A 
ATOM     14  C   UNL     1      10.414  13.673  18.253  0.00  0.00    +0.000 A 
ATOM     15  C   UNL     1      11.180  12.607  18.666  0.00  0.00    +0.000 A 
ATOM     16  C   UNL     1      10.726  11.317  18.591  0.00  0.00    +0.000 A 
ATOM     17  O   UNL     1      12.332  13.001  19.274  0.00  0.00    +0.000 OA
ATOM     18  C   UNL     1      12.009  14.386  19.494  0.00  0.00    +0.000 C 
ATOM     19  O   UNL     1      10.996  14.862  18.579  0.00  0.00    +0.000 OA
ENDBRANCH   8  11
ENDBRANCH   1   9
BRANCH   4  20
ATOM     20  S   UNL     1       4.893   4.169  18.013  0.00  0.00    +0.000 S 
ATOM     21  O   UNL     1       5.091   3.444  16.773  0.00  0.00    +0.000 OA
ATOM     22  O   UNL     1       5.186   3.559  19.290  0.00  0.00    +0.000 OA
BRANCH  20  23
ATOM     23  N   UNL     1       3.313   4.765  17.949  0.00  0.00    +0.000 N 
ATOM     24  C   UNL     1       2.476   4.145  18.900  0.00  0.00    +0.000 A 
ATOM     25  N   UNL     1       1.638   3.226  18.495  0.00  0.00    +0.000 NA
ATOM     26  C   UNL     1       0.941   2.752  19.589  0.00  0.00    +0.000 A 
ATOM     27  C   UNL     1       1.177   3.408  20.780  0.00  0.00    +0.000 A 
ATOM     28  S   UNL     1       2.366   4.621  20.537  0.00  0.00    +0.000 S 
ATOM     29  H   UNL     1       2.971   4.550  17.013  0.00  0.00    +0.000 HD
ENDBRANCH  20  23
ENDBRANCH   4  20
TORSDOF 4
ENDMDL
MODEL 3
REMARK VINA RESULT:      -8.4      7.953      9.458
REMARK  Name = 
REMARK  4 active torsions:
REMARK  status: ('A' for Active; 'I' for Inactive)
REMARK    1  A    between atoms: C_2  and  C_19
REMARK    2  A    between atoms: N_3  and  C_4
REMARK    3  A    between atoms: C_7  and  S_8
REMARK    4  A    between atoms: S_8  and  N_11
REMARK                            x       y       z     vdW  Elec       q    Type
REMARK                         _______ _______ _______ _____ _____    ______ ____
ROOT
ATOM      1  C   UNL     1       0.507   9.461  20.511  0.00  0.00    +0.000 A 
ATOM      2  C   UNL     1       0.963   8.326  21.193  0.00  0.00    +0.000 A 
ATOM      3  C   UNL     1       1.794   7.403  20.570  0.00  0.00    +0.000 A 
ATOM      4  C   UNL     1       2.157   7.599  19.241  0.00  0.00    +0.000 A 
ATOM      5  C   UNL     1       1.702   8.710  18.532  0.00  0.00    +0.000 A 
ATOM      6  C   UNL     1       0.864   9.636  19.170  0.00  0.00    +0.000 A 
ENDROOT
BRANCH   1   9
ATOM      7  O   UNL     1       1.287  12.091  21.460  0.00  0.00    +0.000 OA
ATOM      8  C   UNL     1       0.153  11.645  21.604  0.00  0.00    +0.000 C 
ATOM      9  N   UNL     1      -0.310  10.438  21.119  0.00  0.00    +0.000 N 
ATOM     10  H   UNL     1      -1.310  10.291  21.087  0.00  0.00    +0.000 HD
BRANCH   8  11
ATOM     11  C   UNL     1      -0.799  12.477  22.380  0.00  0.00    +0.000 A 
ATOM     12  C   UNL     1      -0.882  13.880  22.223  0.00  0.00    +0.000 A 
ATOM     13  C   UNL     1      -1.994  14.576  22.712  0.00  0.00    +0.000 A 
ATOM     14  C   UNL     1      -3.001  13.834  23.293  0.00  0.00    +0.000 A 
ATOM     15  C   UNL     1      -2.885  12.478  23.498  0.00  0.00    +0.000 A 
ATOM     16  C   UNL     1      -1.781  11.776  23.094  0.00  0.00    +0.000 A 
ATOM     17  O   UNL     1      -4.027  11.929  23.994  0.00  0.00    +0.000 OA
ATOM     18  C   UNL     1      -4.933  13.016  23.732  0.00  0.00    +0.000 C 
ATOM     19  O   UNL     1      -4.246  14.283  23.619  0.00  0.00    +0.000 OA
ENDBRANCH   8  11
ENDBRANCH   1   9
BRANCH   4  20
ATOM     20  S   UNL     1       3.273   6.441  18.499  0.00  0.00    +0.000 S 
ATOM     21  O   UNL     1       3.987   7.141  17.449  0.00  0.00    +0.000 OA
ATOM     22  O   UNL     1       3.983   5.762  19.560  0.00  0.00    +0.000 OA
BRANCH  20  23
ATOM     23  N   UNL     1       2.188   5.413  17.711  0.00  0.00    +0.000 N 
ATOM     24  C   UNL     1       2.174   4.123  18.281  0.00  0.00    +0.000 A 
ATOM     25  N   UNL     1       2.801   3.156  17.662  0.00  0.00    +0.000 NA
ATOM     26  C   UNL     1       2.669   1.998  18.403  0.00  0.00    +0.000 A 
ATOM     27  C   UNL     1       1.842   2.084  19.504  0.00  0.00    +0.000 A 
ATOM     28  S   UNL     1       1.259   3.691  19.657  0.00  0.00    +0.000 S 
ATOM     29  H   UNL     1       2.514   5.348  16.747  0.00  0.00    +0.000 HD
ENDBRANCH  20  23
ENDBRANCH   4  20
TORSDOF 4
ENDMDL
MODEL 4
REMARK VINA RESULT:      -8.4      1.860      2.153
REMARK  Name = 
REMARK  4 active torsions:
REMARK  status: ('A' for Active; 'I' for Inactive)
REMARK    1  A    between atoms: C_2  and  C_19
REMARK    2  A    between atoms: N_3  and  C_4
REMARK    3  A    between atoms: C_7  and  S_8
REMARK    4  A    between atoms: S_8  and  N_11
REMARK                            x       y       z     vdW  Elec       q    Type
REMARK                         _______ _______ _______ _____ _____    ______ ____
ROOT
ATOM      1  C   UNL     1       7.908   8.222  17.894  0.00  0.00    +0.000 A 
ATOM      2  C   UNL     1       8.257   7.103  18.659  0.00  0.00    +0.000 A 
ATOM      3  C   UNL     1       7.449   5.972  18.681  0.00  0.00    +0.000 A 
ATOM      4  C   UNL     1       6.264   5.964  17.951  0.00  0.00    +0.000 A 
ATOM      5  C   UNL     1       5.884   7.073  17.196  0.00  0.00    +0.000 A 
ATOM      6  C   UNL     1       6.705   8.209  17.180  0.00  0.00    +0.000 A 
ENDROOT
BRANCH   1   9
ATOM      7  O   UNL     1       8.870   9.867  20.084  0.00  0.00    +0.000 OA
ATOM      8  C   UNL     1       9.082  10.144  18.907  0.00  0.00    +0.000 C 
ATOM      9  N   UNL     1       8.719   9.376  17.818  0.00  0.00    +0.000 N 
ATOM     10  H   UNL     1       9.155   9.577  16.928  0.00  0.00    +0.000 HD
BRANCH   8  11
ATOM     11  C   UNL     1       9.779  11.424  18.634  0.00  0.00    +0.000 A 
ATOM     12  C   UNL     1      10.782  11.544  17.645  0.00  0.00    +0.000 A 
ATOM     13  C   UNL     1      11.174  12.810  17.194  0.00  0.00    +0.000 A 
ATOM     14  C   UNL     1      10.509  13.902  17.713  0.00  0.00    +0.000 A 
ATOM     15  C   UNL     1       9.579  13.780  18.720  0.00  0.00    +0.000 A 
ATOM     16  C   UNL     1       9.222  12.562  19.233  0.00  0.00    +0.000 A 
ATOM     17  O   UNL     1       8.977  14.965  19.016  0.00  0.00    +0.000 OA
ATOM     18  C   UNL     1       9.381  15.719  17.859  0.00  0.00    +0.000 C 
ATOM     19  O   UNL     1      10.576  15.181  17.248  0.00  0.00    +0.000 OA
ENDBRANCH   8  11
ENDBRANCH   1   9
BRANCH   4  20
ATOM     20  S   UNL     1       5.294   4.483  17.946  0.00  0.00    +0.000 S 
ATOM     21  O   UNL     1       5.572   3.790  16.704  0.00  0.00    +0.000 OA
ATOM     22  O   UNL     1       5.471   3.828  19.223  0.00  0.00    +0.000 OA
BRANCH  20  23
ATOM     23  N   UNL     1       3.738   5.122  17.778  0.00  0.00    +0.000 N 
ATOM     24  C   UNL     1       2.766   4.317  18.408  0.00  0.00    +0.000 A 
ATOM     25  N   UNL     1       2.014   3.546  17.666  0.00  0.00    +0.000 NA
ATOM     26  C   UNL     1       1.155   2.845  18.489  0.00  0.00    +0.000 A 
ATOM     27  C   UNL     1       1.190   3.190  19.825  0.00  0.00    +0.000 A 
ATOM     28  S   UNL     1       2.390   4.391  20.072  0.00  0.00    +0.000 S 
ATOM     29  H   UNL     1       3.553   5.147  16.776  0.00  0.00    +0.000 HD
ENDBRANCH  20  23
ENDBRANCH   4  20
TORSDOF 4
ENDMDL
MODEL 5
REMARK VINA RESULT:      -8.4      8.201      9.719
REMARK  Name = 
REMARK  4 active torsions:
REMARK  status: ('A' for Active; 'I' for Inactive)
REMARK    1  A    between atoms: C_2  and  C_19
REMARK    2  A    between atoms: N_3  and  C_4
REMARK    3  A    between atoms: C_7  and  S_8
REMARK    4  A    between atoms: S_8  and  N_11
REMARK                            x       y       z     vdW  Elec       q    Type
REMARK                         _______ _______ _______ _____ _____    ______ ____
ROOT
ATOM      1  C   UNL     1       0.251   9.846  20.473  0.00  0.00    +0.000 A 
ATOM      2  C   UNL     1       0.614   9.970  19.127  0.00  0.00    +0.000 A 
ATOM      3  C   UNL     1       1.439   9.031  18.519  0.00  0.00    +0.000 A 
ATOM      4  C   UNL     1       1.930   7.966  19.269  0.00  0.00    +0.000 A 
ATOM      5  C   UNL     1       1.599   7.828  20.616  0.00  0.00    +0.000 A 
ATOM      6  C   UNL     1       0.766   8.781  21.220  0.00  0.00    +0.000 A 
ENDROOT
BRANCH   1   9
ATOM      7  O   UNL     1       0.926  12.431  21.609  0.00  0.00    +0.000 OA
ATOM      8  C   UNL     1      -0.199  11.946  21.691  0.00  0.00    +0.000 C 
ATOM      9  N   UNL     1      -0.612  10.760  21.117  0.00  0.00    +0.000 N 
ATOM     10  H   UNL     1      -1.605  10.587  21.044  0.00  0.00    +0.000 HD
BRANCH   8  11
ATOM     11  C   UNL     1      -1.197  12.700  22.488  0.00  0.00    +0.000 A 
ATOM     12  C   UNL     1      -1.405  14.088  22.323  0.00  0.00    +0.000 A 
ATOM     13  C   UNL     1      -2.559  14.691  22.840  0.00  0.00    +0.000 A 
ATOM     14  C   UNL     1      -3.481  13.870  23.455  0.00  0.00    +0.000 A 
ATOM     15  C   UNL     1      -3.242  12.531  23.667  0.00  0.00    +0.000 A 
ATOM     16  C   UNL     1      -2.093  11.923  23.235  0.00  0.00    +0.000 A 
ATOM     17  O   UNL     1      -4.318  11.891  24.200  0.00  0.00    +0.000 OA
ATOM     18  C   UNL     1      -5.321  12.892  23.957  0.00  0.00    +0.000 C 
ATOM     19  O   UNL     1      -4.750  14.213  23.814  0.00  0.00    +0.000 OA
ENDBRANCH   8  11
ENDBRANCH   1   9
BRANCH   4  20
ATOM     20  S   UNL     1       2.920   6.750  18.446  0.00  0.00    +0.000 S 
ATOM     21  O   UNL     1       2.019   5.750  17.910  0.00  0.00    +0.000 OA
ATOM     22  O   UNL     1       3.861   7.441  17.594  0.00  0.00    +0.000 OA
BRANCH  20  23
ATOM     23  N   UNL     1       3.686   6.019  19.764  0.00  0.00    +0.000 N 
ATOM     24  C   UNL     1       3.630   4.612  19.694  0.00  0.00    +0.000 A 
ATOM     25  N   UNL     1       2.771   3.979  20.451  0.00  0.00    +0.000 NA
ATOM     26  C   UNL     1       2.881   2.624  20.206  0.00  0.00    +0.000 A 
ATOM     27  C   UNL     1       3.904   2.250  19.359  0.00  0.00    +0.000 A 
ATOM     28  S   UNL     1       4.719   3.651  18.795  0.00  0.00    +0.000 S 
ATOM     29  H   UNL     1       3.179   6.333  20.591  0.00  0.00    +0.000 HD
ENDBRANCH  20  23
ENDBRANCH   4  20
TORSDOF 4
ENDMDL
MODEL 6
REMARK VINA RESULT:      -8.4      7.964      9.443
REMARK  Name = 
REMARK  4 active torsions:
REMARK  status: ('A' for Active; 'I' for Inactive)
REMARK    1  A    between atoms: C_2  and  C_19
REMARK    2  A    between atoms: N_3  and  C_4
REMARK    3  A    between atoms: C_7  and  S_8
REMARK    4  A    between atoms: S_8  and  N_11
REMARK                            x       y       z     vdW  Elec       q    Type
REMARK                         _______ _______ _______ _____ _____    ______ ____
ROOT
ATOM      1  C   UNL     1       0.558   9.687  20.116  0.00  0.00    +0.000 A 
ATOM      2  C   UNL     1       1.024   9.717  18.796  0.00  0.00    +0.000 A 
ATOM      3  C   UNL     1       1.855   8.714  18.308  0.00  0.00    +0.000 A 
ATOM      4  C   UNL     1       2.247   7.680  19.153  0.00  0.00    +0.000 A 
ATOM      5  C   UNL     1       1.812   7.636  20.478  0.00  0.00    +0.000 A 
ATOM      6  C   UNL     1       0.975   8.652  20.960  0.00  0.00    +0.000 A 
ENDROOT
BRANCH   1   9
ATOM      7  O   UNL     1       1.265  12.172  21.441  0.00  0.00    +0.000 OA
ATOM      8  C   UNL     1       0.103  11.796  21.315  0.00  0.00    +0.000 C 
ATOM      9  N   UNL     1      -0.314  10.667  20.639  0.00  0.00    +0.000 N 
ATOM     10  H   UNL     1      -1.292  10.593  20.395  0.00  0.00    +0.000 HD
BRANCH   8  11
ATOM     11  C   UNL     1      -0.942  12.627  21.961  0.00  0.00    +0.000 A 
ATOM     12  C   UNL     1      -1.329  13.888  21.450  0.00  0.00    +0.000 A 
ATOM     13  C   UNL     1      -2.523  14.481  21.878  0.00  0.00    +0.000 A 
ATOM     14  C   UNL     1      -3.306  13.765  22.760  0.00  0.00    +0.000 A 
ATOM     15  C   UNL     1      -2.893  12.568  23.299  0.00  0.00    +0.000 A 
ATOM     16  C   UNL     1      -1.699  11.993  22.955  0.00  0.00    +0.000 A 
ATOM     17  O   UNL     1      -3.854  11.986  24.067  0.00  0.00    +0.000 OA
ATOM     18  C   UNL     1      -4.985  12.770  23.647  0.00  0.00    +0.000 C 
ATOM     19  O   UNL     1      -4.590  14.055  23.114  0.00  0.00    +0.000 OA
ENDBRANCH   8  11
ENDBRANCH   1   9
BRANCH   4  20
ATOM     20  S   UNL     1       3.247   6.384  18.481  0.00  0.00    +0.000 S 
ATOM     21  O   UNL     1       3.953   6.930  17.339  0.00  0.00    +0.000 OA
ATOM     22  O   UNL     1       3.962   5.759  19.571  0.00  0.00    +0.000 OA
BRANCH  20  23
ATOM     23  N   UNL     1       2.059   5.364  17.842  0.00  0.00    +0.000 N 
ATOM     24  C   UNL     1       1.996   4.133  18.528  0.00  0.00    +0.000 A 
ATOM     25  N   UNL     1       2.528   3.076  17.971  0.00  0.00    +0.000 NA
ATOM     26  C   UNL     1       2.363   2.000  18.821  0.00  0.00    +0.000 A 
ATOM     27  C   UNL     1       1.602   2.237  19.948  0.00  0.00    +0.000 A 
ATOM     28  S   UNL     1       1.130   3.887  19.980  0.00  0.00    +0.000 S 
ATOM     29  H   UNL     1       2.329   5.193  16.874  0.00  0.00    +0.000 HD
ENDBRANCH  20  23
ENDBRANCH   4  20
TORSDOF 4
ENDMDL
MODEL 7
REMARK VINA RESULT:      -8.3      7.950      9.137
REMARK  Name = 
REMARK  4 active torsions:
REMARK  status: ('A' for Active; 'I' for Inactive)
REMARK    1  A    between atoms: C_2  and  C_19
REMARK    2  A    between atoms: N_3  and  C_4
REMARK    3  A    between atoms: C_7  and  S_8
REMARK    4  A    between atoms: S_8  and  N_11
REMARK                            x       y       z     vdW  Elec       q    Type
REMARK                         _______ _______ _______ _____ _____    ______ ____
ROOT
ATOM      1  C   UNL     1       0.466   9.590  20.367  0.00  0.00    +0.000 A 
ATOM      2  C   UNL     1       0.948   9.692  19.056  0.00  0.00    +0.000 A 
ATOM      3  C   UNL     1       1.798   8.726  18.530  0.00  0.00    +0.000 A 
ATOM      4  C   UNL     1       2.194   7.656  19.328  0.00  0.00    +0.000 A 
ATOM      5  C   UNL     1       1.744   7.541  20.643  0.00  0.00    +0.000 A 
ATOM      6  C   UNL     1       0.887   8.521  21.164  0.00  0.00    +0.000 A 
ENDROOT
BRANCH   1   9
ATOM      7  O   UNL     1       1.104  12.181  21.511  0.00  0.00    +0.000 OA
ATOM      8  C   UNL     1      -0.034  11.720  21.512  0.00  0.00    +0.000 C 
ATOM      9  N   UNL     1      -0.425  10.532  20.926  0.00  0.00    +0.000 N 
ATOM     10  H   UNL     1      -1.413  10.378  20.778  0.00  0.00    +0.000 HD
BRANCH   8  11
ATOM     11  C   UNL     1      -1.076  12.507  22.215  0.00  0.00    +0.000 A 
ATOM     12  C   UNL     1      -2.303  11.939  22.629  0.00  0.00    +0.000 A 
ATOM     13  C   UNL     1      -3.104  12.606  23.564  0.00  0.00    +0.000 A 
ATOM     14  C   UNL     1      -2.620  13.787  24.086  0.00  0.00    +0.000 A 
ATOM     15  C   UNL     1      -1.455  14.364  23.632  0.00  0.00    +0.000 A 
ATOM     16  C   UNL     1      -0.681  13.773  22.669  0.00  0.00    +0.000 A 
ATOM     17  O   UNL     1      -1.111  15.470  24.347  0.00  0.00    +0.000 OA
ATOM     18  C   UNL     1      -1.985  15.290  25.476  0.00  0.00    +0.000 C 
ATOM     19  O   UNL     1      -3.126  14.462  25.157  0.00  0.00    +0.000 OA
ENDBRANCH   8  11
ENDBRANCH   1   9
BRANCH   4  20
ATOM     20  S   UNL     1       3.220   6.407  18.605  0.00  0.00    +0.000 S 
ATOM     21  O   UNL     1       4.020   7.046  17.579  0.00  0.00    +0.000 OA
ATOM     22  O   UNL     1       3.838   5.661  19.678  0.00  0.00    +0.000 OA
BRANCH  20  23
ATOM     23  N   UNL     1       2.067   5.485  17.782  0.00  0.00    +0.000 N 
ATOM     24  C   UNL     1       2.047   4.147  18.224  0.00  0.00    +0.000 A 
ATOM     25  N   UNL     1       2.614   3.231  17.482  0.00  0.00    +0.000 NA
ATOM     26  C   UNL     1       2.488   2.010  18.114  0.00  0.00    +0.000 A 
ATOM     27  C   UNL     1       1.722   2.006  19.262  0.00  0.00    +0.000 A 
ATOM     28  S   UNL     1       1.193   3.603  19.600  0.00  0.00    +0.000 S 
ATOM     29  H   UNL     1       2.341   5.509  16.800  0.00  0.00    +0.000 HD
ENDBRANCH  20  23
ENDBRANCH   4  20
TORSDOF 4
ENDMDL
MODEL 8
REMARK VINA RESULT:      -8.2      7.312      9.312
REMARK  Name = 
REMARK  4 active torsions:
REMARK  status: ('A' for Active; 'I' for Inactive)
REMARK    1  A    between atoms: C_2  and  C_19
REMARK    2  A    between atoms: N_3  and  C_4
REMARK    3  A    between atoms: C_7  and  S_8
REMARK    4  A    between atoms: S_8  and  N_11
REMARK                            x       y       z     vdW  Elec       q    Type
REMARK                         _______ _______ _______ _____ _____    ______ ____
ROOT
ATOM      1  C   UNL     1       1.094   8.653  20.265  0.00  0.00    +0.000 A 
ATOM      2  C   UNL     1       1.088   7.503  21.064  0.00  0.00    +0.000 A 
ATOM      3  C   UNL     1       1.774   6.359  20.675  0.00  0.00    +0.000 A 
ATOM      4  C   UNL     1       2.455   6.350  19.461  0.00  0.00    +0.000 A 
ATOM      5  C   UNL     1       2.461   7.474  18.637  0.00  0.00    +0.000 A 
ATOM      6  C   UNL     1       1.766   8.624  19.038  0.00  0.00    +0.000 A 
ENDROOT
BRANCH   1   9
ATOM      7  O   UNL     1       0.857   9.788  22.926  0.00  0.00    +0.000 OA
ATOM      8  C   UNL     1       0.313  10.286  21.944  0.00  0.00    +0.000 C 
ATOM      9  N   UNL     1       0.438   9.846  20.641  0.00  0.00    +0.000 N 
ATOM     10  H   UNL     1       0.150  10.469  19.899  0.00  0.00    +0.000 HD
BRANCH   8  11
ATOM     11  C   UNL     1      -0.563  11.458  22.185  0.00  0.00    +0.000 A 
ATOM     12  C   UNL     1      -0.575  12.583  21.329  0.00  0.00    +0.000 A 
ATOM     13  C   UNL     1      -1.629  13.503  21.395  0.00  0.00    +0.000 A 
ATOM     14  C   UNL     1      -2.654  13.231  22.278  0.00  0.00    +0.000 A 
ATOM     15  C   UNL     1      -2.604  12.167  23.150  0.00  0.00    +0.000 A 
ATOM     16  C   UNL     1      -1.555  11.287  23.161  0.00  0.00    +0.000 A 
ATOM     17  O   UNL     1      -3.755  12.026  23.862  0.00  0.00    +0.000 OA
ATOM     18  C   UNL     1      -4.610  12.881  23.081  0.00  0.00    +0.000 C 
ATOM     19  O   UNL     1      -3.860  13.864  22.331  0.00  0.00    +0.000 OA
ENDBRANCH   8  11
ENDBRANCH   1   9
BRANCH   4  20
ATOM     20  S   UNL     1       3.376   4.901  19.029  0.00  0.00    +0.000 S 
ATOM     21  O   UNL     1       3.007   3.859  19.967  0.00  0.00    +0.000 OA
ATOM     22  O   UNL     1       3.252   4.701  17.603  0.00  0.00    +0.000 OA
BRANCH  20  23
ATOM     23  N   UNL     1       4.940   5.376  19.463  0.00  0.00    +0.000 N 
ATOM     24  C   UNL     1       5.822   5.358  18.362  0.00  0.00    +0.000 A 
ATOM     25  N   UNL     1       6.667   4.366  18.252  0.00  0.00    +0.000 NA
ATOM     26  C   UNL     1       7.411   4.546  17.103  0.00  0.00    +0.000 A 
ATOM     27  C   UNL     1       7.198   5.733  16.432  0.00  0.00    +0.000 A 
ATOM     28  S   UNL     1       5.974   6.630  17.233  0.00  0.00    +0.000 S 
ATOM     29  H   UNL     1       5.256   4.697  20.155  0.00  0.00    +0.000 HD
ENDBRANCH  20  23
ENDBRANCH   4  20
TORSDOF 4
ENDMDL
MODEL 9
REMARK VINA RESULT:      -8.2      1.382      1.487
REMARK  Name = 
REMARK  4 active torsions:
REMARK  status: ('A' for Active; 'I' for Inactive)
REMARK    1  A    between atoms: C_2  and  C_19
REMARK    2  A    between atoms: N_3  and  C_4
REMARK    3  A    between atoms: C_7  and  S_8
REMARK    4  A    between atoms: S_8  and  N_11
REMARK                            x       y       z     vdW  Elec       q    Type
REMARK                         _______ _______ _______ _____ _____    ______ ____
ROOT
ATOM      1  C   UNL     1       7.921   7.295  18.374  0.00  0.00    +0.000 A 
ATOM      2  C   UNL     1       7.241   7.290  17.150  0.00  0.00    +0.000 A 
ATOM      3  C   UNL     1       6.382   6.251  16.813  0.00  0.00    +0.000 A 
ATOM      4  C   UNL     1       6.215   5.189  17.696  0.00  0.00    +0.000 A 
ATOM      5  C   UNL     1       6.894   5.159  18.914  0.00  0.00    +0.000 A 
ATOM      6  C   UNL     1       7.758   6.212  19.245  0.00  0.00    +0.000 A 
ENDROOT
BRANCH   1   9
ATOM      7  O   UNL     1       7.628  10.127  17.808  0.00  0.00    +0.000 OA
ATOM      8  C   UNL     1       8.601   9.668  18.401  0.00  0.00    +0.000 C 
ATOM      9  N   UNL     1       8.775   8.348  18.767  0.00  0.00    +0.000 N 
ATOM     10  H   UNL     1       9.485   8.135  19.455  0.00  0.00    +0.000 HD
BRANCH   8  11
ATOM     11  C   UNL     1       9.688  10.618  18.741  0.00  0.00    +0.000 A 
ATOM     12  C   UNL     1      10.574  11.134  17.768  0.00  0.00    +0.000 A 
ATOM     13  C   UNL     1      11.356  12.259  18.059  0.00  0.00    +0.000 A 
ATOM     14  C   UNL     1      11.181  12.852  19.292  0.00  0.00    +0.000 A 
ATOM     15  C   UNL     1      10.363  12.306  20.256  0.00  0.00    +0.000 A 
ATOM     16  C   UNL     1       9.636  11.168  20.029  0.00  0.00    +0.000 A 
ATOM     17  O   UNL     1      10.260  13.099  21.357  0.00  0.00    +0.000 OA
ATOM     18  C   UNL     1      10.805  14.314  20.813  0.00  0.00    +0.000 C 
ATOM     19  O   UNL     1      11.666  14.066  19.678  0.00  0.00    +0.000 OA
ENDBRANCH   8  11
ENDBRANCH   1   9
BRANCH   4  20
ATOM     20  S   UNL     1       5.060   3.917  17.267  0.00  0.00    +0.000 S 
ATOM     21  O   UNL     1       5.365   3.495  15.915  0.00  0.00    +0.000 OA
ATOM     22  O   UNL     1       5.018   2.966  18.355  0.00  0.00    +0.000 OA
BRANCH  20  23
ATOM     23  N   UNL     1       3.629   4.810  17.158  0.00  0.00    +0.000 N 
ATOM     24  C   UNL     1       2.669   4.387  18.101  0.00  0.00    +0.000 A 
ATOM     25  N   UNL     1       1.675   3.642  17.694  0.00  0.00    +0.000 NA
ATOM     26  C   UNL     1       0.878   3.338  18.780  0.00  0.00    +0.000 A 
ATOM     27  C   UNL     1       1.217   3.960  19.964  0.00  0.00    +0.000 A 
ATOM     28  S   UNL     1       2.625   4.910  19.727  0.00  0.00    +0.000 S 
ATOM     29  H   UNL     1       3.269   4.646  16.218  0.00  0.00    +0.000 HD
ENDBRANCH  20  23
ENDBRANCH   4  20
TORSDOF 4
ENDMDL
