MODEL 1
REMARK VINA RESULT:      -6.2      0.000      0.000
REMARK  Name = 
REMARK  9 active torsions:
REMARK  status: ('A' for Active; 'I' for Inactive)
REMARK    1  A    between atoms: C_1  and  O_2
REMARK    2  A    between atoms: O_2  and  C_3
REMARK    3  A    between atoms: C_3  and  C_4
REMARK    4  A    between atoms: C_4  and  C_5
REMARK    5  A    between atoms: C_5  and  N_6
REMARK    6  A    between atoms: N_6  and  C_7
REMARK    7  A    between atoms: C_7  and  C_8
REMARK    8  A    between atoms: C_12  and  S_13
REMARK    9  A    between atoms: S_13  and  N_14
REMARK                            x       y       z     vdW  Elec       q    Type
REMARK                         _______ _______ _______ _____ _____    ______ ____
ROOT
ATOM      1  C   UNL     1       6.997   7.081  17.805  0.00  0.00    +0.000 A 
ATOM      2  C   UNL     1       5.755   6.855  17.190  0.00  0.00    +0.000 A 
ATOM      3  C   UNL     1       5.236   5.640  17.645  0.00  0.00    +0.000 A 
ATOM      4  C   UNL     1       4.092   4.879  17.428  0.00  0.00    +0.000 A 
ATOM      5  C   UNL     1       4.251   3.742  18.242  0.00  0.00    +0.000 A 
ATOM      6  O   UNL     1       5.466   3.840  18.921  0.00  0.00    +0.000 OA
ATOM      7  C   UNL     1       6.011   4.998  18.525  0.00  0.00    +0.000 A 
ATOM      8  S   UNL     1       7.429   5.776  18.893  0.00  0.00    +0.000 S 
ENDROOT
BRANCH   5   9
ATOM      9  S   UNL     1       3.217   2.300  18.515  0.00  0.00    +0.000 S 
ATOM     10  O   UNL     1       2.786   2.404  19.889  0.00  0.00    +0.000 OA
ATOM     11  O   UNL     1       2.310   2.277  17.394  0.00  0.00    +0.000 OA
BRANCH   9  12
ATOM     12  N   UNL     1       4.212   0.948  18.396  0.00  0.00    +0.000 NA
ATOM     13  H   UNL     1       4.970   1.085  17.726  0.00  0.00    +0.000 HD
ATOM     14  H   UNL     1       3.682   0.089  18.258  0.00  0.00    +0.000 HD
ENDBRANCH   9  12
ENDBRANCH   5   9
BRANCH   1  15
ATOM     15  C   UNL     1       7.979   8.214  17.654  0.00  0.00    +0.000 C 
BRANCH  15  16
ATOM     16  N   UNL     1       8.788   8.374  18.863  0.00  0.00    +0.000 NA
ATOM     17  H   UNL     1       8.340   7.877  19.630  0.00  0.00    +0.000 HD
BRANCH  16  18
ATOM     18  C   UNL     1       8.909   9.794  19.216  0.00  0.00    +0.000 C 
BRANCH  18  19
ATOM     19  C   UNL     1       9.319  10.618  17.992  0.00  0.00    +0.000 C 
BRANCH  19  20
ATOM     20  C   UNL     1      10.205  11.797  18.385  0.00  0.00    +0.000 C 
BRANCH  20  22
ATOM     21  C   UNL     1      12.116  11.975  19.756  0.00  0.00    +0.000 C 
ATOM     22  O   UNL     1      11.531  11.330  18.632  0.00  0.00    +0.000 OA
ENDBRANCH  20  22
ENDBRANCH  19  20
ENDBRANCH  18  19
ENDBRANCH  16  18
ENDBRANCH  15  16
ENDBRANCH   1  15
TORSDOF 8
ENDMDL
MODEL 2
REMARK VINA RESULT:      -6.1      4.837      7.412
REMARK  Name = 
REMARK  9 active torsions:
REMARK  status: ('A' for Active; 'I' for Inactive)
REMARK    1  A    between atoms: C_1  and  O_2
REMARK    2  A    between atoms: O_2  and  C_3
REMARK    3  A    between atoms: C_3  and  C_4
REMARK    4  A    between atoms: C_4  and  C_5
REMARK    5  A    between atoms: C_5  and  N_6
REMARK    6  A    between atoms: N_6  and  C_7
REMARK    7  A    between atoms: C_7  and  C_8
REMARK    8  A    between atoms: C_12  and  S_13
REMARK    9  A    between atoms: S_13  and  N_14
REMARK                            x       y       z     vdW  Elec       q    Type
REMARK                         _______ _______ _______ _____ _____    ______ ____
ROOT
ATOM      1  C   UNL     1       1.947   2.950  18.229  0.00  0.00    +0.000 A 
ATOM      2  C   UNL     1       2.180   4.110  17.473  0.00  0.00    +0.000 A 
ATOM      3  C   UNL     1       3.551   4.224  17.225  0.00  0.00    +0.000 A 
ATOM      4  C   UNL     1       4.392   5.112  16.562  0.00  0.00    +0.000 A 
ATOM      5  C   UNL     1       5.685   4.582  16.731  0.00  0.00    +0.000 A 
ATOM      6  O   UNL     1       5.598   3.407  17.478  0.00  0.00    +0.000 OA
ATOM      7  C   UNL     1       4.295   3.242  17.743  0.00  0.00    +0.000 A 
ATOM      8  S   UNL     1       3.438   2.093  18.576  0.00  0.00    +0.000 S 
ENDROOT
BRANCH   5   9
ATOM      9  S   UNL     1       7.300   5.143  16.180  0.00  0.00    +0.000 S 
ATOM     10  O   UNL     1       8.244   4.276  16.845  0.00  0.00    +0.000 OA
ATOM     11  O   UNL     1       7.186   5.250  14.747  0.00  0.00    +0.000 OA
BRANCH   9  12
ATOM     12  N   UNL     1       7.519   6.695  16.793  0.00  0.00    +0.000 NA
ATOM     13  H   UNL     1       8.457   6.833  17.168  0.00  0.00    +0.000 HD
ATOM     14  H   UNL     1       6.769   6.970  17.426  0.00  0.00    +0.000 HD
ENDBRANCH   9  12
ENDBRANCH   5   9
BRANCH   1  15
ATOM     15  C   UNL     1       0.670   2.375  18.782  0.00  0.00    +0.000 C 
BRANCH  15  16
ATOM     16  N   UNL     1       0.319   3.001  20.058  0.00  0.00    +0.000 NA
ATOM     17  H   UNL     1       0.320   4.012  19.942  0.00  0.00    +0.000 HD
BRANCH  16  18
ATOM     18  C   UNL     1       1.292   2.634  21.095  0.00  0.00    +0.000 C 
BRANCH  18  19
ATOM     19  C   UNL     1       2.028   3.877  21.603  0.00  0.00    +0.000 C 
BRANCH  19  20
ATOM     20  C   UNL     1       1.565   5.135  20.873  0.00  0.00    +0.000 C 
BRANCH  20  22
ATOM     21  C   UNL     1       2.334   7.029  19.697  0.00  0.00    +0.000 C 
ATOM     22  O   UNL     1       2.696   5.795  20.305  0.00  0.00    +0.000 OA
ENDBRANCH  20  22
ENDBRANCH  19  20
ENDBRANCH  18  19
ENDBRANCH  16  18
ENDBRANCH  15  16
ENDBRANCH   1  15
TORSDOF 8
ENDMDL
MODEL 3
REMARK VINA RESULT:      -6.0      4.872      6.162
REMARK  Name = 
REMARK  9 active torsions:
REMARK  status: ('A' for Active; 'I' for Inactive)
REMARK    1  A    between atoms: C_1  and  O_2
REMARK    2  A    between atoms: O_2  and  C_3
REMARK    3  A    between atoms: C_3  and  C_4
REMARK    4  A    between atoms: C_4  and  C_5
REMARK    5  A    between atoms: C_5  and  N_6
REMARK    6  A    between atoms: N_6  and  C_7
REMARK    7  A    between atoms: C_7  and  C_8
REMARK    8  A    between atoms: C_12  and  S_13
REMARK    9  A    between atoms: S_13  and  N_14
REMARK                            x       y       z     vdW  Elec       q    Type
REMARK                         _______ _______ _______ _____ _____    ______ ____
ROOT
ATOM      1  C   UNL     1       3.792   5.162  18.733  0.00  0.00    +0.000 A 
ATOM      2  C   UNL     1       3.708   6.159  17.748  0.00  0.00    +0.000 A 
ATOM      3  C   UNL     1       2.888   7.191  18.213  0.00  0.00    +0.000 A 
ATOM      4  C   UNL     1       2.424   8.412  17.735  0.00  0.00    +0.000 A 
ATOM      5  C   UNL     1       1.617   8.923  18.769  0.00  0.00    +0.000 A 
ATOM      6  O   UNL     1       1.612   8.016  19.829  0.00  0.00    +0.000 OA
ATOM      7  C   UNL     1       2.393   6.999  19.439  0.00  0.00    +0.000 A 
ATOM      8  S   UNL     1       2.851   5.575  20.155  0.00  0.00    +0.000 S 
ENDROOT
BRANCH   5   9
ATOM      9  S   UNL     1       0.666  10.439  18.919  0.00  0.00    +0.000 S 
ATOM     10  O   UNL     1       0.008  10.343  20.201  0.00  0.00    +0.000 OA
ATOM     11  O   UNL     1       1.589  11.491  18.573  0.00  0.00    +0.000 OA
BRANCH   9  12
ATOM     12  N   UNL     1      -0.526  10.394  17.732  0.00  0.00    +0.000 NA
ATOM     13  H   UNL     1      -1.182  11.171  17.814  0.00  0.00    +0.000 HD
ATOM     14  H   UNL     1      -0.968   9.479  17.663  0.00  0.00    +0.000 HD
ENDBRANCH   9  12
ENDBRANCH   5   9
BRANCH   1  15
ATOM     15  C   UNL     1       4.516   3.841  18.738  0.00  0.00    +0.000 C 
BRANCH  15  16
ATOM     16  N   UNL     1       5.953   4.027  18.528  0.00  0.00    +0.000 NA
ATOM     17  H   UNL     1       6.439   3.173  18.791  0.00  0.00    +0.000 HD
BRANCH  16  18
ATOM     18  C   UNL     1       6.453   5.139  19.347  0.00  0.00    +0.000 C 
BRANCH  18  19
ATOM     19  C   UNL     1       7.573   5.882  18.615  0.00  0.00    +0.000 C 
BRANCH  19  20
ATOM     20  C   UNL     1       7.277   6.006  17.123  0.00  0.00    +0.000 C 
BRANCH  20  22
ATOM     21  C   UNL     1       7.864   8.222  17.679  0.00  0.00    +0.000 C 
ATOM     22  O   UNL     1       7.783   7.252  16.642  0.00  0.00    +0.000 OA
ENDBRANCH  20  22
ENDBRANCH  19  20
ENDBRANCH  18  19
ENDBRANCH  16  18
ENDBRANCH  15  16
ENDBRANCH   1  15
TORSDOF 8
ENDMDL
MODEL 4
REMARK VINA RESULT:      -6.0      5.010      6.534
REMARK  Name = 
REMARK  9 active torsions:
REMARK  status: ('A' for Active; 'I' for Inactive)
REMARK    1  A    between atoms: C_1  and  O_2
REMARK    2  A    between atoms: O_2  and  C_3
REMARK    3  A    between atoms: C_3  and  C_4
REMARK    4  A    between atoms: C_4  and  C_5
REMARK    5  A    between atoms: C_5  and  N_6
REMARK    6  A    between atoms: N_6  and  C_7
REMARK    7  A    between atoms: C_7  and  C_8
REMARK    8  A    between atoms: C_12  and  S_13
REMARK    9  A    between atoms: S_13  and  N_14
REMARK                            x       y       z     vdW  Elec       q    Type
REMARK                         _______ _______ _______ _____ _____    ______ ____
ROOT
ATOM      1  C   UNL     1       6.087   4.539  16.558  0.00  0.00    +0.000 A 
ATOM      2  C   UNL     1       4.738   4.239  16.305  0.00  0.00    +0.000 A 
ATOM      3  C   UNL     1       4.036   4.248  17.513  0.00  0.00    +0.000 A 
ATOM      4  C   UNL     1       2.725   4.037  17.926  0.00  0.00    +0.000 A 
ATOM      5  C   UNL     1       2.751   4.211  19.323  0.00  0.00    +0.000 A 
ATOM      6  O   UNL     1       4.054   4.518  19.715  0.00  0.00    +0.000 OA
ATOM      7  C   UNL     1       4.779   4.528  18.588  0.00  0.00    +0.000 A 
ATOM      8  S   UNL     1       6.382   4.805  18.267  0.00  0.00    +0.000 S 
ENDROOT
BRANCH   5   9
ATOM      9  S   UNL     1       1.470   4.102  20.576  0.00  0.00    +0.000 S 
ATOM     10  O   UNL     1       1.137   5.471  20.891  0.00  0.00    +0.000 OA
ATOM     11  O   UNL     1       0.520   3.150  20.054  0.00  0.00    +0.000 OA
BRANCH   9  12
ATOM     12  N   UNL     1       2.174   3.423  21.945  0.00  0.00    +0.000 NA
ATOM     13  H   UNL     1       2.325   2.419  21.844  0.00  0.00    +0.000 HD
ATOM     14  H   UNL     1       1.689   3.689  22.801  0.00  0.00    +0.000 HD
ENDBRANCH   9  12
ENDBRANCH   5   9
BRANCH   1  15
ATOM     15  C   UNL     1       7.266   4.634  15.626  0.00  0.00    +0.000 C 
BRANCH  15  16
ATOM     16  N   UNL     1       6.976   5.524  14.501  0.00  0.00    +0.000 NA
ATOM     17  H   UNL     1       6.003   5.817  14.551  0.00  0.00    +0.000 HD
BRANCH  16  18
ATOM     18  C   UNL     1       7.206   4.832  13.225  0.00  0.00    +0.000 C 
BRANCH  18  19
ATOM     19  C   UNL     1       6.300   3.603  13.113  0.00  0.00    +0.000 C 
BRANCH  19  20
ATOM     20  C   UNL     1       6.378   2.979  11.722  0.00  0.00    +0.000 C 
BRANCH  20  22
ATOM     21  C   UNL     1       4.094   3.212  11.181  0.00  0.00    +0.000 C 
ATOM     22  O   UNL     1       5.155   2.300  11.438  0.00  0.00    +0.000 OA
ENDBRANCH  20  22
ENDBRANCH  19  20
ENDBRANCH  18  19
ENDBRANCH  16  18
ENDBRANCH  15  16
ENDBRANCH   1  15
TORSDOF 8
ENDMDL
MODEL 5
REMARK VINA RESULT:      -5.9      5.269      7.137
REMARK  Name = 
REMARK  9 active torsions:
REMARK  status: ('A' for Active; 'I' for Inactive)
REMARK    1  A    between atoms: C_1  and  O_2
REMARK    2  A    between atoms: O_2  and  C_3
REMARK    3  A    between atoms: C_3  and  C_4
REMARK    4  A    between atoms: C_4  and  C_5
REMARK    5  A    between atoms: C_5  and  N_6
REMARK    6  A    between atoms: N_6  and  C_7
REMARK    7  A    between atoms: C_7  and  C_8
REMARK    8  A    between atoms: C_12  and  S_13
REMARK    9  A    between atoms: S_13  and  N_14
REMARK                            x       y       z     vdW  Elec       q    Type
REMARK                         _______ _______ _______ _____ _____    ______ ____
ROOT
ATOM      1  C   UNL     1       2.509   6.279  19.643  0.00  0.00    +0.000 A 
ATOM      2  C   UNL     1       2.922   6.989  18.504  0.00  0.00    +0.000 A 
ATOM      3  C   UNL     1       3.920   6.260  17.851  0.00  0.00    +0.000 A 
ATOM      4  C   UNL     1       4.707   6.409  16.714  0.00  0.00    +0.000 A 
ATOM      5  C   UNL     1       5.514   5.257  16.676  0.00  0.00    +0.000 A 
ATOM      6  O   UNL     1       5.201   4.451  17.771  0.00  0.00    +0.000 OA
ATOM      7  C   UNL     1       4.238   5.102  18.437  0.00  0.00    +0.000 A 
ATOM      8  S   UNL     1       3.385   4.771  19.820  0.00  0.00    +0.000 S 
ENDROOT
BRANCH   5   9
ATOM      9  S   UNL     1       6.784   4.711  15.530  0.00  0.00    +0.000 S 
ATOM     10  O   UNL     1       6.785   5.696  14.475  0.00  0.00    +0.000 OA
ATOM     11  O   UNL     1       7.931   4.425  16.357  0.00  0.00    +0.000 OA
BRANCH   9  12
ATOM     12  N   UNL     1       6.259   3.256  14.866  0.00  0.00    +0.000 NA
ATOM     13  H   UNL     1       6.981   2.536  14.893  0.00  0.00    +0.000 HD
ATOM     14  H   UNL     1       5.827   3.383  13.952  0.00  0.00    +0.000 HD
ENDBRANCH   9  12
ENDBRANCH   5   9
BRANCH   1  15
ATOM     15  C   UNL     1       1.491   6.620  20.699  0.00  0.00    +0.000 C 
BRANCH  15  16
ATOM     16  N   UNL     1       1.699   7.975  21.214  0.00  0.00    +0.000 NA
ATOM     17  H   UNL     1       1.318   8.034  22.155  0.00  0.00    +0.000 HD
BRANCH  16  18
ATOM     18  C   UNL     1       1.025   8.960  20.358  0.00  0.00    +0.000 C 
BRANCH  18  19
ATOM     19  C   UNL     1       0.287   9.995  21.211  0.00  0.00    +0.000 C 
BRANCH  19  20
ATOM     20  C   UNL     1      -0.089   9.425  22.576  0.00  0.00    +0.000 C 
BRANCH  20  22
ATOM     21  C   UNL     1      -1.456  11.266  23.127  0.00  0.00    +0.000 C 
ATOM     22  O   UNL     1      -0.316  10.497  23.490  0.00  0.00    +0.000 OA
ENDBRANCH  20  22
ENDBRANCH  19  20
ENDBRANCH  18  19
ENDBRANCH  16  18
ENDBRANCH  15  16
ENDBRANCH   1  15
TORSDOF 8
ENDMDL
MODEL 6
REMARK VINA RESULT:      -5.9      5.386      7.161
REMARK  Name = 
REMARK  9 active torsions:
REMARK  status: ('A' for Active; 'I' for Inactive)
REMARK    1  A    between atoms: C_1  and  O_2
REMARK    2  A    between atoms: O_2  and  C_3
REMARK    3  A    between atoms: C_3  and  C_4
REMARK    4  A    between atoms: C_4  and  C_5
REMARK    5  A    between atoms: C_5  and  N_6
REMARK    6  A    between atoms: N_6  and  C_7
REMARK    7  A    between atoms: C_7  and  C_8
REMARK    8  A    between atoms: C_12  and  S_13
REMARK    9  A    between atoms: S_13  and  N_14
REMARK                            x       y       z     vdW  Elec       q    Type
REMARK                         _______ _______ _______ _____ _____    ______ ____
ROOT
ATOM      1  C   UNL     1       5.766   4.338  15.930  0.00  0.00    +0.000 A 
ATOM      2  C   UNL     1       4.380   4.118  15.952  0.00  0.00    +0.000 A 
ATOM      3  C   UNL     1       3.950   4.050  17.280  0.00  0.00    +0.000 A 
ATOM      4  C   UNL     1       2.746   3.857  17.949  0.00  0.00    +0.000 A 
ATOM      5  C   UNL     1       3.078   3.906  19.316  0.00  0.00    +0.000 A 
ATOM      6  O   UNL     1       4.450   4.124  19.440  0.00  0.00    +0.000 OA
ATOM      7  C   UNL     1       4.919   4.203  18.188  0.00  0.00    +0.000 A 
ATOM      8  S   UNL     1       6.432   4.441  17.550  0.00  0.00    +0.000 S 
ENDROOT
BRANCH   5   9
ATOM      9  S   UNL     1       2.087   3.741  20.804  0.00  0.00    +0.000 S 
ATOM     10  O   UNL     1       2.721   2.688  21.562  0.00  0.00    +0.000 OA
ATOM     11  O   UNL     1       1.923   5.088  21.292  0.00  0.00    +0.000 OA
BRANCH   9  12
ATOM     12  N   UNL     1       0.572   3.182  20.330  0.00  0.00    +0.000 NA
ATOM     13  H   UNL     1      -0.137   3.914  20.361  0.00  0.00    +0.000 HD
ATOM     14  H   UNL     1       0.309   2.323  20.811  0.00  0.00    +0.000 HD
ENDBRANCH   9  12
ENDBRANCH   5   9
BRANCH   1  15
ATOM     15  C   UNL     1       6.725   4.467  14.776  0.00  0.00    +0.000 C 
BRANCH  15  16
ATOM     16  N   UNL     1       6.549   3.371  13.821  0.00  0.00    +0.000 NA
ATOM     17  H   UNL     1       7.458   2.962  13.615  0.00  0.00    +0.000 HD
BRANCH  16  18
ATOM     18  C   UNL     1       5.950   3.866  12.575  0.00  0.00    +0.000 C 
BRANCH  18  19
ATOM     19  C   UNL     1       5.420   2.700  11.735  0.00  0.00    +0.000 C 
BRANCH  19  20
ATOM     20  C   UNL     1       4.006   2.977  11.229  0.00  0.00    +0.000 C 
BRANCH  20  22
ATOM     21  C   UNL     1       2.821   4.253   9.638  0.00  0.00    +0.000 C 
ATOM     22  O   UNL     1       4.021   4.133  10.393  0.00  0.00    +0.000 OA
ENDBRANCH  20  22
ENDBRANCH  19  20
ENDBRANCH  18  19
ENDBRANCH  16  18
ENDBRANCH  15  16
ENDBRANCH   1  15
TORSDOF 8
ENDMDL
MODEL 7
REMARK VINA RESULT:      -5.9      1.719      1.923
REMARK  Name = 
REMARK  9 active torsions:
REMARK  status: ('A' for Active; 'I' for Inactive)
REMARK    1  A    between atoms: C_1  and  O_2
REMARK    2  A    between atoms: O_2  and  C_3
REMARK    3  A    between atoms: C_3  and  C_4
REMARK    4  A    between atoms: C_4  and  C_5
REMARK    5  A    between atoms: C_5  and  N_6
REMARK    6  A    between atoms: N_6  and  C_7
REMARK    7  A    between atoms: C_7  and  C_8
REMARK    8  A    between atoms: C_12  and  S_13
REMARK    9  A    between atoms: S_13  and  N_14
REMARK                            x       y       z     vdW  Elec       q    Type
REMARK                         _______ _______ _______ _____ _____    ______ ____
ROOT
ATOM      1  C   UNL     1       6.282   6.559  17.687  0.00  0.00    +0.000 A 
ATOM      2  C   UNL     1       4.925   6.528  17.326  0.00  0.00    +0.000 A 
ATOM      3  C   UNL     1       4.270   5.565  18.097  0.00  0.00    +0.000 A 
ATOM      4  C   UNL     1       2.977   5.068  18.218  0.00  0.00    +0.000 A 
ATOM      5  C   UNL     1       3.057   4.082  19.218  0.00  0.00    +0.000 A 
ATOM      6  O   UNL     1       4.374   4.007  19.672  0.00  0.00    +0.000 OA
ATOM      7  C   UNL     1       5.055   4.919  18.966  0.00  0.00    +0.000 A 
ATOM      8  S   UNL     1       6.643   5.394  18.947  0.00  0.00    +0.000 S 
ENDROOT
BRANCH   5   9
ATOM      9  S   UNL     1       1.827   2.992  19.939  0.00  0.00    +0.000 S 
ATOM     10  O   UNL     1       2.451   2.454  21.125  0.00  0.00    +0.000 OA
ATOM     11  O   UNL     1       0.610   3.767  19.959  0.00  0.00    +0.000 OA
BRANCH   9  12
ATOM     12  N   UNL     1       1.603   1.718  18.862  0.00  0.00    +0.000 NA
ATOM     13  H   UNL     1       1.054   0.960  19.269  0.00  0.00    +0.000 HD
ATOM     14  H   UNL     1       2.477   1.418  18.432  0.00  0.00    +0.000 HD
ENDBRANCH   9  12
ENDBRANCH   5   9
BRANCH   1  15
ATOM     15  C   UNL     1       7.424   7.387  17.157  0.00  0.00    +0.000 C 
BRANCH  15  16
ATOM     16  N   UNL     1       8.217   7.951  18.251  0.00  0.00    +0.000 NA
ATOM     17  H   UNL     1       7.754   7.749  19.134  0.00  0.00    +0.000 HD
BRANCH  16  18
ATOM     18  C   UNL     1       8.345   9.406  18.095  0.00  0.00    +0.000 C 
BRANCH  18  19
ATOM     19  C   UNL     1       9.233   9.986  19.200  0.00  0.00    +0.000 C 
BRANCH  19  20
ATOM     20  C   UNL     1       9.401  11.495  19.043  0.00  0.00    +0.000 C 
BRANCH  20  22
ATOM     21  C   UNL     1       8.401  13.219  17.782  0.00  0.00    +0.000 C 
ATOM     22  O   UNL     1       8.917  11.894  17.761  0.00  0.00    +0.000 OA
ENDBRANCH  20  22
ENDBRANCH  19  20
ENDBRANCH  18  19
ENDBRANCH  16  18
ENDBRANCH  15  16
ENDBRANCH   1  15
TORSDOF 8
ENDMDL
MODEL 8
REMARK VINA RESULT:      -5.9      4.875      6.700
REMARK  Name = 
REMARK  9 active torsions:
REMARK  status: ('A' for Active; 'I' for Inactive)
REMARK    1  A    between atoms: C_1  and  O_2
REMARK    2  A    between atoms: O_2  and  C_3
REMARK    3  A    between atoms: C_3  and  C_4
REMARK    4  A    between atoms: C_4  and  C_5
REMARK    5  A    between atoms: C_5  and  N_6
REMARK    6  A    between atoms: N_6  and  C_7
REMARK    7  A    between atoms: C_7  and  C_8
REMARK    8  A    between atoms: C_12  and  S_13
REMARK    9  A    between atoms: S_13  and  N_14
REMARK                            x       y       z     vdW  Elec       q    Type
REMARK                         _______ _______ _______ _____ _____    ______ ____
ROOT
ATOM      1  C   UNL     1       3.572   5.079  18.779  0.00  0.00    +0.000 A 
ATOM      2  C   UNL     1       3.550   6.063  17.778  0.00  0.00    +0.000 A 
ATOM      3  C   UNL     1       2.820   7.162  18.236  0.00  0.00    +0.000 A 
ATOM      4  C   UNL     1       2.443   8.407  17.744  0.00  0.00    +0.000 A 
ATOM      5  C   UNL     1       1.693   8.997  18.779  0.00  0.00    +0.000 A 
ATOM      6  O   UNL     1       1.635   8.110  19.855  0.00  0.00    +0.000 OA
ATOM      7  C   UNL     1       2.329   7.030  19.472  0.00  0.00    +0.000 A 
ATOM      8  S   UNL     1       2.687   5.586  20.206  0.00  0.00    +0.000 S 
ENDROOT
BRANCH   5   9
ATOM      9  S   UNL     1       0.864  10.583  18.916  0.00  0.00    +0.000 S 
ATOM     10  O   UNL     1       0.306  10.601  20.248  0.00  0.00    +0.000 OA
ATOM     11  O   UNL     1       1.826  11.547  18.440  0.00  0.00    +0.000 OA
BRANCH   9  12
ATOM     12  N   UNL     1      -0.420  10.565  17.829  0.00  0.00    +0.000 NA
ATOM     13  H   UNL     1      -0.565  11.473  17.387  0.00  0.00    +0.000 HD
ATOM     14  H   UNL     1      -1.262  10.157  18.232  0.00  0.00    +0.000 HD
ENDBRANCH   9  12
ENDBRANCH   5   9
BRANCH   1  15
ATOM     15  C   UNL     1       4.193   3.706  18.797  0.00  0.00    +0.000 C 
BRANCH  15  16
ATOM     16  N   UNL     1       5.632   3.776  18.541  0.00  0.00    +0.000 NA
ATOM     17  H   UNL     1       6.076   2.941  18.916  0.00  0.00    +0.000 HD
BRANCH  16  18
ATOM     18  C   UNL     1       6.213   4.961  19.185  0.00  0.00    +0.000 C 
BRANCH  18  19
ATOM     19  C   UNL     1       7.244   5.620  18.264  0.00  0.00    +0.000 C 
BRANCH  19  20
ATOM     20  C   UNL     1       7.504   4.771  17.023  0.00  0.00    +0.000 C 
BRANCH  20  22
ATOM     21  C   UNL     1       6.114   5.258  15.181  0.00  0.00    +0.000 C 
ATOM     22  O   UNL     1       7.326   5.574  15.855  0.00  0.00    +0.000 OA
ENDBRANCH  20  22
ENDBRANCH  19  20
ENDBRANCH  18  19
ENDBRANCH  16  18
ENDBRANCH  15  16
ENDBRANCH   1  15
TORSDOF 8
ENDMDL
MODEL 9
REMARK VINA RESULT:      -5.9      4.475      6.210
REMARK  Name = 
REMARK  9 active torsions:
REMARK  status: ('A' for Active; 'I' for Inactive)
REMARK    1  A    between atoms: C_1  and  O_2
REMARK    2  A    between atoms: O_2  and  C_3
REMARK    3  A    between atoms: C_3  and  C_4
REMARK    4  A    between atoms: C_4  and  C_5
REMARK    5  A    between atoms: C_5  and  N_6
REMARK    6  A    between atoms: N_6  and  C_7
REMARK    7  A    between atoms: C_7  and  C_8
REMARK    8  A    between atoms: C_12  and  S_13
REMARK    9  A    between atoms: S_13  and  N_14
REMARK                            x       y       z     vdW  Elec       q    Type
REMARK                         _______ _______ _______ _____ _____    ______ ____
ROOT
ATOM      1  C   UNL     1       5.993   5.507  16.962  0.00  0.00    +0.000 A 
ATOM      2  C   UNL     1       4.625   5.647  16.680  0.00  0.00    +0.000 A 
ATOM      3  C   UNL     1       3.887   5.000  17.675  0.00  0.00    +0.000 A 
ATOM      4  C   UNL     1       2.544   4.781  17.963  0.00  0.00    +0.000 A 
ATOM      5  C   UNL     1       2.544   4.027  19.151  0.00  0.00    +0.000 A 
ATOM      6  O   UNL     1       3.864   3.812  19.548  0.00  0.00    +0.000 OA
ATOM      7  C   UNL     1       4.624   4.420  18.627  0.00  0.00    +0.000 A 
ATOM      8  S   UNL     1       6.262   4.586  18.430  0.00  0.00    +0.000 S 
ENDROOT
BRANCH   5   9
ATOM      9  S   UNL     1       1.215   3.351  20.152  0.00  0.00    +0.000 S 
ATOM     10  O   UNL     1       1.855   2.402  21.032  0.00  0.00    +0.000 OA
ATOM     11  O   UNL     1       0.480   4.502  20.617  0.00  0.00    +0.000 OA
BRANCH   9  12
ATOM     12  N   UNL     1       0.209   2.486  19.117  0.00  0.00    +0.000 NA
ATOM     13  H   UNL     1      -0.267   1.719  19.593  0.00  0.00    +0.000 HD
ATOM     14  H   UNL     1       0.681   2.216  18.256  0.00  0.00    +0.000 HD
ENDBRANCH   9  12
ENDBRANCH   5   9
BRANCH   1  15
ATOM     15  C   UNL     1       7.207   5.987  16.210  0.00  0.00    +0.000 C 
BRANCH  15  16
ATOM     16  N   UNL     1       7.183   5.524  14.821  0.00  0.00    +0.000 NA
ATOM     17  H   UNL     1       6.561   6.123  14.283  0.00  0.00    +0.000 HD
BRANCH  16  18
ATOM     18  C   UNL     1       6.699   4.139  14.749  0.00  0.00    +0.000 C 
BRANCH  18  19
ATOM     19  C   UNL     1       5.710   3.976  13.591  0.00  0.00    +0.000 C 
BRANCH  19  20
ATOM     20  C   UNL     1       6.396   3.414  12.349  0.00  0.00    +0.000 C 
BRANCH  20  22
ATOM     21  C   UNL     1       4.263   3.163  11.374  0.00  0.00    +0.000 C 
ATOM     22  O   UNL     1       5.500   2.530  11.674  0.00  0.00    +0.000 OA
ENDBRANCH  20  22
ENDBRANCH  19  20
ENDBRANCH  18  19
ENDBRANCH  16  18
ENDBRANCH  15  16
ENDBRANCH   1  15
TORSDOF 8
ENDMDL
