MODEL 1
REMARK VINA RESULT:      -7.5      0.000      0.000
REMARK  Name = 
REMARK  9 active torsions:
REMARK  status: ('A' for Active; 'I' for Inactive)
REMARK    1  A    between atoms: C_2  and  C_3
REMARK    2  A    between atoms: C_9  and  N_10
REMARK    3  A    between atoms: N_10  and  C_11
REMARK    4  A    between atoms: C_11  and  C_12
REMARK    5  A    between atoms: C_12  and  C_13
REMARK    6  A    between atoms: C_13  and  O_14
REMARK    7  A    between atoms: C_16  and  C_17
REMARK    8  A    between atoms: C_17  and  C_18
REMARK    9  A    between atoms: C_18  and  C_19
REMARK                            x       y       z     vdW  Elec       q    Type
REMARK                         _______ _______ _______ _____ _____    ______ ____
ROOT
ATOM      1  C   UNL     1       2.139   5.103  19.679  0.00  0.00    +0.000 C 
ATOM      2  C   UNL     1       1.803   5.323  18.158  0.00  0.00    +0.000 C 
ATOM      3  C   UNL     1       3.336   5.311  17.840  0.00  0.00    +0.000 C 
ATOM      4  C   UNL     1       3.542   5.724  19.319  0.00  0.00    +0.000 C 
ENDROOT
BRANCH   1   5
ATOM      5  C   UNL     1       1.423   6.027  20.706  0.00  0.00    +0.000 C 
BRANCH   5   6
ATOM      6  N   UNL     1       2.082   7.352  20.839  0.00  0.00    +0.000 N 
ATOM      7  H   UNL     1       2.838   7.490  20.172  0.00  0.00    +0.000 HD
BRANCH   6  14
ATOM      8  C   UNL     1       1.007   9.281  19.761  0.00  0.00    +0.000 A 
ATOM      9  C   UNL     1       0.124  10.331  19.936  0.00  0.00    +0.000 A 
ATOM     10  N   UNL     1      -0.522  10.587  21.090  0.00  0.00    +0.000 NA
ATOM     11  C   UNL     1      -0.245   9.771  22.104  0.00  0.00    +0.000 A 
ATOM     12  N   UNL     1      -0.854  10.005  23.310  0.00  0.00    +0.000 N 
ATOM     13  N   UNL     1       0.563   8.710  22.023  0.00  0.00    +0.000 NA
ATOM     14  C   UNL     1       1.193   8.449  20.859  0.00  0.00    +0.000 A 
ATOM     15  H   UNL     1      -1.708  10.529  23.181  0.00  0.00    +0.000 HD
ATOM     16  H   UNL     1      -0.902   9.152  23.850  0.00  0.00    +0.000 HD
BRANCH   8  18
ATOM     17  N   UNL     1       2.116   8.940  17.453  0.00  0.00    +0.000 NA
ATOM     18  C   UNL     1       1.647   9.124  18.494  0.00  0.00    +0.000 C 
ENDBRANCH   8  18
ENDBRANCH   6  14
ENDBRANCH   5   6
ENDBRANCH   1   5
BRANCH   1  19
ATOM     19  C   UNL     1       1.917   3.649  20.141  0.00  0.00    +0.000 C 
BRANCH  19  20
ATOM     20  O   UNL     1       0.578   3.192  20.019  0.00  0.00    +0.000 OA
ATOM     21  H   UNL     1      -0.010   3.851  20.422  0.00  0.00    +0.000 HD
ENDBRANCH  19  20
ENDBRANCH   1  19
BRANCH   3  22
ATOM     22  C   UNL     1       4.177   4.080  17.483  0.00  0.00    +0.000 C 
BRANCH  22  23
ATOM     23  C   UNL     1       5.386   4.407  16.606  0.00  0.00    +0.000 C 
BRANCH  23  24
ATOM     24  C   UNL     1       6.310   5.365  17.325  0.00  0.00    +0.000 A 
ATOM     25  C   UNL     1       6.568   6.638  16.799  0.00  0.00    +0.000 A 
ATOM     26  C   UNL     1       7.481   7.494  17.418  0.00  0.00    +0.000 A 
ATOM     27  C   UNL     1       8.152   7.081  18.570  0.00  0.00    +0.000 A 
ATOM     28  C   UNL     1       7.905   5.817  19.099  0.00  0.00    +0.000 A 
ATOM     29  C   UNL     1       6.990   4.963  18.482  0.00  0.00    +0.000 A 
ENDBRANCH  23  24
ENDBRANCH  22  23
ENDBRANCH   3  22
TORSDOF 9
ENDMDL
MODEL 2
REMARK VINA RESULT:      -7.5      0.378      1.033
REMARK  Name = 
REMARK  9 active torsions:
REMARK  status: ('A' for Active; 'I' for Inactive)
REMARK    1  A    between atoms: C_2  and  C_3
REMARK    2  A    between atoms: C_9  and  N_10
REMARK    3  A    between atoms: N_10  and  C_11
REMARK    4  A    between atoms: C_11  and  C_12
REMARK    5  A    between atoms: C_12  and  C_13
REMARK    6  A    between atoms: C_13  and  O_14
REMARK    7  A    between atoms: C_16  and  C_17
REMARK    8  A    between atoms: C_17  and  C_18
REMARK    9  A    between atoms: C_18  and  C_19
REMARK                            x       y       z     vdW  Elec       q    Type
REMARK                         _______ _______ _______ _____ _____    ______ ____
ROOT
ATOM      1  C   UNL     1       2.334   4.953  19.723  0.00  0.00    +0.000 C 
ATOM      2  C   UNL     1       1.744   4.666  18.292  0.00  0.00    +0.000 C 
ATOM      3  C   UNL     1       3.161   4.932  17.679  0.00  0.00    +0.000 C 
ATOM      4  C   UNL     1       3.442   5.767  18.953  0.00  0.00    +0.000 C 
ENDROOT
BRANCH   1   5
ATOM      5  C   UNL     1       1.535   5.924  20.639  0.00  0.00    +0.000 C 
BRANCH   5   6
ATOM      6  N   UNL     1       2.167   7.264  20.742  0.00  0.00    +0.000 N 
ATOM      7  H   UNL     1       2.887   7.420  20.040  0.00  0.00    +0.000 HD
BRANCH   6  14
ATOM      8  C   UNL     1       1.033   9.197  19.736  0.00  0.00    +0.000 A 
ATOM      9  C   UNL     1       0.129  10.221  19.954  0.00  0.00    +0.000 A 
ATOM     10  N   UNL     1      -0.505  10.430  21.124  0.00  0.00    +0.000 NA
ATOM     11  C   UNL     1      -0.194   9.592  22.110  0.00  0.00    +0.000 A 
ATOM     12  N   UNL     1      -0.789   9.777  23.331  0.00  0.00    +0.000 N 
ATOM     13  N   UNL     1       0.637   8.552  21.987  0.00  0.00    +0.000 NA
ATOM     14  C   UNL     1       1.254   8.339  20.807  0.00  0.00    +0.000 A 
ATOM     15  H   UNL     1      -1.657  10.285  23.229  0.00  0.00    +0.000 HD
ATOM     16  H   UNL     1      -0.810   8.908  23.847  0.00  0.00    +0.000 HD
BRANCH   8  18
ATOM     17  N   UNL     1       2.138   9.076  17.404  0.00  0.00    +0.000 NA
ATOM     18  C   UNL     1       1.656   9.091  18.456  0.00  0.00    +0.000 C 
ENDBRANCH   8  18
ENDBRANCH   6  14
ENDBRANCH   5   6
ENDBRANCH   1   5
BRANCH   1  19
ATOM     19  C   UNL     1       2.595   3.669  20.535  0.00  0.00    +0.000 C 
BRANCH  19  20
ATOM     20  O   UNL     1       1.609   2.661  20.373  0.00  0.00    +0.000 OA
ATOM     21  H   UNL     1       1.192   2.775  19.504  0.00  0.00    +0.000 HD
ENDBRANCH  19  20
ENDBRANCH   1  19
BRANCH   3  22
ATOM     22  C   UNL     1       4.257   3.887  17.444  0.00  0.00    +0.000 C 
BRANCH  22  23
ATOM     23  C   UNL     1       5.326   4.344  16.451  0.00  0.00    +0.000 C 
BRANCH  23  24
ATOM     24  C   UNL     1       6.323   5.252  17.136  0.00  0.00    +0.000 A 
ATOM     25  C   UNL     1       7.071   4.796  18.229  0.00  0.00    +0.000 A 
ATOM     26  C   UNL     1       7.934   5.656  18.912  0.00  0.00    +0.000 A 
ATOM     27  C   UNL     1       8.052   6.988  18.509  0.00  0.00    +0.000 A 
ATOM     28  C   UNL     1       7.310   7.452  17.426  0.00  0.00    +0.000 A 
ATOM     29  C   UNL     1       6.450   6.591  16.742  0.00  0.00    +0.000 A 
ENDBRANCH  23  24
ENDBRANCH  22  23
ENDBRANCH   3  22
TORSDOF 9
ENDMDL
MODEL 3
REMARK VINA RESULT:      -7.4      4.374      6.753
REMARK  Name = 
REMARK  9 active torsions:
REMARK  status: ('A' for Active; 'I' for Inactive)
REMARK    1  A    between atoms: C_2  and  C_3
REMARK    2  A    between atoms: C_9  and  N_10
REMARK    3  A    between atoms: N_10  and  C_11
REMARK    4  A    between atoms: C_11  and  C_12
REMARK    5  A    between atoms: C_12  and  C_13
REMARK    6  A    between atoms: C_13  and  O_14
REMARK    7  A    between atoms: C_16  and  C_17
REMARK    8  A    between atoms: C_17  and  C_18
REMARK    9  A    between atoms: C_18  and  C_19
REMARK                            x       y       z     vdW  Elec       q    Type
REMARK                         _______ _______ _______ _____ _____    ______ ____
ROOT
ATOM      1  C   UNL     1       6.975   5.673  17.839  0.00  0.00    +0.000 C 
ATOM      2  C   UNL     1       7.687   6.351  16.610  0.00  0.00    +0.000 C 
ATOM      3  C   UNL     1       7.385   7.754  17.237  0.00  0.00    +0.000 C 
ATOM      4  C   UNL     1       6.230   7.053  17.994  0.00  0.00    +0.000 C 
ENDROOT
BRANCH   1   5
ATOM      5  C   UNL     1       5.930   4.563  17.531  0.00  0.00    +0.000 C 
BRANCH   5   6
ATOM      6  N   UNL     1       5.686   3.668  18.691  0.00  0.00    +0.000 N 
ATOM      7  H   UNL     1       6.203   3.944  19.523  0.00  0.00    +0.000 HD
BRANCH   6  14
ATOM      8  C   UNL     1       3.904   2.524  19.938  0.00  0.00    +0.000 A 
ATOM      9  C   UNL     1       2.536   2.381  20.086  0.00  0.00    +0.000 A 
ATOM     10  N   UNL     1       1.626   3.041  19.345  0.00  0.00    +0.000 NA
ATOM     11  C   UNL     1       2.115   3.852  18.411  0.00  0.00    +0.000 A 
ATOM     12  N   UNL     1       1.231   4.527  17.609  0.00  0.00    +0.000 N 
ATOM     13  N   UNL     1       3.416   4.085  18.216  0.00  0.00    +0.000 NA
ATOM     14  C   UNL     1       4.323   3.433  18.973  0.00  0.00    +0.000 A 
ATOM     15  H   UNL     1       0.333   4.614  18.066  0.00  0.00    +0.000 HD
ATOM     16  H   UNL     1       1.658   5.368  17.246  0.00  0.00    +0.000 HD
BRANCH   8  18
ATOM     17  N   UNL     1       5.521   1.188  21.447  0.00  0.00    +0.000 NA
ATOM     18  C   UNL     1       4.771   1.753  20.770  0.00  0.00    +0.000 C 
ENDBRANCH   8  18
ENDBRANCH   6  14
ENDBRANCH   5   6
ENDBRANCH   1   5
BRANCH   1  19
ATOM     19  C   UNL     1       7.968   5.094  18.866  0.00  0.00    +0.000 C 
BRANCH  19  20
ATOM     20  O   UNL     1       7.721   5.486  20.208  0.00  0.00    +0.000 OA
ATOM     21  H   UNL     1       8.249   6.278  20.399  0.00  0.00    +0.000 HD
ENDBRANCH  19  20
ENDBRANCH   1  19
BRANCH   3  22
ATOM     22  C   UNL     1       8.291   8.531  18.200  0.00  0.00    +0.000 C 
BRANCH  22  23
ATOM     23  C   UNL     1       8.216  10.046  18.010  0.00  0.00    +0.000 C 
BRANCH  23  24
ATOM     24  C   UNL     1       9.421  10.712  18.636  0.00  0.00    +0.000 A 
ATOM     25  C   UNL     1       9.463  10.966  20.013  0.00  0.00    +0.000 A 
ATOM     26  C   UNL     1      10.539  11.652  20.580  0.00  0.00    +0.000 A 
ATOM     27  C   UNL     1      11.586  12.097  19.770  0.00  0.00    +0.000 A 
ATOM     28  C   UNL     1      11.553  11.851  18.400  0.00  0.00    +0.000 A 
ATOM     29  C   UNL     1      10.479  11.164  17.834  0.00  0.00    +0.000 A 
ENDBRANCH  23  24
ENDBRANCH  22  23
ENDBRANCH   3  22
TORSDOF 9
ENDMDL
MODEL 4
REMARK VINA RESULT:      -7.3      3.620      7.341
REMARK  Name = 
REMARK  9 active torsions:
REMARK  status: ('A' for Active; 'I' for Inactive)
REMARK    1  A    between atoms: C_2  and  C_3
REMARK    2  A    between atoms: C_9  and  N_10
REMARK    3  A    between atoms: N_10  and  C_11
REMARK    4  A    between atoms: C_11  and  C_12
REMARK    5  A    between atoms: C_12  and  C_13
REMARK    6  A    between atoms: C_13  and  O_14
REMARK    7  A    between atoms: C_16  and  C_17
REMARK    8  A    between atoms: C_17  and  C_18
REMARK    9  A    between atoms: C_18  and  C_19
REMARK                            x       y       z     vdW  Elec       q    Type
REMARK                         _______ _______ _______ _____ _____    ______ ____
ROOT
ATOM      1  C   UNL     1       2.604   3.995  18.385  0.00  0.00    +0.000 C 
ATOM      2  C   UNL     1       3.353   4.170  19.758  0.00  0.00    +0.000 C 
ATOM      3  C   UNL     1       2.888   5.665  19.796  0.00  0.00    +0.000 C 
ATOM      4  C   UNL     1       2.762   5.557  18.256  0.00  0.00    +0.000 C 
ENDROOT
BRANCH   1   5
ATOM      5  C   UNL     1       3.389   3.308  17.230  0.00  0.00    +0.000 C 
BRANCH   5   6
ATOM      6  N   UNL     1       4.823   3.100  17.557  0.00  0.00    +0.000 N 
ATOM      7  H   UNL     1       5.081   2.117  17.609  0.00  0.00    +0.000 HD
BRANCH   6  14
ATOM      8  C   UNL     1       6.566   4.809  17.273  0.00  0.00    +0.000 A 
ATOM      9  C   UNL     1       7.370   5.468  16.361  0.00  0.00    +0.000 A 
ATOM     10  N   UNL     1       7.352   5.233  15.034  0.00  0.00    +0.000 NA
ATOM     11  C   UNL     1       6.475   4.324  14.617  0.00  0.00    +0.000 A 
ATOM     12  N   UNL     1       6.395   4.067  13.273  0.00  0.00    +0.000 N 
ATOM     13  N   UNL     1       5.683   3.609  15.423  0.00  0.00    +0.000 NA
ATOM     14  C   UNL     1       5.720   3.837  16.753  0.00  0.00    +0.000 A 
ATOM     15  H   UNL     1       7.258   4.322  12.811  0.00  0.00    +0.000 HD
ATOM     16  H   UNL     1       6.033   3.137  13.114  0.00  0.00    +0.000 HD
BRANCH   8  18
ATOM     17  N   UNL     1       6.815   5.454  19.763  0.00  0.00    +0.000 NA
ATOM     18  C   UNL     1       6.662   5.160  18.654  0.00  0.00    +0.000 C 
ENDBRANCH   8  18
ENDBRANCH   6  14
ENDBRANCH   5   6
ENDBRANCH   1   5
BRANCH   1  19
ATOM     19  C   UNL     1       1.257   3.259  18.523  0.00  0.00    +0.000 C 
BRANCH  19  20
ATOM     20  O   UNL     1       1.363   1.844  18.570  0.00  0.00    +0.000 OA
ATOM     21  H   UNL     1       1.879   1.600  19.355  0.00  0.00    +0.000 HD
ENDBRANCH  19  20
ENDBRANCH   1  19
BRANCH   3  22
ATOM     22  C   UNL     1       1.596   6.196  20.425  0.00  0.00    +0.000 C 
BRANCH  22  23
ATOM     23  C   UNL     1       1.758   7.573  21.069  0.00  0.00    +0.000 C 
BRANCH  23  24
ATOM     24  C   UNL     1       1.105   8.633  20.211  0.00  0.00    +0.000 A 
ATOM     25  C   UNL     1       1.605   8.927  18.935  0.00  0.00    +0.000 A 
ATOM     26  C   UNL     1       1.054   9.959  18.173  0.00  0.00    +0.000 A 
ATOM     27  C   UNL     1      -0.003  10.714  18.684  0.00  0.00    +0.000 A 
ATOM     28  C   UNL     1      -0.506  10.432  19.952  0.00  0.00    +0.000 A 
ATOM     29  C   UNL     1       0.044   9.398  20.712  0.00  0.00    +0.000 A 
ENDBRANCH  23  24
ENDBRANCH  22  23
ENDBRANCH   3  22
TORSDOF 9
ENDMDL
MODEL 5
REMARK VINA RESULT:      -7.1      3.721      6.183
REMARK  Name = 
REMARK  9 active torsions:
REMARK  status: ('A' for Active; 'I' for Inactive)
REMARK    1  A    between atoms: C_2  and  C_3
REMARK    2  A    between atoms: C_9  and  N_10
REMARK    3  A    between atoms: N_10  and  C_11
REMARK    4  A    between atoms: C_11  and  C_12
REMARK    5  A    between atoms: C_12  and  C_13
REMARK    6  A    between atoms: C_13  and  O_14
REMARK    7  A    between atoms: C_16  and  C_17
REMARK    8  A    between atoms: C_17  and  C_18
REMARK    9  A    between atoms: C_18  and  C_19
REMARK                            x       y       z     vdW  Elec       q    Type
REMARK                         _______ _______ _______ _____ _____    ______ ____
ROOT
ATOM      1  C   UNL     1       6.994   5.881  17.929  0.00  0.00    +0.000 C 
ATOM      2  C   UNL     1       7.684   6.494  16.654  0.00  0.00    +0.000 C 
ATOM      3  C   UNL     1       7.447   7.927  17.242  0.00  0.00    +0.000 C 
ATOM      4  C   UNL     1       6.297   7.288  18.060  0.00  0.00    +0.000 C 
ENDROOT
BRANCH   1   5
ATOM      5  C   UNL     1       5.905   4.795  17.693  0.00  0.00    +0.000 C 
BRANCH   5   6
ATOM      6  N   UNL     1       5.537   4.073  18.938  0.00  0.00    +0.000 N 
ATOM      7  H   UNL     1       6.185   4.245  19.704  0.00  0.00    +0.000 HD
BRANCH   6  14
ATOM      8  C   UNL     1       3.258   3.217  19.273  0.00  0.00    +0.000 A 
ATOM      9  C   UNL     1       1.974   3.538  19.674  0.00  0.00    +0.000 A 
ATOM     10  N   UNL     1       1.599   4.764  20.088  0.00  0.00    +0.000 NA
ATOM     11  C   UNL     1       2.546   5.698  20.070  0.00  0.00    +0.000 A 
ATOM     12  N   UNL     1       2.210   6.971  20.454  0.00  0.00    +0.000 N 
ATOM     13  N   UNL     1       3.821   5.478  19.735  0.00  0.00    +0.000 NA
ATOM     14  C   UNL     1       4.194   4.243  19.339  0.00  0.00    +0.000 A 
ATOM     15  H   UNL     1       1.395   6.958  21.051  0.00  0.00    +0.000 HD
ATOM     16  H   UNL     1       3.028   7.465  20.784  0.00  0.00    +0.000 HD
BRANCH   8  18
ATOM     17  N   UNL     1       3.729   0.828  18.410  0.00  0.00    +0.000 NA
ATOM     18  C   UNL     1       3.530   1.885  18.835  0.00  0.00    +0.000 C 
ENDBRANCH   8  18
ENDBRANCH   6  14
ENDBRANCH   5   6
ENDBRANCH   1   5
BRANCH   1  19
ATOM     19  C   UNL     1       8.003   5.305  18.941  0.00  0.00    +0.000 C 
BRANCH  19  20
ATOM     20  O   UNL     1       7.691   5.574  20.300  0.00  0.00    +0.000 OA
ATOM     21  H   UNL     1       7.496   4.734  20.743  0.00  0.00    +0.000 HD
ENDBRANCH  19  20
ENDBRANCH   1  19
BRANCH   3  22
ATOM     22  C   UNL     1       8.409   8.705  18.146  0.00  0.00    +0.000 C 
BRANCH  22  23
ATOM     23  C   UNL     1       8.280  10.222  18.001  0.00  0.00    +0.000 C 
BRANCH  23  24
ATOM     24  C   UNL     1       9.475  10.910  18.623  0.00  0.00    +0.000 A 
ATOM     25  C   UNL     1      10.590  11.246  17.844  0.00  0.00    +0.000 A 
ATOM     26  C   UNL     1      11.726  11.810  18.430  0.00  0.00    +0.000 A 
ATOM     27  C   UNL     1      11.758  12.039  19.807  0.00  0.00    +0.000 A 
ATOM     28  C   UNL     1      10.656  11.707  20.590  0.00  0.00    +0.000 A 
ATOM     29  C   UNL     1       9.520  11.146  20.003  0.00  0.00    +0.000 A 
ENDBRANCH  23  24
ENDBRANCH  22  23
ENDBRANCH   3  22
TORSDOF 9
ENDMDL
MODEL 6
REMARK VINA RESULT:      -7.1      3.592      5.961
REMARK  Name = 
REMARK  9 active torsions:
REMARK  status: ('A' for Active; 'I' for Inactive)
REMARK    1  A    between atoms: C_2  and  C_3
REMARK    2  A    between atoms: C_9  and  N_10
REMARK    3  A    between atoms: N_10  and  C_11
REMARK    4  A    between atoms: C_11  and  C_12
REMARK    5  A    between atoms: C_12  and  C_13
REMARK    6  A    between atoms: C_13  and  O_14
REMARK    7  A    between atoms: C_16  and  C_17
REMARK    8  A    between atoms: C_17  and  C_18
REMARK    9  A    between atoms: C_18  and  C_19
REMARK                            x       y       z     vdW  Elec       q    Type
REMARK                         _______ _______ _______ _____ _____    ______ ____
ROOT
ATOM      1  C   UNL     1       6.213   5.919  17.979  0.00  0.00    +0.000 C 
ATOM      2  C   UNL     1       7.378   6.033  16.927  0.00  0.00    +0.000 C 
ATOM      3  C   UNL     1       7.357   7.589  17.104  0.00  0.00    +0.000 C 
ATOM      4  C   UNL     1       5.894   7.411  17.584  0.00  0.00    +0.000 C 
ENDROOT
BRANCH   1   5
ATOM      5  C   UNL     1       4.999   5.023  17.599  0.00  0.00    +0.000 C 
BRANCH   5   6
ATOM      6  N   UNL     1       3.695   5.664  17.908  0.00  0.00    +0.000 N 
ATOM      7  H   UNL     1       3.246   6.067  17.088  0.00  0.00    +0.000 HD
BRANCH   6  14
ATOM      8  C   UNL     1       2.035   5.356  19.693  0.00  0.00    +0.000 A 
ATOM      9  C   UNL     1       1.230   4.441  20.347  0.00  0.00    +0.000 A 
ATOM     10  N   UNL     1       1.182   3.130  20.044  0.00  0.00    +0.000 NA
ATOM     11  C   UNL     1       1.991   2.729  19.068  0.00  0.00    +0.000 A 
ATOM     12  N   UNL     1       2.002   1.397  18.738  0.00  0.00    +0.000 N 
ATOM     13  N   UNL     1       2.777   3.541  18.353  0.00  0.00    +0.000 NA
ATOM     14  C   UNL     1       2.807   4.856  18.650  0.00  0.00    +0.000 A 
ATOM     15  H   UNL     1       1.136   0.956  19.016  0.00  0.00    +0.000 HD
ATOM     16  H   UNL     1       2.308   1.275  17.783  0.00  0.00    +0.000 HD
BRANCH   8  18
ATOM     17  N   UNL     1       1.929   7.830  20.431  0.00  0.00    +0.000 NA
ATOM     18  C   UNL     1       2.015   6.719  20.119  0.00  0.00    +0.000 C 
ENDBRANCH   8  18
ENDBRANCH   6  14
ENDBRANCH   5   6
ENDBRANCH   1   5
BRANCH   1  19
ATOM     19  C   UNL     1       6.699   5.465  19.369  0.00  0.00    +0.000 C 
BRANCH  19  20
ATOM     20  O   UNL     1       8.066   5.084  19.418  0.00  0.00    +0.000 OA
ATOM     21  H   UNL     1       8.375   4.930  18.511  0.00  0.00    +0.000 HD
ENDBRANCH  19  20
ENDBRANCH   1  19
BRANCH   3  22
ATOM     22  C   UNL     1       8.179   8.397  18.114  0.00  0.00    +0.000 C 
BRANCH  22  23
ATOM     23  C   UNL     1       8.178   9.899  17.831  0.00  0.00    +0.000 C 
BRANCH  23  24
ATOM     24  C   UNL     1       9.326  10.570  18.552  0.00  0.00    +0.000 A 
ATOM     25  C   UNL     1       9.286  10.754  19.941  0.00  0.00    +0.000 A 
ATOM     26  C   UNL     1      10.308  11.443  20.599  0.00  0.00    +0.000 A 
ATOM     27  C   UNL     1      11.379  11.961  19.870  0.00  0.00    +0.000 A 
ATOM     28  C   UNL     1      11.427  11.786  18.489  0.00  0.00    +0.000 A 
ATOM     29  C   UNL     1      10.407  11.096  17.832  0.00  0.00    +0.000 A 
ENDBRANCH  23  24
ENDBRANCH  22  23
ENDBRANCH   3  22
TORSDOF 9
ENDMDL
MODEL 7
REMARK VINA RESULT:      -7.1      3.826      6.272
REMARK  Name = 
REMARK  9 active torsions:
REMARK  status: ('A' for Active; 'I' for Inactive)
REMARK    1  A    between atoms: C_2  and  C_3
REMARK    2  A    between atoms: C_9  and  N_10
REMARK    3  A    between atoms: N_10  and  C_11
REMARK    4  A    between atoms: C_11  and  C_12
REMARK    5  A    between atoms: C_12  and  C_13
REMARK    6  A    between atoms: C_13  and  O_14
REMARK    7  A    between atoms: C_16  and  C_17
REMARK    8  A    between atoms: C_17  and  C_18
REMARK    9  A    between atoms: C_18  and  C_19
REMARK                            x       y       z     vdW  Elec       q    Type
REMARK                         _______ _______ _______ _____ _____    ______ ____
ROOT
ATOM      1  C   UNL     1       7.059   5.919  18.185  0.00  0.00    +0.000 C 
ATOM      2  C   UNL     1       7.671   6.482  16.849  0.00  0.00    +0.000 C 
ATOM      3  C   UNL     1       7.479   7.936  17.399  0.00  0.00    +0.000 C 
ATOM      4  C   UNL     1       6.379   7.335  18.310  0.00  0.00    +0.000 C 
ENDROOT
BRANCH   1   5
ATOM      5  C   UNL     1       5.951   4.834  18.056  0.00  0.00    +0.000 C 
BRANCH   5   6
ATOM      6  N   UNL     1       4.883   4.982  19.078  0.00  0.00    +0.000 N 
ATOM      7  H   UNL     1       4.834   5.920  19.469  0.00  0.00    +0.000 HD
BRANCH   6  14
ATOM      8  C   UNL     1       2.629   5.363  18.177  0.00  0.00    +0.000 A 
ATOM      9  C   UNL     1       1.426   4.768  17.842  0.00  0.00    +0.000 A 
ATOM     10  N   UNL     1       1.170   3.454  17.991  0.00  0.00    +0.000 NA
ATOM     11  C   UNL     1       2.151   2.727  18.519  0.00  0.00    +0.000 A 
ATOM     12  N   UNL     1       1.932   1.388  18.719  0.00  0.00    +0.000 N 
ATOM     13  N   UNL     1       3.358   3.202  18.839  0.00  0.00    +0.000 NA
ATOM     14  C   UNL     1       3.614   4.516  18.671  0.00  0.00    +0.000 A 
ATOM     15  H   UNL     1       1.202   1.052  18.105  0.00  0.00    +0.000 HD
ATOM     16  H   UNL     1       2.809   0.886  18.727  0.00  0.00    +0.000 HD
BRANCH   8  18
ATOM     17  N   UNL     1       2.824   7.922  17.872  0.00  0.00    +0.000 NA
ATOM     18  C   UNL     1       2.775   6.771  17.991  0.00  0.00    +0.000 C 
ENDBRANCH   8  18
ENDBRANCH   6  14
ENDBRANCH   5   6
ENDBRANCH   1   5
BRANCH   1  19
ATOM     19  C   UNL     1       8.126   5.371  19.153  0.00  0.00    +0.000 C 
BRANCH  19  20
ATOM     20  O   UNL     1       7.774   5.458  20.525  0.00  0.00    +0.000 OA
ATOM     21  H   UNL     1       6.881   5.094  20.638  0.00  0.00    +0.000 HD
ENDBRANCH  19  20
ENDBRANCH   1  19
BRANCH   3  22
ATOM     22  C   UNL     1       8.500   8.739  18.214  0.00  0.00    +0.000 C 
BRANCH  22  23
ATOM     23  C   UNL     1       8.483  10.234  17.898  0.00  0.00    +0.000 C 
BRANCH  23  24
ATOM     24  C   UNL     1       9.643  10.927  18.579  0.00  0.00    +0.000 A 
ATOM     25  C   UNL     1       9.657  11.096  19.969  0.00  0.00    +0.000 A 
ATOM     26  C   UNL     1      10.688  11.804  20.591  0.00  0.00    +0.000 A 
ATOM     27  C   UNL     1      11.715  12.356  19.824  0.00  0.00    +0.000 A 
ATOM     28  C   UNL     1      11.709  12.195  18.441  0.00  0.00    +0.000 A 
ATOM     29  C   UNL     1      10.680  11.486  17.820  0.00  0.00    +0.000 A 
ENDBRANCH  23  24
ENDBRANCH  22  23
ENDBRANCH   3  22
TORSDOF 9
ENDMDL
MODEL 8
REMARK VINA RESULT:      -7.1      3.439      5.625
REMARK  Name = 
REMARK  9 active torsions:
REMARK  status: ('A' for Active; 'I' for Inactive)
REMARK    1  A    between atoms: C_2  and  C_3
REMARK    2  A    between atoms: C_9  and  N_10
REMARK    3  A    between atoms: N_10  and  C_11
REMARK    4  A    between atoms: C_11  and  C_12
REMARK    5  A    between atoms: C_12  and  C_13
REMARK    6  A    between atoms: C_13  and  O_14
REMARK    7  A    between atoms: C_16  and  C_17
REMARK    8  A    between atoms: C_17  and  C_18
REMARK    9  A    between atoms: C_18  and  C_19
REMARK                            x       y       z     vdW  Elec       q    Type
REMARK                         _______ _______ _______ _____ _____    ______ ____
ROOT
ATOM      1  C   UNL     1       6.322   5.802  18.023  0.00  0.00    +0.000 C 
ATOM      2  C   UNL     1       7.563   5.933  17.064  0.00  0.00    +0.000 C 
ATOM      3  C   UNL     1       7.433   7.492  17.143  0.00  0.00    +0.000 C 
ATOM      4  C   UNL     1       5.949   7.246  17.512  0.00  0.00    +0.000 C 
ENDROOT
BRANCH   1   5
ATOM      5  C   UNL     1       5.201   4.809  17.602  0.00  0.00    +0.000 C 
BRANCH   5   6
ATOM      6  N   UNL     1       3.886   5.476  17.416  0.00  0.00    +0.000 N 
ATOM      7  H   UNL     1       3.429   5.218  16.544  0.00  0.00    +0.000 HD
BRANCH   6  14
ATOM      8  C   UNL     1       2.261   4.222  18.767  0.00  0.00    +0.000 A 
ATOM      9  C   UNL     1       1.428   4.267  19.871  0.00  0.00    +0.000 A 
ATOM     10  N   UNL     1       1.302   5.342  20.674  0.00  0.00    +0.000 NA
ATOM     11  C   UNL     1       2.019   6.409  20.334  0.00  0.00    +0.000 A 
ATOM     12  N   UNL     1       1.905   7.540  21.101  0.00  0.00    +0.000 N 
ATOM     13  N   UNL     1       2.877   6.450  19.309  0.00  0.00    +0.000 NA
ATOM     14  C   UNL     1       3.012   5.365  18.520  0.00  0.00    +0.000 A 
ATOM     15  H   UNL     1       1.585   7.306  22.031  0.00  0.00    +0.000 HD
ATOM     16  H   UNL     1       2.739   8.105  21.018  0.00  0.00    +0.000 HD
BRANCH   8  18
ATOM     17  N   UNL     1       2.384   2.093  17.307  0.00  0.00    +0.000 NA
ATOM     18  C   UNL     1       2.294   3.031  17.979  0.00  0.00    +0.000 C 
ENDBRANCH   8  18
ENDBRANCH   6  14
ENDBRANCH   5   6
ENDBRANCH   1   5
BRANCH   1  19
ATOM     19  C   UNL     1       6.715   5.461  19.474  0.00  0.00    +0.000 C 
BRANCH  19  20
ATOM     20  O   UNL     1       8.113   5.351  19.693  0.00  0.00    +0.000 OA
ATOM     21  H   UNL     1       8.445   6.210  19.998  0.00  0.00    +0.000 HD
ENDBRANCH  19  20
ENDBRANCH   1  19
BRANCH   3  22
ATOM     22  C   UNL     1       8.117   8.407  18.165  0.00  0.00    +0.000 C 
BRANCH  22  23
ATOM     23  C   UNL     1       8.285   9.844  17.671  0.00  0.00    +0.000 C 
BRANCH  23  24
ATOM     24  C   UNL     1       9.346  10.556  18.480  0.00  0.00    +0.000 A 
ATOM     25  C   UNL     1       9.274  10.592  19.879  0.00  0.00    +0.000 A 
ATOM     26  C   UNL     1      10.209  11.315  20.623  0.00  0.00    +0.000 A 
ATOM     27  C   UNL     1      11.226  12.015  19.972  0.00  0.00    +0.000 A 
ATOM     28  C   UNL     1      11.305  11.988  18.583  0.00  0.00    +0.000 A 
ATOM     29  C   UNL     1      10.372  11.263  17.839  0.00  0.00    +0.000 A 
ENDBRANCH  23  24
ENDBRANCH  22  23
ENDBRANCH   3  22
TORSDOF 9
ENDMDL
MODEL 9
REMARK VINA RESULT:      -7.1      3.709      6.040
REMARK  Name = 
REMARK  9 active torsions:
REMARK  status: ('A' for Active; 'I' for Inactive)
REMARK    1  A    between atoms: C_2  and  C_3
REMARK    2  A    between atoms: C_9  and  N_10
REMARK    3  A    between atoms: N_10  and  C_11
REMARK    4  A    between atoms: C_11  and  C_12
REMARK    5  A    between atoms: C_12  and  C_13
REMARK    6  A    between atoms: C_13  and  O_14
REMARK    7  A    between atoms: C_16  and  C_17
REMARK    8  A    between atoms: C_17  and  C_18
REMARK    9  A    between atoms: C_18  and  C_19
REMARK                            x       y       z     vdW  Elec       q    Type
REMARK                         _______ _______ _______ _____ _____    ______ ____
ROOT
ATOM      1  C   UNL     1       5.382   5.360  17.199  0.00  0.00    +0.000 C 
ATOM      2  C   UNL     1       4.670   4.632  15.999  0.00  0.00    +0.000 C 
ATOM      3  C   UNL     1       5.643   5.357  15.010  0.00  0.00    +0.000 C 
ATOM      4  C   UNL     1       5.812   6.425  16.120  0.00  0.00    +0.000 C 
ENDROOT
BRANCH   1   5
ATOM      5  C   UNL     1       4.470   6.047  18.256  0.00  0.00    +0.000 C 
BRANCH   5   6
ATOM      6  N   UNL     1       3.024   5.844  17.983  0.00  0.00    +0.000 N 
ATOM      7  H   UNL     1       2.824   5.685  16.998  0.00  0.00    +0.000 HD
BRANCH   6  14
ATOM      8  C   UNL     1       1.770   5.216  20.000  0.00  0.00    +0.000 A 
ATOM      9  C   UNL     1       1.227   4.164  20.716  0.00  0.00    +0.000 A 
ATOM     10  N   UNL     1       1.304   2.874  20.334  0.00  0.00    +0.000 NA
ATOM     11  C   UNL     1       1.972   2.641  19.208  0.00  0.00    +0.000 A 
ATOM     12  N   UNL     1       2.105   1.342  18.789  0.00  0.00    +0.000 N 
ATOM     13  N   UNL     1       2.498   3.591  18.428  0.00  0.00    +0.000 NA
ATOM     14  C   UNL     1       2.402   4.882  18.808  0.00  0.00    +0.000 A 
ATOM     15  H   UNL     1       1.371   0.767  19.179  0.00  0.00    +0.000 HD
ATOM     16  H   UNL     1       2.248   1.309  17.789  0.00  0.00    +0.000 HD
BRANCH   8  18
ATOM     17  N   UNL     1       1.531   7.583  21.008  0.00  0.00    +0.000 NA
ATOM     18  C   UNL     1       1.640   6.540  20.518  0.00  0.00    +0.000 C 
ENDBRANCH   8  18
ENDBRANCH   6  14
ENDBRANCH   5   6
ENDBRANCH   1   5
BRANCH   1  19
ATOM     19  C   UNL     1       6.359   4.445  17.964  0.00  0.00    +0.000 C 
BRANCH  19  20
ATOM     20  O   UNL     1       5.733   3.511  18.830  0.00  0.00    +0.000 OA
ATOM     21  H   UNL     1       5.912   2.617  18.499  0.00  0.00    +0.000 HD
ENDBRANCH  19  20
ENDBRANCH   1  19
BRANCH   3  22
ATOM     22  C   UNL     1       7.002   4.834  14.529  0.00  0.00    +0.000 C 
BRANCH  22  23
ATOM     23  C   UNL     1       7.191   4.945  13.016  0.00  0.00    +0.000 C 
BRANCH  23  24
ATOM     24  C   UNL     1       6.721   3.679  12.335  0.00  0.00    +0.000 A 
ATOM     25  C   UNL     1       7.643   2.785  11.775  0.00  0.00    +0.000 A 
ATOM     26  C   UNL     1       7.209   1.657  11.076  0.00  0.00    +0.000 A 
ATOM     27  C   UNL     1       5.842   1.414  10.927  0.00  0.00    +0.000 A 
ATOM     28  C   UNL     1       4.918   2.298  11.478  0.00  0.00    +0.000 A 
ATOM     29  C   UNL     1       5.352   3.424  12.178  0.00  0.00    +0.000 A 
ENDBRANCH  23  24
ENDBRANCH  22  23
ENDBRANCH   3  22
TORSDOF 9
ENDMDL
