MODEL 1
REMARK VINA RESULT:      -8.3      0.000      0.000
REMARK  Name = 
REMARK  7 active torsions:
REMARK  status: ('A' for Active; 'I' for Inactive)
REMARK    1  A    between atoms: C_1  and  C_2
REMARK    2  A    between atoms: C_5  and  C_6
REMARK    3  A    between atoms: C_7  and  C_8
REMARK    4  A    between atoms: C_8  and  N_9
REMARK    5  A    between atoms: C_11  and  C_12
REMARK    6  A    between atoms: C_12  and  O_14
REMARK    7  A    between atoms: C_15  and  C_16
REMARK                            x       y       z     vdW  Elec       q    Type
REMARK                         _______ _______ _______ _____ _____    ______ ____
ROOT
ATOM      1  N   UNL     1       4.392   3.534  17.596  0.00  0.00    +0.000 NA
ATOM      2  C   UNL     1       3.234   2.667  17.875  0.00  0.00    +0.000 C 
ATOM      3  C   UNL     1       2.143   3.585  18.426  0.00  0.00    +0.000 C 
ATOM      4  C   UNL     1       2.955   4.542  19.313  0.00  0.00    +0.000 C 
ATOM      5  C   UNL     1       4.361   4.550  18.680  0.00  0.00    +0.000 C 
ENDROOT
BRANCH   4   6
ATOM      6  C   UNL     1       2.347   5.921  19.538  0.00  0.00    +0.000 A 
ATOM      7  C   UNL     1       2.494   6.909  18.543  0.00  0.00    +0.000 A 
ATOM      8  C   UNL     1       2.079   8.227  18.773  0.00  0.00    +0.000 A 
ATOM      9  C   UNL     1       1.498   8.570  19.988  0.00  0.00    +0.000 A 
ATOM     10  C   UNL     1       1.293   7.598  20.959  0.00  0.00    +0.000 A 
ATOM     11  C   UNL     1       1.703   6.280  20.730  0.00  0.00    +0.000 A 
ENDBRANCH   4   6
BRANCH   3  12
ATOM     12  C   UNL     1       1.076   2.775  19.132  0.00  0.00    +0.000 C 
ATOM     13  O   UNL     1       0.938   2.766  20.348  0.00  0.00    +0.000 OA
BRANCH  12  14
ATOM     14  O   UNL     1       0.328   1.975  18.344  0.00  0.00    +0.000 OA
ATOM     15  H   UNL     1      -0.075   1.192  18.766  0.00  0.00    +0.000 HD
ENDBRANCH  12  14
ENDBRANCH   3  12
BRANCH   1  16
ATOM     16  C   UNL     1       4.367   4.175  16.264  0.00  0.00    +0.000 C 
BRANCH  16  23
ATOM     17  C   UNL     1       6.105   6.738  17.466  0.00  0.00    +0.000 C 
ATOM     18  C   UNL     1       6.459   5.803  16.377  0.00  0.00    +0.000 A 
ATOM     19  N   UNL     1       7.611   5.982  15.720  0.00  0.00    +0.000 NA
ATOM     20  O   UNL     1       7.572   5.114  14.657  0.00  0.00    +0.000 OA
ATOM     21  C   UNL     1       6.407   4.418  14.679  0.00  0.00    +0.000 A 
ATOM     22  C   UNL     1       6.156   3.603  13.474  0.00  0.00    +0.000 C 
ATOM     23  C   UNL     1       5.696   4.725  15.835  0.00  0.00    +0.000 A 
ENDBRANCH  16  23
ENDBRANCH   1  16
TORSDOF 5
ENDMDL
MODEL 2
REMARK VINA RESULT:      -8.0      1.705      2.302
REMARK  Name = 
REMARK  7 active torsions:
REMARK  status: ('A' for Active; 'I' for Inactive)
REMARK    1  A    between atoms: C_1  and  C_2
REMARK    2  A    between atoms: C_5  and  C_6
REMARK    3  A    between atoms: C_7  and  C_8
REMARK    4  A    between atoms: C_8  and  N_9
REMARK    5  A    between atoms: C_11  and  C_12
REMARK    6  A    between atoms: C_12  and  O_14
REMARK    7  A    between atoms: C_15  and  C_16
REMARK                            x       y       z     vdW  Elec       q    Type
REMARK                         _______ _______ _______ _____ _____    ______ ____
ROOT
ATOM      1  N   UNL     1       4.868   3.883  19.007  0.00  0.00    +0.000 NA
ATOM      2  C   UNL     1       3.647   3.059  18.967  0.00  0.00    +0.000 C 
ATOM      3  C   UNL     1       2.484   4.037  18.801  0.00  0.00    +0.000 C 
ATOM      4  C   UNL     1       2.918   5.198  19.710  0.00  0.00    +0.000 C 
ATOM      5  C   UNL     1       4.458   5.114  19.728  0.00  0.00    +0.000 C 
ENDROOT
BRANCH   4   6
ATOM      6  C   UNL     1       2.357   6.570  19.354  0.00  0.00    +0.000 A 
ATOM      7  C   UNL     1       2.527   7.066  18.045  0.00  0.00    +0.000 A 
ATOM      8  C   UNL     1       2.157   8.376  17.721  0.00  0.00    +0.000 A 
ATOM      9  C   UNL     1       1.597   9.200  18.690  0.00  0.00    +0.000 A 
ATOM     10  C   UNL     1       1.368   8.711  19.970  0.00  0.00    +0.000 A 
ATOM     11  C   UNL     1       1.733   7.400  20.296  0.00  0.00    +0.000 A 
ENDBRANCH   4   6
BRANCH   3  12
ATOM     12  C   UNL     1       1.175   3.369  19.164  0.00  0.00    +0.000 C 
ATOM     13  O   UNL     1       0.607   2.569  18.432  0.00  0.00    +0.000 OA
BRANCH  12  14
ATOM     14  O   UNL     1       0.606   3.776  20.317  0.00  0.00    +0.000 OA
ATOM     15  H   UNL     1       0.225   3.084  20.890  0.00  0.00    +0.000 HD
ENDBRANCH  12  14
ENDBRANCH   3  12
BRANCH   1  16
ATOM     16  C   UNL     1       5.430   4.204  17.677  0.00  0.00    +0.000 C 
BRANCH  16  23
ATOM     17  C   UNL     1       5.134   6.702  15.506  0.00  0.00    +0.000 C 
ATOM     18  C   UNL     1       5.981   6.614  16.715  0.00  0.00    +0.000 A 
ATOM     19  N   UNL     1       6.793   7.638  17.011  0.00  0.00    +0.000 NA
ATOM     20  O   UNL     1       7.586   7.197  18.041  0.00  0.00    +0.000 OA
ATOM     21  C   UNL     1       7.251   5.922  18.362  0.00  0.00    +0.000 A 
ATOM     22  C   UNL     1       8.170   5.266  19.313  0.00  0.00    +0.000 C 
ATOM     23  C   UNL     1       6.137   5.528  17.627  0.00  0.00    +0.000 A 
ENDBRANCH  16  23
ENDBRANCH   1  16
TORSDOF 5
ENDMDL
MODEL 3
REMARK VINA RESULT:      -8.0      0.962      1.919
REMARK  Name = 
REMARK  7 active torsions:
REMARK  status: ('A' for Active; 'I' for Inactive)
REMARK    1  A    between atoms: C_1  and  C_2
REMARK    2  A    between atoms: C_5  and  C_6
REMARK    3  A    between atoms: C_7  and  C_8
REMARK    4  A    between atoms: C_8  and  N_9
REMARK    5  A    between atoms: C_11  and  C_12
REMARK    6  A    between atoms: C_12  and  O_14
REMARK    7  A    between atoms: C_15  and  C_16
REMARK                            x       y       z     vdW  Elec       q    Type
REMARK                         _______ _______ _______ _____ _____    ______ ____
ROOT
ATOM      1  N   UNL     1       4.547   4.637  18.018  0.00  0.00    +0.000 NA
ATOM      2  C   UNL     1       3.527   3.645  18.402  0.00  0.00    +0.000 C 
ATOM      3  C   UNL     1       2.317   4.448  18.879  0.00  0.00    +0.000 C 
ATOM      4  C   UNL     1       2.985   5.595  19.653  0.00  0.00    +0.000 C 
ATOM      5  C   UNL     1       4.374   5.741  18.996  0.00  0.00    +0.000 C 
ENDROOT
BRANCH   4   6
ATOM      6  C   UNL     1       2.186   6.889  19.750  0.00  0.00    +0.000 A 
ATOM      7  C   UNL     1       2.187   7.784  18.660  0.00  0.00    +0.000 A 
ATOM      8  C   UNL     1       1.588   9.045  18.767  0.00  0.00    +0.000 A 
ATOM      9  C   UNL     1       0.965   9.420  19.951  0.00  0.00    +0.000 A 
ATOM     10  C   UNL     1       0.904   8.531  21.016  0.00  0.00    +0.000 A 
ATOM     11  C   UNL     1       1.499   7.269  20.912  0.00  0.00    +0.000 A 
ENDBRANCH   4   6
BRANCH   3  12
ATOM     12  C   UNL     1       1.380   3.569  19.680  0.00  0.00    +0.000 C 
ATOM     13  O   UNL     1       1.271   3.643  20.896  0.00  0.00    +0.000 OA
BRANCH  12  14
ATOM     14  O   UNL     1       0.728   2.617  18.982  0.00  0.00    +0.000 OA
ATOM     15  H   UNL     1       0.037   2.117  19.457  0.00  0.00    +0.000 HD
ENDBRANCH  12  14
ENDBRANCH   3  12
BRANCH   1  16
ATOM     16  C   UNL     1       4.426   5.130  16.630  0.00  0.00    +0.000 C 
BRANCH  16  23
ATOM     17  C   UNL     1       5.643   3.786  13.845  0.00  0.00    +0.000 C 
ATOM     18  C   UNL     1       6.252   4.798  14.734  0.00  0.00    +0.000 A 
ATOM     19  N   UNL     1       7.481   5.250  14.452  0.00  0.00    +0.000 NA
ATOM     20  O   UNL     1       7.858   6.002  15.536  0.00  0.00    +0.000 OA
ATOM     21  C   UNL     1       6.863   6.004  16.459  0.00  0.00    +0.000 A 
ATOM     22  C   UNL     1       7.230   6.606  17.756  0.00  0.00    +0.000 C 
ATOM     23  C   UNL     1       5.747   5.347  15.950  0.00  0.00    +0.000 A 
ENDBRANCH  16  23
ENDBRANCH   1  16
TORSDOF 5
ENDMDL
MODEL 4
REMARK VINA RESULT:      -8.0      0.536      1.158
REMARK  Name = 
REMARK  7 active torsions:
REMARK  status: ('A' for Active; 'I' for Inactive)
REMARK    1  A    between atoms: C_1  and  C_2
REMARK    2  A    between atoms: C_5  and  C_6
REMARK    3  A    between atoms: C_7  and  C_8
REMARK    4  A    between atoms: C_8  and  N_9
REMARK    5  A    between atoms: C_11  and  C_12
REMARK    6  A    between atoms: C_12  and  O_14
REMARK    7  A    between atoms: C_15  and  C_16
REMARK                            x       y       z     vdW  Elec       q    Type
REMARK                         _______ _______ _______ _____ _____    ______ ____
ROOT
ATOM      1  N   UNL     1       4.350   3.940  17.921  0.00  0.00    +0.000 NA
ATOM      2  C   UNL     1       3.171   3.131  18.275  0.00  0.00    +0.000 C 
ATOM      3  C   UNL     1       2.113   4.119  18.767  0.00  0.00    +0.000 C 
ATOM      4  C   UNL     1       2.964   5.114  19.573  0.00  0.00    +0.000 C 
ATOM      5  C   UNL     1       4.362   5.033  18.927  0.00  0.00    +0.000 C 
ENDROOT
BRANCH   4   6
ATOM      6  C   UNL     1       2.399   6.524  19.701  0.00  0.00    +0.000 A 
ATOM      7  C   UNL     1       1.737   6.896  20.888  0.00  0.00    +0.000 A 
ATOM      8  C   UNL     1       1.080   8.128  20.987  0.00  0.00    +0.000 A 
ATOM      9  C   UNL     1       1.090   9.009  19.913  0.00  0.00    +0.000 A 
ATOM     10  C   UNL     1       1.785   8.685  18.755  0.00  0.00    +0.000 A 
ATOM     11  C   UNL     1       2.446   7.456  18.654  0.00  0.00    +0.000 A 
ENDBRANCH   4   6
BRANCH   3  12
ATOM     12  C   UNL     1       1.032   3.396  19.541  0.00  0.00    +0.000 C 
ATOM     13  O   UNL     1       0.867   3.532  20.746  0.00  0.00    +0.000 OA
BRANCH  12  14
ATOM     14  O   UNL     1       0.303   2.504  18.839  0.00  0.00    +0.000 OA
ATOM     15  H   UNL     1       0.360   1.570  19.117  0.00  0.00    +0.000 HD
ENDBRANCH  12  14
ENDBRANCH   3  12
BRANCH   1  16
ATOM     16  C   UNL     1       4.328   4.481  16.545  0.00  0.00    +0.000 C 
BRANCH  16  23
ATOM     17  C   UNL     1       6.214   7.031  17.536  0.00  0.00    +0.000 C 
ATOM     18  C   UNL     1       6.497   6.007  16.507  0.00  0.00    +0.000 A 
ATOM     19  N   UNL     1       7.642   6.085  15.817  0.00  0.00    +0.000 NA
ATOM     20  O   UNL     1       7.537   5.150  14.817  0.00  0.00    +0.000 OA
ATOM     21  C   UNL     1       6.342   4.515  14.909  0.00  0.00    +0.000 A 
ATOM     22  C   UNL     1       6.025   3.635  13.767  0.00  0.00    +0.000 C 
ATOM     23  C   UNL     1       5.672   4.934  16.054  0.00  0.00    +0.000 A 
ENDBRANCH  16  23
ENDBRANCH   1  16
TORSDOF 5
ENDMDL
MODEL 5
REMARK VINA RESULT:      -7.9      1.731      2.538
REMARK  Name = 
REMARK  7 active torsions:
REMARK  status: ('A' for Active; 'I' for Inactive)
REMARK    1  A    between atoms: C_1  and  C_2
REMARK    2  A    between atoms: C_5  and  C_6
REMARK    3  A    between atoms: C_7  and  C_8
REMARK    4  A    between atoms: C_8  and  N_9
REMARK    5  A    between atoms: C_11  and  C_12
REMARK    6  A    between atoms: C_12  and  O_14
REMARK    7  A    between atoms: C_15  and  C_16
REMARK                            x       y       z     vdW  Elec       q    Type
REMARK                         _______ _______ _______ _____ _____    ______ ____
ROOT
ATOM      1  N   UNL     1       4.902   3.914  19.015  0.00  0.00    +0.000 NA
ATOM      2  C   UNL     1       3.640   3.156  18.959  0.00  0.00    +0.000 C 
ATOM      3  C   UNL     1       2.531   4.194  18.789  0.00  0.00    +0.000 C 
ATOM      4  C   UNL     1       3.017   5.326  19.708  0.00  0.00    +0.000 C 
ATOM      5  C   UNL     1       4.551   5.162  19.739  0.00  0.00    +0.000 C 
ENDROOT
BRANCH   4   6
ATOM      6  C   UNL     1       2.531   6.727  19.354  0.00  0.00    +0.000 A 
ATOM      7  C   UNL     1       1.871   7.496  20.335  0.00  0.00    +0.000 A 
ATOM      8  C   UNL     1       1.283   8.723  20.008  0.00  0.00    +0.000 A 
ATOM      9  C   UNL     1       1.361   9.207  18.708  0.00  0.00    +0.000 A 
ATOM     10  C   UNL     1       2.055   8.491  17.741  0.00  0.00    +0.000 A 
ATOM     11  C   UNL     1       2.647   7.266  18.065  0.00  0.00    +0.000 A 
ENDBRANCH   4   6
BRANCH   3  12
ATOM     12  C   UNL     1       1.186   3.593  19.136  0.00  0.00    +0.000 C 
ATOM     13  O   UNL     1       0.581   2.833  18.391  0.00  0.00    +0.000 OA
BRANCH  12  14
ATOM     14  O   UNL     1       0.632   4.018  20.290  0.00  0.00    +0.000 OA
ATOM     15  H   UNL     1       0.971   4.855  20.660  0.00  0.00    +0.000 HD
ENDBRANCH  12  14
ENDBRANCH   3  12
BRANCH   1  16
ATOM     16  C   UNL     1       5.492   4.213  17.692  0.00  0.00    +0.000 C 
BRANCH  16  23
ATOM     17  C   UNL     1       5.181   6.683  15.491  0.00  0.00    +0.000 C 
ATOM     18  C   UNL     1       6.024   6.617  16.704  0.00  0.00    +0.000 A 
ATOM     19  N   UNL     1       6.824   7.652  16.991  0.00  0.00    +0.000 NA
ATOM     20  O   UNL     1       7.618   7.230  18.029  0.00  0.00    +0.000 OA
ATOM     21  C   UNL     1       7.294   5.956  18.363  0.00  0.00    +0.000 A 
ATOM     22  C   UNL     1       8.216   5.320  19.325  0.00  0.00    +0.000 C 
ATOM     23  C   UNL     1       6.187   5.543  17.629  0.00  0.00    +0.000 A 
ENDBRANCH  16  23
ENDBRANCH   1  16
TORSDOF 5
ENDMDL
MODEL 6
REMARK VINA RESULT:      -7.9      0.990      2.203
REMARK  Name = 
REMARK  7 active torsions:
REMARK  status: ('A' for Active; 'I' for Inactive)
REMARK    1  A    between atoms: C_1  and  C_2
REMARK    2  A    between atoms: C_5  and  C_6
REMARK    3  A    between atoms: C_7  and  C_8
REMARK    4  A    between atoms: C_8  and  N_9
REMARK    5  A    between atoms: C_11  and  C_12
REMARK    6  A    between atoms: C_12  and  O_14
REMARK    7  A    between atoms: C_15  and  C_16
REMARK                            x       y       z     vdW  Elec       q    Type
REMARK                         _______ _______ _______ _____ _____    ______ ____
ROOT
ATOM      1  N   UNL     1       4.463   4.623  17.961  0.00  0.00    +0.000 NA
ATOM      2  C   UNL     1       3.363   3.714  18.329  0.00  0.00    +0.000 C 
ATOM      3  C   UNL     1       2.223   4.608  18.816  0.00  0.00    +0.000 C 
ATOM      4  C   UNL     1       2.982   5.684  19.607  0.00  0.00    +0.000 C 
ATOM      5  C   UNL     1       4.380   5.723  18.955  0.00  0.00    +0.000 C 
ENDROOT
BRANCH   4   6
ATOM      6  C   UNL     1       2.293   7.038  19.723  0.00  0.00    +0.000 A 
ATOM      7  C   UNL     1       1.611   7.365  20.913  0.00  0.00    +0.000 A 
ATOM      8  C   UNL     1       0.844   8.534  21.003  0.00  0.00    +0.000 A 
ATOM      9  C   UNL     1       0.764   9.396  19.917  0.00  0.00    +0.000 A 
ATOM     10  C   UNL     1       1.474   9.121  18.756  0.00  0.00    +0.000 A 
ATOM     11  C   UNL     1       2.244   7.956  18.664  0.00  0.00    +0.000 A 
ENDBRANCH   4   6
BRANCH   3  12
ATOM     12  C   UNL     1       1.214   3.798  19.603  0.00  0.00    +0.000 C 
ATOM     13  O   UNL     1       1.031   3.943  20.804  0.00  0.00    +0.000 OA
BRANCH  12  14
ATOM     14  O   UNL     1       0.581   2.823  18.918  0.00  0.00    +0.000 OA
ATOM     15  H   UNL     1       0.875   1.907  19.081  0.00  0.00    +0.000 HD
ENDBRANCH  12  14
ENDBRANCH   3  12
BRANCH   1  16
ATOM     16  C   UNL     1       4.387   5.145  16.580  0.00  0.00    +0.000 C 
BRANCH  16  23
ATOM     17  C   UNL     1       5.721   3.719  13.891  0.00  0.00    +0.000 C 
ATOM     18  C   UNL     1       6.285   4.770  14.764  0.00  0.00    +0.000 A 
ATOM     19  N   UNL     1       7.517   5.229  14.510  0.00  0.00    +0.000 NA
ATOM     20  O   UNL     1       7.845   6.025  15.580  0.00  0.00    +0.000 OA
ATOM     21  C   UNL     1       6.817   6.046  16.465  0.00  0.00    +0.000 A 
ATOM     22  C   UNL     1       7.129   6.699  17.752  0.00  0.00    +0.000 C 
ATOM     23  C   UNL     1       5.729   5.356  15.941  0.00  0.00    +0.000 A 
ENDBRANCH  16  23
ENDBRANCH   1  16
TORSDOF 5
ENDMDL
MODEL 7
REMARK VINA RESULT:      -7.8      2.464      6.664
REMARK  Name = 
REMARK  7 active torsions:
REMARK  status: ('A' for Active; 'I' for Inactive)
REMARK    1  A    between atoms: C_1  and  C_2
REMARK    2  A    between atoms: C_5  and  C_6
REMARK    3  A    between atoms: C_7  and  C_8
REMARK    4  A    between atoms: C_8  and  N_9
REMARK    5  A    between atoms: C_11  and  C_12
REMARK    6  A    between atoms: C_12  and  O_14
REMARK    7  A    between atoms: C_15  and  C_16
REMARK                            x       y       z     vdW  Elec       q    Type
REMARK                         _______ _______ _______ _____ _____    ______ ____
ROOT
ATOM      1  N   UNL     1       3.961   4.039  18.026  0.00  0.00    +0.000 NA
ATOM      2  C   UNL     1       5.172   4.568  18.679  0.00  0.00    +0.000 C 
ATOM      3  C   UNL     1       6.130   4.944  17.549  0.00  0.00    +0.000 C 
ATOM      4  C   UNL     1       5.912   3.792  16.555  0.00  0.00    +0.000 C 
ATOM      5  C   UNL     1       4.472   3.313  16.835  0.00  0.00    +0.000 C 
ENDROOT
BRANCH   4   6
ATOM      6  C   UNL     1       6.207   4.108  15.093  0.00  0.00    +0.000 A 
ATOM      7  C   UNL     1       5.461   3.464  14.085  0.00  0.00    +0.000 A 
ATOM      8  C   UNL     1       5.799   3.615  12.735  0.00  0.00    +0.000 A 
ATOM      9  C   UNL     1       6.871   4.422  12.373  0.00  0.00    +0.000 A 
ATOM     10  C   UNL     1       7.582   5.110  13.348  0.00  0.00    +0.000 A 
ATOM     11  C   UNL     1       7.244   4.964  14.698  0.00  0.00    +0.000 A 
ENDBRANCH   4   6
BRANCH   3  12
ATOM     12  C   UNL     1       7.539   5.099  18.080  0.00  0.00    +0.000 C 
ATOM     13  O   UNL     1       7.939   6.119  18.626  0.00  0.00    +0.000 OA
BRANCH  12  14
ATOM     14  O   UNL     1       8.377   4.071  17.833  0.00  0.00    +0.000 OA
ATOM     15  H   UNL     1       8.041   3.355  17.261  0.00  0.00    +0.000 HD
ENDBRANCH  12  14
ENDBRANCH   3  12
BRANCH   1  16
ATOM     16  C   UNL     1       2.976   5.073  17.640  0.00  0.00    +0.000 C 
BRANCH  16  23
ATOM     17  C   UNL     1       1.452   4.224  20.467  0.00  0.00    +0.000 C 
ATOM     18  C   UNL     1       1.901   5.558  20.016  0.00  0.00    +0.000 A 
ATOM     19  N   UNL     1       1.657   6.620  20.795  0.00  0.00    +0.000 NA
ATOM     20  O   UNL     1       1.993   7.718  20.042  0.00  0.00    +0.000 OA
ATOM     21  C   UNL     1       2.438   7.317  18.824  0.00  0.00    +0.000 A 
ATOM     22  C   UNL     1       2.633   8.411  17.852  0.00  0.00    +0.000 C 
ATOM     23  C   UNL     1       2.522   5.929  18.786  0.00  0.00    +0.000 A 
ENDBRANCH  16  23
ENDBRANCH   1  16
TORSDOF 5
ENDMDL
MODEL 8
REMARK VINA RESULT:      -7.7      1.954      7.066
REMARK  Name = 
REMARK  7 active torsions:
REMARK  status: ('A' for Active; 'I' for Inactive)
REMARK    1  A    between atoms: C_1  and  C_2
REMARK    2  A    between atoms: C_5  and  C_6
REMARK    3  A    between atoms: C_7  and  C_8
REMARK    4  A    between atoms: C_8  and  N_9
REMARK    5  A    between atoms: C_11  and  C_12
REMARK    6  A    between atoms: C_12  and  O_14
REMARK    7  A    between atoms: C_15  and  C_16
REMARK                            x       y       z     vdW  Elec       q    Type
REMARK                         _______ _______ _______ _____ _____    ______ ____
ROOT
ATOM      1  N   UNL     1       4.800   4.257  18.266  0.00  0.00    +0.000 NA
ATOM      2  C   UNL     1       5.595   5.453  18.595  0.00  0.00    +0.000 C 
ATOM      3  C   UNL     1       6.219   5.919  17.279  0.00  0.00    +0.000 C 
ATOM      4  C   UNL     1       6.588   4.583  16.616  0.00  0.00    +0.000 C 
ATOM      5  C   UNL     1       5.584   3.572  17.208  0.00  0.00    +0.000 C 
ENDROOT
BRANCH   4   6
ATOM      6  C   UNL     1       6.662   4.593  15.093  0.00  0.00    +0.000 A 
ATOM      7  C   UNL     1       5.755   3.805  14.354  0.00  0.00    +0.000 A 
ATOM      8  C   UNL     1       5.886   3.673  12.966  0.00  0.00    +0.000 A 
ATOM      9  C   UNL     1       6.906   4.338  12.298  0.00  0.00    +0.000 A 
ATOM     10  C   UNL     1       7.774   5.164  13.001  0.00  0.00    +0.000 A 
ATOM     11  C   UNL     1       7.645   5.300  14.387  0.00  0.00    +0.000 A 
ENDBRANCH   4   6
BRANCH   3  12
ATOM     12  C   UNL     1       7.371   6.865  17.546  0.00  0.00    +0.000 C 
ATOM     13  O   UNL     1       7.679   7.774  16.787  0.00  0.00    +0.000 OA
BRANCH  12  14
ATOM     14  O   UNL     1       8.116   6.591  18.636  0.00  0.00    +0.000 OA
ATOM     15  H   UNL     1       8.661   7.318  18.992  0.00  0.00    +0.000 HD
ENDBRANCH  12  14
ENDBRANCH   3  12
BRANCH   1  16
ATOM     16  C   UNL     1       3.424   4.548  17.808  0.00  0.00    +0.000 C 
BRANCH  16  23
ATOM     17  C   UNL     1       1.169   2.265  18.669  0.00  0.00    +0.000 C 
ATOM     18  C   UNL     1       1.468   3.565  19.307  0.00  0.00    +0.000 A 
ATOM     19  N   UNL     1       0.739   3.950  20.362  0.00  0.00    +0.000 NA
ATOM     20  O   UNL     1       1.097   5.253  20.604  0.00  0.00    +0.000 OA
ATOM     21  C   UNL     1       2.034   5.644  19.704  0.00  0.00    +0.000 A 
ATOM     22  C   UNL     1       2.346   7.087  19.732  0.00  0.00    +0.000 C 
ATOM     23  C   UNL     1       2.411   4.563  18.915  0.00  0.00    +0.000 A 
ENDBRANCH  16  23
ENDBRANCH   1  16
TORSDOF 5
ENDMDL
MODEL 9
REMARK VINA RESULT:      -7.7      2.296      6.792
REMARK  Name = 
REMARK  7 active torsions:
REMARK  status: ('A' for Active; 'I' for Inactive)
REMARK    1  A    between atoms: C_1  and  C_2
REMARK    2  A    between atoms: C_5  and  C_6
REMARK    3  A    between atoms: C_7  and  C_8
REMARK    4  A    between atoms: C_8  and  N_9
REMARK    5  A    between atoms: C_11  and  C_12
REMARK    6  A    between atoms: C_12  and  O_14
REMARK    7  A    between atoms: C_15  and  C_16
REMARK                            x       y       z     vdW  Elec       q    Type
REMARK                         _______ _______ _______ _____ _____    ______ ____
ROOT
ATOM      1  N   UNL     1       4.553   4.441  18.460  0.00  0.00    +0.000 NA
ATOM      2  C   UNL     1       5.474   5.546  18.781  0.00  0.00    +0.000 C 
ATOM      3  C   UNL     1       6.143   5.934  17.463  0.00  0.00    +0.000 C 
ATOM      4  C   UNL     1       6.365   4.563  16.807  0.00  0.00    +0.000 C 
ATOM      5  C   UNL     1       5.258   3.669  17.406  0.00  0.00    +0.000 C 
ENDROOT
BRANCH   4   6
ATOM      6  C   UNL     1       6.438   4.555  15.285  0.00  0.00    +0.000 A 
ATOM      7  C   UNL     1       5.463   3.848  14.551  0.00  0.00    +0.000 A 
ATOM      8  C   UNL     1       5.580   3.696  13.164  0.00  0.00    +0.000 A 
ATOM      9  C   UNL     1       6.656   4.260  12.492  0.00  0.00    +0.000 A 
ATOM     10  C   UNL     1       7.597   5.008  13.188  0.00  0.00    +0.000 A 
ATOM     11  C   UNL     1       7.481   5.165  14.574  0.00  0.00    +0.000 A 
ENDBRANCH   4   6
BRANCH   3  12
ATOM     12  C   UNL     1       7.391   6.751  17.723  0.00  0.00    +0.000 C 
ATOM     13  O   UNL     1       7.780   7.635  16.972  0.00  0.00    +0.000 OA
BRANCH  12  14
ATOM     14  O   UNL     1       8.118   6.386  18.799  0.00  0.00    +0.000 OA
ATOM     15  H   UNL     1       9.066   6.207  18.650  0.00  0.00    +0.000 HD
ENDBRANCH  12  14
ENDBRANCH   3  12
BRANCH   1  16
ATOM     16  C   UNL     1       3.217   4.876  18.000  0.00  0.00    +0.000 C 
BRANCH  16  23
ATOM     17  C   UNL     1       2.954   8.182  17.786  0.00  0.00    +0.000 C 
ATOM     18  C   UNL     1       2.405   7.268  18.811  0.00  0.00    +0.000 A 
ATOM     19  N   UNL     1       1.729   7.787  19.843  0.00  0.00    +0.000 NA
ATOM     20  O   UNL     1       1.526   6.747  20.716  0.00  0.00    +0.000 OA
ATOM     21  C   UNL     1       2.074   5.614  20.209  0.00  0.00    +0.000 A 
ATOM     22  C   UNL     1       2.104   4.474  21.148  0.00  0.00    +0.000 C 
ATOM     23  C   UNL     1       2.550   5.853  18.924  0.00  0.00    +0.000 A 
ENDBRANCH  16  23
ENDBRANCH   1  16
TORSDOF 5
ENDMDL
