MODEL 1
REMARK VINA RESULT:      -7.8      0.000      0.000
REMARK  Name = 
REMARK  8 active torsions:
REMARK  status: ('A' for Active; 'I' for Inactive)
REMARK    1  A    between atoms: C_1  and  C_2
REMARK    2  A    between atoms: C_5  and  N_6
REMARK    3  A    between atoms: C_7  and  C_9
REMARK    4  A    between atoms: C_10  and  C_11
REMARK    5  A    between atoms: C_10  and  C_12
REMARK    6  A    between atoms: C_16  and  C_17
REMARK    7  A    between atoms: C_20  and  S_21
REMARK    8  A    between atoms: S_21  and  N_24
REMARK                            x       y       z     vdW  Elec       q    Type
REMARK                         _______ _______ _______ _____ _____    ______ ____
ROOT
ATOM      1  C   UNL     1      -0.397  11.644  22.066  0.00  0.00    +0.000 C 
ATOM      2  C   UNL     1       0.399  10.510  21.484  0.00  0.00    +0.000 A 
ATOM      3  C   UNL     1       1.071   9.705  22.411  0.00  0.00    +0.000 A 
ATOM      4  C   UNL     1       1.596   8.464  22.040  0.00  0.00    +0.000 A 
ATOM      5  C   UNL     1       1.437   7.994  20.745  0.00  0.00    +0.000 A 
ATOM      6  C   UNL     1       0.852   8.834  19.780  0.00  0.00    +0.000 A 
ATOM      7  C   UNL     1       0.354  10.114  20.134  0.00  0.00    +0.000 A 
ENDROOT
BRANCH   5   8
ATOM      8  N   UNL     1       1.734   6.656  20.404  0.00  0.00    +0.000 N 
ATOM      9  C   UNL     1       2.663   6.246  19.450  0.00  0.00    +0.000 C 
ATOM     10  O   UNL     1       3.138   6.946  18.564  0.00  0.00    +0.000 OA
ATOM     11  H   UNL     1       1.277   5.936  20.950  0.00  0.00    +0.000 HD
BRANCH   9  12
ATOM     12  C   UNL     1       2.985   4.760  19.559  0.00  0.00    +0.000 C 
ATOM     13  C   UNL     1       2.023   3.872  18.700  0.00  0.00    +0.000 C 
ATOM     14  C   UNL     1       1.011   3.147  19.598  0.00  0.00    +0.000 C 
ATOM     15  C   UNL     1       1.203   4.642  17.636  0.00  0.00    +0.000 C 
ATOM     16  C   UNL     1       3.040   2.932  17.976  0.00  0.00    +0.000 C 
ATOM     17  C   UNL     1       3.755   1.988  18.962  0.00  0.00    +0.000 C 
ATOM     18  C   UNL     1       4.687   2.929  19.736  0.00  0.00    +0.000 C 
ATOM     19  C   UNL     1       4.410   4.310  19.085  0.00  0.00    +0.000 C 
ATOM     20  C   UNL     1       5.560   5.277  19.318  0.00  0.00    +0.000 C 
ATOM     21  C   UNL     1       4.188   3.894  17.629  0.00  0.00    +0.000 C 
ENDBRANCH   9  12
ENDBRANCH   5   8
BRANCH   7  22
ATOM     22  S   UNL     1      -0.565  11.030  18.865  0.00  0.00    +0.000 S 
ATOM     23  O   UNL     1      -0.494  10.227  17.662  0.00  0.00    +0.000 OA
ATOM     24  O   UNL     1      -1.851  11.403  19.419  0.00  0.00    +0.000 OA
BRANCH  22  25
ATOM     25  N   UNL     1       0.292  12.434  18.572  0.00  0.00    +0.000 NA
ATOM     26  C   UNL     1      -0.299  13.792  18.564  0.00  0.00    +0.000 C 
ATOM     27  C   UNL     1       0.337  14.679  19.644  0.00  0.00    +0.000 C 
ATOM     28  O   UNL     1       1.773  14.632  19.654  0.00  0.00    +0.000 OA
ATOM     29  C   UNL     1       2.279  13.289  19.708  0.00  0.00    +0.000 C 
ATOM     30  C   UNL     1       1.764  12.469  18.526  0.00  0.00    +0.000 C 
ENDBRANCH  22  25
ENDBRANCH   7  22
TORSDOF 4
ENDMDL
MODEL 2
REMARK VINA RESULT:      -7.6      1.953      3.018
REMARK  Name = 
REMARK  8 active torsions:
REMARK  status: ('A' for Active; 'I' for Inactive)
REMARK    1  A    between atoms: C_1  and  C_2
REMARK    2  A    between atoms: C_5  and  N_6
REMARK    3  A    between atoms: C_7  and  C_9
REMARK    4  A    between atoms: C_10  and  C_11
REMARK    5  A    between atoms: C_10  and  C_12
REMARK    6  A    between atoms: C_16  and  C_17
REMARK    7  A    between atoms: C_20  and  S_21
REMARK    8  A    between atoms: S_21  and  N_24
REMARK                            x       y       z     vdW  Elec       q    Type
REMARK                         _______ _______ _______ _____ _____    ______ ____
ROOT
ATOM      1  C   UNL     1       1.541  12.464  18.467  0.00  0.00    +0.000 C 
ATOM      2  C   UNL     1       1.438  10.980  18.676  0.00  0.00    +0.000 A 
ATOM      3  C   UNL     1       2.194  10.192  17.800  0.00  0.00    +0.000 A 
ATOM      4  C   UNL     1       2.422   8.838  18.062  0.00  0.00    +0.000 A 
ATOM      5  C   UNL     1       1.920   8.254  19.216  0.00  0.00    +0.000 A 
ATOM      6  C   UNL     1       1.078   9.007  20.052  0.00  0.00    +0.000 A 
ATOM      7  C   UNL     1       0.803  10.371  19.774  0.00  0.00    +0.000 A 
ENDROOT
BRANCH   5   8
ATOM      8  N   UNL     1       2.334   6.968  19.631  0.00  0.00    +0.000 N 
ATOM      9  C   UNL     1       2.292   5.811  18.856  0.00  0.00    +0.000 C 
ATOM     10  O   UNL     1       1.634   5.654  17.835  0.00  0.00    +0.000 OA
ATOM     11  H   UNL     1       2.757   6.901  20.548  0.00  0.00    +0.000 HD
BRANCH   9  12
ATOM     12  C   UNL     1       3.110   4.678  19.466  0.00  0.00    +0.000 C 
ATOM     13  C   UNL     1       2.211   3.559  20.093  0.00  0.00    +0.000 C 
ATOM     14  C   UNL     1       2.227   3.648  21.625  0.00  0.00    +0.000 C 
ATOM     15  C   UNL     1       0.725   3.601  19.661  0.00  0.00    +0.000 C 
ATOM     16  C   UNL     1       2.875   2.271  19.509  0.00  0.00    +0.000 C 
ATOM     17  C   UNL     1       4.299   2.057  20.058  0.00  0.00    +0.000 C 
ATOM     18  C   UNL     1       5.108   3.169  19.378  0.00  0.00    +0.000 C 
ATOM     19  C   UNL     1       4.050   3.883  18.496  0.00  0.00    +0.000 C 
ATOM     20  C   UNL     1       4.701   4.662  17.364  0.00  0.00    +0.000 C 
ATOM     21  C   UNL     1       3.193   2.691  18.065  0.00  0.00    +0.000 C 
ENDBRANCH   9  12
ENDBRANCH   5   8
BRANCH   7  22
ATOM     22  S   UNL     1      -0.124  11.305  21.023  0.00  0.00    +0.000 S 
ATOM     23  O   UNL     1      -0.830  10.321  21.817  0.00  0.00    +0.000 OA
ATOM     24  O   UNL     1       0.785  12.239  21.656  0.00  0.00    +0.000 OA
BRANCH  22  25
ATOM     25  N   UNL     1      -1.276  12.192  20.200  0.00  0.00    +0.000 NA
ATOM     26  C   UNL     1      -1.894  11.781  18.918  0.00  0.00    +0.000 C 
ATOM     27  C   UNL     1      -3.413  11.607  19.066  0.00  0.00    +0.000 C 
ATOM     28  O   UNL     1      -4.054  12.705  19.735  0.00  0.00    +0.000 OA
ATOM     29  C   UNL     1      -3.434  13.021  20.991  0.00  0.00    +0.000 C 
ATOM     30  C   UNL     1      -1.956  13.356  20.796  0.00  0.00    +0.000 C 
ENDBRANCH  22  25
ENDBRANCH   7  22
TORSDOF 4
ENDMDL
MODEL 3
REMARK VINA RESULT:      -7.5      5.941     10.010
REMARK  Name = 
REMARK  8 active torsions:
REMARK  status: ('A' for Active; 'I' for Inactive)
REMARK    1  A    between atoms: C_1  and  C_2
REMARK    2  A    between atoms: C_5  and  N_6
REMARK    3  A    between atoms: C_7  and  C_9
REMARK    4  A    between atoms: C_10  and  C_11
REMARK    5  A    between atoms: C_10  and  C_12
REMARK    6  A    between atoms: C_16  and  C_17
REMARK    7  A    between atoms: C_20  and  S_21
REMARK    8  A    between atoms: S_21  and  N_24
REMARK                            x       y       z     vdW  Elec       q    Type
REMARK                         _______ _______ _______ _____ _____    ______ ____
ROOT
ATOM      1  C   UNL     1       7.616   4.492  17.984  0.00  0.00    +0.000 C 
ATOM      2  C   UNL     1       7.490   5.985  18.087  0.00  0.00    +0.000 A 
ATOM      3  C   UNL     1       8.392   6.609  18.958  0.00  0.00    +0.000 A 
ATOM      4  C   UNL     1       8.583   7.993  18.928  0.00  0.00    +0.000 A 
ATOM      5  C   UNL     1       7.895   8.775  18.011  0.00  0.00    +0.000 A 
ATOM      6  C   UNL     1       6.915   8.176  17.201  0.00  0.00    +0.000 A 
ATOM      7  C   UNL     1       6.681   6.778  17.252  0.00  0.00    +0.000 A 
ENDROOT
BRANCH   5   8
ATOM      8  N   UNL     1       8.241  10.127  17.789  0.00  0.00    +0.000 N 
ATOM      9  C   UNL     1       9.043  10.909  18.618  0.00  0.00    +0.000 C 
ATOM     10  O   UNL     1       9.320  10.664  19.786  0.00  0.00    +0.000 OA
ATOM     11  H   UNL     1       7.932  10.537  16.916  0.00  0.00    +0.000 HD
BRANCH   9  12
ATOM     12  C   UNL     1       9.495  12.195  17.938  0.00  0.00    +0.000 C 
ATOM     13  C   UNL     1       8.832  13.470  18.562  0.00  0.00    +0.000 C 
ATOM     14  C   UNL     1       7.741  14.021  17.634  0.00  0.00    +0.000 C 
ATOM     15  C   UNL     1       8.169  13.247  19.944  0.00  0.00    +0.000 C 
ATOM     16  C   UNL     1      10.071  14.405  18.737  0.00  0.00    +0.000 C 
ATOM     17  C   UNL     1      10.666  14.832  17.381  0.00  0.00    +0.000 C 
ATOM     18  C   UNL     1      11.312  13.542  16.859  0.00  0.00    +0.000 C 
ATOM     19  C   UNL     1      11.027  12.524  17.994  0.00  0.00    +0.000 C 
ATOM     20  C   UNL     1      11.992  11.351  17.946  0.00  0.00    +0.000 C 
ATOM     21  C   UNL     1      11.154  13.428  19.222  0.00  0.00    +0.000 C 
ENDBRANCH   9  12
ENDBRANCH   5   8
BRANCH   7  22
ATOM     22  S   UNL     1       5.545   6.077  16.023  0.00  0.00    +0.000 S 
ATOM     23  O   UNL     1       4.964   7.206  15.327  0.00  0.00    +0.000 OA
ATOM     24  O   UNL     1       6.254   5.051  15.286  0.00  0.00    +0.000 OA
BRANCH  22  25
ATOM     25  N   UNL     1       4.314   5.337  16.875  0.00  0.00    +0.000 NA
ATOM     26  C   UNL     1       4.063   3.876  16.889  0.00  0.00    +0.000 C 
ATOM     27  C   UNL     1       4.192   3.306  18.310  0.00  0.00    +0.000 C 
ATOM     28  O   UNL     1       3.477   4.065  19.299  0.00  0.00    +0.000 OA
ATOM     29  C   UNL     1       3.801   5.463  19.260  0.00  0.00    +0.000 C 
ATOM     30  C   UNL     1       3.505   6.049  17.880  0.00  0.00    +0.000 C 
ENDBRANCH  22  25
ENDBRANCH   7  22
TORSDOF 4
ENDMDL
MODEL 4
REMARK VINA RESULT:      -7.4      2.074      2.860
REMARK  Name = 
REMARK  8 active torsions:
REMARK  status: ('A' for Active; 'I' for Inactive)
REMARK    1  A    between atoms: C_1  and  C_2
REMARK    2  A    between atoms: C_5  and  N_6
REMARK    3  A    between atoms: C_7  and  C_9
REMARK    4  A    between atoms: C_10  and  C_11
REMARK    5  A    between atoms: C_10  and  C_12
REMARK    6  A    between atoms: C_16  and  C_17
REMARK    7  A    between atoms: C_20  and  S_21
REMARK    8  A    between atoms: S_21  and  N_24
REMARK                            x       y       z     vdW  Elec       q    Type
REMARK                         _______ _______ _______ _____ _____    ______ ____
ROOT
ATOM      1  C   UNL     1      -1.614  11.812  21.990  0.00  0.00    +0.000 C 
ATOM      2  C   UNL     1      -0.477  10.876  21.692  0.00  0.00    +0.000 A 
ATOM      3  C   UNL     1      -0.077  10.054  22.752  0.00  0.00    +0.000 A 
ATOM      4  C   UNL     1       0.751   8.949  22.536  0.00  0.00    +0.000 A 
ATOM      5  C   UNL     1       1.174   8.632  21.253  0.00  0.00    +0.000 A 
ATOM      6  C   UNL     1       0.862   9.504  20.195  0.00  0.00    +0.000 A 
ATOM      7  C   UNL     1       0.058  10.652  20.410  0.00  0.00    +0.000 A 
ENDROOT
BRANCH   5   8
ATOM      8  N   UNL     1       1.800   7.398  20.967  0.00  0.00    +0.000 N 
ATOM      9  C   UNL     1       2.253   6.986  19.716  0.00  0.00    +0.000 C 
ATOM     10  O   UNL     1       1.925   7.469  18.639  0.00  0.00    +0.000 OA
ATOM     11  H   UNL     1       1.992   6.793  21.756  0.00  0.00    +0.000 HD
BRANCH   9  12
ATOM     12  C   UNL     1       3.169   5.770  19.805  0.00  0.00    +0.000 C 
ATOM     13  C   UNL     1       2.381   4.442  20.065  0.00  0.00    +0.000 C 
ATOM     14  C   UNL     1       2.558   3.985  21.520  0.00  0.00    +0.000 C 
ATOM     15  C   UNL     1       0.856   4.530  19.810  0.00  0.00    +0.000 C 
ATOM     16  C   UNL     1       3.022   3.493  19.003  0.00  0.00    +0.000 C 
ATOM     17  C   UNL     1       4.502   3.199  19.311  0.00  0.00    +0.000 C 
ATOM     18  C   UNL     1       5.196   4.533  19.006  0.00  0.00    +0.000 C 
ATOM     19  C   UNL     1       4.026   5.437  18.536  0.00  0.00    +0.000 C 
ATOM     20  C   UNL     1       4.525   6.608  17.705  0.00  0.00    +0.000 C 
ATOM     21  C   UNL     1       3.169   4.417  17.783  0.00  0.00    +0.000 C 
ENDBRANCH   9  12
ENDBRANCH   5   8
BRANCH   7  22
ATOM     22  S   UNL     1      -0.457  11.594  18.946  0.00  0.00    +0.000 S 
ATOM     23  O   UNL     1      -0.862  12.897  19.432  0.00  0.00    +0.000 OA
ATOM     24  O   UNL     1       0.584  11.479  17.945  0.00  0.00    +0.000 OA
BRANCH  22  25
ATOM     25  N   UNL     1      -1.825  10.843  18.350  0.00  0.00    +0.000 NA
ATOM     26  C   UNL     1      -3.213  11.231  18.694  0.00  0.00    +0.000 C 
ATOM     27  C   UNL     1      -3.990  11.675  17.446  0.00  0.00    +0.000 C 
ATOM     28  O   UNL     1      -3.860  10.771  16.337  0.00  0.00    +0.000 OA
ATOM     29  C   UNL     1      -2.489  10.474  16.028  0.00  0.00    +0.000 C 
ATOM     30  C   UNL     1      -1.778   9.875  17.240  0.00  0.00    +0.000 C 
ENDBRANCH  22  25
ENDBRANCH   7  22
TORSDOF 4
ENDMDL
MODEL 5
REMARK VINA RESULT:      -7.3      1.019      2.008
REMARK  Name = 
REMARK  8 active torsions:
REMARK  status: ('A' for Active; 'I' for Inactive)
REMARK    1  A    between atoms: C_1  and  C_2
REMARK    2  A    between atoms: C_5  and  N_6
REMARK    3  A    between atoms: C_7  and  C_9
REMARK    4  A    between atoms: C_10  and  C_11
REMARK    5  A    between atoms: C_10  and  C_12
REMARK    6  A    between atoms: C_16  and  C_17
REMARK    7  A    between atoms: C_20  and  S_21
REMARK    8  A    between atoms: S_21  and  N_24
REMARK                            x       y       z     vdW  Elec       q    Type
REMARK                         _______ _______ _______ _____ _____    ______ ____
ROOT
ATOM      1  C   UNL     1      -0.786  11.144  22.452  0.00  0.00    +0.000 C 
ATOM      2  C   UNL     1       0.168  10.321  21.635  0.00  0.00    +0.000 A 
ATOM      3  C   UNL     1       0.860   9.325  22.334  0.00  0.00    +0.000 A 
ATOM      4  C   UNL     1       1.543   8.311  21.658  0.00  0.00    +0.000 A 
ATOM      5  C   UNL     1       1.526   8.259  20.271  0.00  0.00    +0.000 A 
ATOM      6  C   UNL     1       0.919   9.306  19.555  0.00  0.00    +0.000 A 
ATOM      7  C   UNL     1       0.260  10.364  20.231  0.00  0.00    +0.000 A 
ENDROOT
BRANCH   5   8
ATOM      8  N   UNL     1       1.991   7.123  19.570  0.00  0.00    +0.000 N 
ATOM      9  C   UNL     1       2.196   5.858  20.116  0.00  0.00    +0.000 C 
ATOM     10  O   UNL     1       2.297   5.599  21.309  0.00  0.00    +0.000 OA
ATOM     11  H   UNL     1       2.122   7.228  18.572  0.00  0.00    +0.000 HD
BRANCH   9  12
ATOM     12  C   UNL     1       2.374   4.789  19.044  0.00  0.00    +0.000 C 
ATOM     13  C   UNL     1       3.856   4.675  18.550  0.00  0.00    +0.000 C 
ATOM     14  C   UNL     1       4.012   5.304  17.158  0.00  0.00    +0.000 C 
ATOM     15  C   UNL     1       4.901   5.359  19.466  0.00  0.00    +0.000 C 
ATOM     16  C   UNL     1       4.075   3.129  18.593  0.00  0.00    +0.000 C 
ATOM     17  C   UNL     1       3.204   2.394  17.557  0.00  0.00    +0.000 C 
ATOM     18  C   UNL     1       1.787   2.532  18.129  0.00  0.00    +0.000 C 
ATOM     19  C   UNL     1       2.016   3.317  19.447  0.00  0.00    +0.000 C 
ATOM     20  C   UNL     1       0.864   3.123  20.419  0.00  0.00    +0.000 C 
ATOM     21  C   UNL     1       3.357   2.732  19.893  0.00  0.00    +0.000 C 
ENDBRANCH   9  12
ENDBRANCH   5   8
BRANCH   7  22
ATOM     22  S   UNL     1      -0.666  11.551  19.217  0.00  0.00    +0.000 S 
ATOM     23  O   UNL     1      -0.802  10.939  17.911  0.00  0.00    +0.000 OA
ATOM     24  O   UNL     1      -1.841  11.960  19.958  0.00  0.00    +0.000 OA
BRANCH  22  25
ATOM     25  N   UNL     1       0.314  12.891  19.032  0.00  0.00    +0.000 NA
ATOM     26  C   UNL     1      -0.175  14.289  18.985  0.00  0.00    +0.000 C 
ATOM     27  C   UNL     1       0.410  15.120  20.137  0.00  0.00    +0.000 C 
ATOM     28  O   UNL     1       1.830  14.969  20.291  0.00  0.00    +0.000 OA
ATOM     29  C   UNL     1       2.231  13.592  20.376  0.00  0.00    +0.000 C 
ATOM     30  C   UNL     1       1.783  12.820  19.136  0.00  0.00    +0.000 C 
ENDBRANCH  22  25
ENDBRANCH   7  22
TORSDOF 4
ENDMDL
MODEL 6
REMARK VINA RESULT:      -7.3      0.898      1.318
REMARK  Name = 
REMARK  8 active torsions:
REMARK  status: ('A' for Active; 'I' for Inactive)
REMARK    1  A    between atoms: C_1  and  C_2
REMARK    2  A    between atoms: C_5  and  N_6
REMARK    3  A    between atoms: C_7  and  C_9
REMARK    4  A    between atoms: C_10  and  C_11
REMARK    5  A    between atoms: C_10  and  C_12
REMARK    6  A    between atoms: C_16  and  C_17
REMARK    7  A    between atoms: C_20  and  S_21
REMARK    8  A    between atoms: S_21  and  N_24
REMARK                            x       y       z     vdW  Elec       q    Type
REMARK                         _______ _______ _______ _____ _____    ______ ____
ROOT
ATOM      1  C   UNL     1      -0.476  11.633  21.926  0.00  0.00    +0.000 C 
ATOM      2  C   UNL     1       0.384  10.455  21.563  0.00  0.00    +0.000 A 
ATOM      3  C   UNL     1       0.417   9.418  22.502  0.00  0.00    +0.000 A 
ATOM      4  C   UNL     1       0.926   8.159  22.170  0.00  0.00    +0.000 A 
ATOM      5  C   UNL     1       1.390   7.909  20.886  0.00  0.00    +0.000 A 
ATOM      6  C   UNL     1       1.455   8.968  19.964  0.00  0.00    +0.000 A 
ATOM      7  C   UNL     1       0.980  10.261  20.303  0.00  0.00    +0.000 A 
ENDROOT
BRANCH   5   8
ATOM      8  N   UNL     1       1.679   6.596  20.450  0.00  0.00    +0.000 N 
ATOM      9  C   UNL     1       2.645   6.245  19.510  0.00  0.00    +0.000 C 
ATOM     10  O   UNL     1       3.174   7.005  18.707  0.00  0.00    +0.000 OA
ATOM     11  H   UNL     1       1.184   5.844  20.914  0.00  0.00    +0.000 HD
BRANCH   9  12
ATOM     12  C   UNL     1       2.935   4.749  19.511  0.00  0.00    +0.000 C 
ATOM     13  C   UNL     1       1.977   3.951  18.563  0.00  0.00    +0.000 C 
ATOM     14  C   UNL     1       0.929   3.181  19.379  0.00  0.00    +0.000 C 
ATOM     15  C   UNL     1       1.199   4.818  17.544  0.00  0.00    +0.000 C 
ATOM     16  C   UNL     1       2.993   3.047  17.793  0.00  0.00    +0.000 C 
ATOM     17  C   UNL     1       3.665   2.015  18.718  0.00  0.00    +0.000 C 
ATOM     18  C   UNL     1       4.596   2.874  19.585  0.00  0.00    +0.000 C 
ATOM     19  C   UNL     1       4.362   4.306  19.036  0.00  0.00    +0.000 C 
ATOM     20  C   UNL     1       5.524   5.227  19.370  0.00  0.00    +0.000 C 
ATOM     21  C   UNL     1       4.167   4.008  17.548  0.00  0.00    +0.000 C 
ENDBRANCH   9  12
ENDBRANCH   5   8
BRANCH   7  22
ATOM     22  S   UNL     1       0.918  11.499  18.979  0.00  0.00    +0.000 S 
ATOM     23  O   UNL     1       2.021  11.193  18.092  0.00  0.00    +0.000 OA
ATOM     24  O   UNL     1      -0.437  11.549  18.469  0.00  0.00    +0.000 OA
BRANCH  22  25
ATOM     25  N   UNL     1       1.252  12.975  19.687  0.00  0.00    +0.000 NA
ATOM     26  C   UNL     1       2.527  13.314  20.360  0.00  0.00    +0.000 C 
ATOM     27  C   UNL     1       3.227  14.490  19.662  0.00  0.00    +0.000 C 
ATOM     28  O   UNL     1       2.355  15.601  19.397  0.00  0.00    +0.000 OA
ATOM     29  C   UNL     1       1.160  15.210  18.704  0.00  0.00    +0.000 C 
ATOM     30  C   UNL     1       0.391  14.157  19.500  0.00  0.00    +0.000 C 
ENDBRANCH  22  25
ENDBRANCH   7  22
TORSDOF 4
ENDMDL
MODEL 7
REMARK VINA RESULT:      -7.3      1.361      1.759
REMARK  Name = 
REMARK  8 active torsions:
REMARK  status: ('A' for Active; 'I' for Inactive)
REMARK    1  A    between atoms: C_1  and  C_2
REMARK    2  A    between atoms: C_5  and  N_6
REMARK    3  A    between atoms: C_7  and  C_9
REMARK    4  A    between atoms: C_10  and  C_11
REMARK    5  A    between atoms: C_10  and  C_12
REMARK    6  A    between atoms: C_16  and  C_17
REMARK    7  A    between atoms: C_20  and  S_21
REMARK    8  A    between atoms: S_21  and  N_24
REMARK                            x       y       z     vdW  Elec       q    Type
REMARK                         _______ _______ _______ _____ _____    ______ ____
ROOT
ATOM      1  C   UNL     1      -1.502  11.839  21.702  0.00  0.00    +0.000 C 
ATOM      2  C   UNL     1      -0.391  10.832  21.609  0.00  0.00    +0.000 A 
ATOM      3  C   UNL     1      -0.398   9.831  22.587  0.00  0.00    +0.000 A 
ATOM      4  C   UNL     1       0.384   8.681  22.448  0.00  0.00    +0.000 A 
ATOM      5  C   UNL     1       1.169   8.500  21.318  0.00  0.00    +0.000 A 
ATOM      6  C   UNL     1       1.262   9.540  20.377  0.00  0.00    +0.000 A 
ATOM      7  C   UNL     1       0.506  10.731  20.529  0.00  0.00    +0.000 A 
ENDROOT
BRANCH   5   8
ATOM      8  N   UNL     1       1.774   7.256  21.032  0.00  0.00    +0.000 N 
ATOM      9  C   UNL     1       2.236   6.843  19.784  0.00  0.00    +0.000 C 
ATOM     10  O   UNL     1       1.932   7.340  18.706  0.00  0.00    +0.000 OA
ATOM     11  H   UNL     1       1.944   6.642  21.819  0.00  0.00    +0.000 HD
BRANCH   9  12
ATOM     12  C   UNL     1       3.125   5.609  19.877  0.00  0.00    +0.000 C 
ATOM     13  C   UNL     1       2.310   4.299  20.146  0.00  0.00    +0.000 C 
ATOM     14  C   UNL     1       2.481   3.845  21.602  0.00  0.00    +0.000 C 
ATOM     15  C   UNL     1       0.786   4.418  19.893  0.00  0.00    +0.000 C 
ATOM     16  C   UNL     1       2.927   3.332  19.086  0.00  0.00    +0.000 C 
ATOM     17  C   UNL     1       4.402   3.007  19.392  0.00  0.00    +0.000 C 
ATOM     18  C   UNL     1       5.124   4.325  19.079  0.00  0.00    +0.000 C 
ATOM     19  C   UNL     1       3.972   5.251  18.607  0.00  0.00    +0.000 C 
ATOM     20  C   UNL     1       4.494   6.407  17.770  0.00  0.00    +0.000 C 
ATOM     21  C   UNL     1       3.091   4.247  17.862  0.00  0.00    +0.000 C 
ENDBRANCH   9  12
ENDBRANCH   5   8
BRANCH   7  22
ATOM     22  S   UNL     1       0.539  11.919  19.157  0.00  0.00    +0.000 S 
ATOM     23  O   UNL     1       1.769  11.663  18.437  0.00  0.00    +0.000 OA
ATOM     24  O   UNL     1      -0.736  11.856  18.473  0.00  0.00    +0.000 OA
BRANCH  22  25
ATOM     25  N   UNL     1       0.677  13.437  19.842  0.00  0.00    +0.000 NA
ATOM     26  C   UNL     1       1.858  13.912  20.601  0.00  0.00    +0.000 C 
ATOM     27  C   UNL     1       2.499  15.131  19.921  0.00  0.00    +0.000 C 
ATOM     28  O   UNL     1       1.552  16.148  19.555  0.00  0.00    +0.000 OA
ATOM     29  C   UNL     1       0.458  15.628  18.785  0.00  0.00    +0.000 C 
ATOM     30  C   UNL     1      -0.271  14.527  19.553  0.00  0.00    +0.000 C 
ENDBRANCH  22  25
ENDBRANCH   7  22
TORSDOF 4
ENDMDL
MODEL 8
REMARK VINA RESULT:      -7.3      1.275      2.317
REMARK  Name = 
REMARK  8 active torsions:
REMARK  status: ('A' for Active; 'I' for Inactive)
REMARK    1  A    between atoms: C_1  and  C_2
REMARK    2  A    between atoms: C_5  and  N_6
REMARK    3  A    between atoms: C_7  and  C_9
REMARK    4  A    between atoms: C_10  and  C_11
REMARK    5  A    between atoms: C_10  and  C_12
REMARK    6  A    between atoms: C_16  and  C_17
REMARK    7  A    between atoms: C_20  and  S_21
REMARK    8  A    between atoms: S_21  and  N_24
REMARK                            x       y       z     vdW  Elec       q    Type
REMARK                         _______ _______ _______ _____ _____    ______ ____
ROOT
ATOM      1  C   UNL     1      -1.086  11.008  22.878  0.00  0.00    +0.000 C 
ATOM      2  C   UNL     1      -0.060  10.352  21.999  0.00  0.00    +0.000 A 
ATOM      3  C   UNL     1       0.630   9.277  22.573  0.00  0.00    +0.000 A 
ATOM      4  C   UNL     1       1.384   8.402  21.786  0.00  0.00    +0.000 A 
ATOM      5  C   UNL     1       1.444   8.571  20.410  0.00  0.00    +0.000 A 
ATOM      6  C   UNL     1       0.839   9.701  19.834  0.00  0.00    +0.000 A 
ATOM      7  C   UNL     1       0.106  10.621  20.627  0.00  0.00    +0.000 A 
ENDROOT
BRANCH   5   8
ATOM      8  N   UNL     1       1.987   7.575  19.568  0.00  0.00    +0.000 N 
ATOM      9  C   UNL     1       2.184   6.239  19.910  0.00  0.00    +0.000 C 
ATOM     10  O   UNL     1       2.207   5.785  21.048  0.00  0.00    +0.000 OA
ATOM     11  H   UNL     1       2.187   7.847  18.614  0.00  0.00    +0.000 HD
BRANCH   9  12
ATOM     12  C   UNL     1       2.467   5.367  18.693  0.00  0.00    +0.000 C 
ATOM     13  C   UNL     1       3.988   5.324  18.324  0.00  0.00    +0.000 C 
ATOM     14  C   UNL     1       4.267   6.179  17.080  0.00  0.00    +0.000 C 
ATOM     15  C   UNL     1       4.941   5.831  19.435  0.00  0.00    +0.000 C 
ATOM     16  C   UNL     1       4.212   3.791  18.123  0.00  0.00    +0.000 C 
ATOM     17  C   UNL     1       3.443   3.252  16.901  0.00  0.00    +0.000 C 
ATOM     18  C   UNL     1       1.979   3.303  17.357  0.00  0.00    +0.000 C 
ATOM     19  C   UNL     1       2.082   3.851  18.804  0.00  0.00    +0.000 C 
ATOM     20  C   UNL     1       0.847   3.505  19.620  0.00  0.00    +0.000 C 
ATOM     21  C   UNL     1       3.380   3.185  19.265  0.00  0.00    +0.000 C 
ENDBRANCH   9  12
ENDBRANCH   5   8
BRANCH   7  22
ATOM     22  S   UNL     1      -0.806  11.928  19.760  0.00  0.00    +0.000 S 
ATOM     23  O   UNL     1      -0.689  11.627  18.348  0.00  0.00    +0.000 OA
ATOM     24  O   UNL     1      -2.112  12.052  20.374  0.00  0.00    +0.000 OA
BRANCH  22  25
ATOM     25  N   UNL     1       0.024  13.352  20.031  0.00  0.00    +0.000 NA
ATOM     26  C   UNL     1       0.820  13.641  21.246  0.00  0.00    +0.000 C 
ATOM     27  C   UNL     1       2.296  13.883  20.896  0.00  0.00    +0.000 C 
ATOM     28  O   UNL     1       2.485  14.796  19.804  0.00  0.00    +0.000 OA
ATOM     29  C   UNL     1       1.720  14.433  18.644  0.00  0.00    +0.000 C 
ATOM     30  C   UNL     1       0.231  14.362  18.978  0.00  0.00    +0.000 C 
ENDBRANCH  22  25
ENDBRANCH   7  22
TORSDOF 4
ENDMDL
MODEL 9
REMARK VINA RESULT:      -7.2      1.990      3.441
REMARK  Name = 
REMARK  8 active torsions:
REMARK  status: ('A' for Active; 'I' for Inactive)
REMARK    1  A    between atoms: C_1  and  C_2
REMARK    2  A    between atoms: C_5  and  N_6
REMARK    3  A    between atoms: C_7  and  C_9
REMARK    4  A    between atoms: C_10  and  C_11
REMARK    5  A    between atoms: C_10  and  C_12
REMARK    6  A    between atoms: C_16  and  C_17
REMARK    7  A    between atoms: C_20  and  S_21
REMARK    8  A    between atoms: S_21  and  N_24
REMARK                            x       y       z     vdW  Elec       q    Type
REMARK                         _______ _______ _______ _____ _____    ______ ____
ROOT
ATOM      1  C   UNL     1       1.665  12.777  19.407  0.00  0.00    +0.000 C 
ATOM      2  C   UNL     1       1.540  11.364  18.912  0.00  0.00    +0.000 A 
ATOM      3  C   UNL     1       2.370  11.025  17.837  0.00  0.00    +0.000 A 
ATOM      4  C   UNL     1       2.571   9.690  17.475  0.00  0.00    +0.000 A 
ATOM      5  C   UNL     1       1.967   8.670  18.195  0.00  0.00    +0.000 A 
ATOM      6  C   UNL     1       1.054   9.000  19.213  0.00  0.00    +0.000 A 
ATOM      7  C   UNL     1       0.808  10.352  19.561  0.00  0.00    +0.000 A 
ENDROOT
BRANCH   5   8
ATOM      8  N   UNL     1       2.339   7.319  18.014  0.00  0.00    +0.000 N 
ATOM      9  C   UNL     1       2.503   6.377  19.027  0.00  0.00    +0.000 C 
ATOM     10  O   UNL     1       2.647   6.623  20.219  0.00  0.00    +0.000 OA
ATOM     11  H   UNL     1       2.428   6.997  17.058  0.00  0.00    +0.000 HD
BRANCH   9  12
ATOM     12  C   UNL     1       2.574   4.954  18.487  0.00  0.00    +0.000 C 
ATOM     13  C   UNL     1       4.044   4.493  18.202  0.00  0.00    +0.000 C 
ATOM     14  C   UNL     1       4.324   4.485  16.692  0.00  0.00    +0.000 C 
ATOM     15  C   UNL     1       5.139   5.373  18.853  0.00  0.00    +0.000 C 
ATOM     16  C   UNL     1       4.058   3.083  18.873  0.00  0.00    +0.000 C 
ATOM     17  C   UNL     1       3.131   2.089  18.147  0.00  0.00    +0.000 C 
ATOM     18  C   UNL     1       1.727   2.596  18.499  0.00  0.00    +0.000 C 
ATOM     19  C   UNL     1       2.015   3.818  19.411  0.00  0.00    +0.000 C 
ATOM     20  C   UNL     1       0.816   4.157  20.283  0.00  0.00    +0.000 C 
ATOM     21  C   UNL     1       3.253   3.324  20.161  0.00  0.00    +0.000 C 
ENDBRANCH   9  12
ENDBRANCH   5   8
BRANCH   7  22
ATOM     22  S   UNL     1      -0.225  10.662  21.021  0.00  0.00    +0.000 S 
ATOM     23  O   UNL     1      -1.042   9.478  21.190  0.00  0.00    +0.000 OA
ATOM     24  O   UNL     1       0.634  11.117  22.095  0.00  0.00    +0.000 OA
BRANCH  22  25
ATOM     25  N   UNL     1      -1.254  11.917  20.622  0.00  0.00    +0.000 NA
ATOM     26  C   UNL     1      -1.972  12.035  19.332  0.00  0.00    +0.000 C 
ATOM     27  C   UNL     1      -3.494  12.030  19.543  0.00  0.00    +0.000 C 
ATOM     28  O   UNL     1      -3.933  12.925  20.578  0.00  0.00    +0.000 OA
ATOM     29  C   UNL     1      -3.228  12.726  21.813  0.00  0.00    +0.000 C 
ATOM     30  C   UNL     1      -1.723  12.902  21.612  0.00  0.00    +0.000 C 
ENDBRANCH  22  25
ENDBRANCH   7  22
TORSDOF 4
ENDMDL
