MODEL 1
REMARK VINA RESULT:      -8.0      0.000      0.000
REMARK  Name = 
REMARK  6 active torsions:
REMARK  status: ('A' for Active; 'I' for Inactive)
REMARK    1  A    between atoms: C_1  and  C_2
REMARK    2  A    between atoms: C_2  and  N_3
REMARK    3  A    between atoms: C_9  and  N_10
REMARK    4  A    between atoms: N_13  and  C_14
REMARK    5  A    between atoms: C_18  and  C_19
REMARK    6  A    between atoms: C_21  and  C_22
REMARK                            x       y       z     vdW  Elec       q    Type
REMARK                         _______ _______ _______ _____ _____    ______ ____
ROOT
ATOM      1  N   UNL     1       2.318   3.750  18.663  0.00  0.00    +0.000 NA
ATOM      2  C   UNL     1       3.097   2.905  17.722  0.00  0.00    +0.000 C 
ATOM      3  C   UNL     1       4.596   3.266  17.617  0.00  0.00    +0.000 C 
ATOM      4  C   UNL     1       4.793   4.758  17.556  0.00  0.00    +0.000 A 
ATOM      5  C   UNL     1       3.746   5.610  17.846  0.00  0.00    +0.000 A 
ATOM      6  S   UNL     1       4.211   7.238  17.787  0.00  0.00    +0.000 S 
ATOM      7  C   UNL     1       5.784   6.827  17.254  0.00  0.00    +0.000 A 
ATOM      8  C   UNL     1       6.026   5.458  17.259  0.00  0.00    +0.000 A 
ATOM      9  C   UNL     1       2.351   5.160  18.189  0.00  0.00    +0.000 C 
ENDROOT
BRANCH   7  10
ATOM     10  N   UNL     1       6.538   7.952  16.957  0.00  0.00    +0.000 N 
ATOM     11  C   UNL     1       7.569   8.293  17.820  0.00  0.00    +0.000 C 
ATOM     12  O   UNL     1       7.893   7.592  18.776  0.00  0.00    +0.000 OA
ATOM     13  N   UNL     1       8.127   9.518  17.511  0.00  0.00    +0.000 N 
ATOM     14  H   UNL     1       6.780   8.048  15.980  0.00  0.00    +0.000 HD
ATOM     15  H   UNL     1       7.678  10.040  16.770  0.00  0.00    +0.000 HD
BRANCH  13  16
ATOM     16  C   UNL     1       9.101  10.208  18.275  0.00  0.00    +0.000 A 
ATOM     17  C   UNL     1       9.176  10.147  19.668  0.00  0.00    +0.000 A 
ATOM     18  C   UNL     1      10.122  10.903  20.368  0.00  0.00    +0.000 A 
ATOM     19  C   UNL     1      11.011  11.721  19.680  0.00  0.00    +0.000 A 
ATOM     20  C   UNL     1      10.971  11.783  18.284  0.00  0.00    +0.000 A 
ATOM     21  C   UNL     1      11.925  12.667  17.538  0.00  0.00    +0.000 C 
ATOM     22  C   UNL     1      10.010  11.026  17.590  0.00  0.00    +0.000 A 
ENDBRANCH  13  16
ENDBRANCH   7  10
BRANCH   8  23
ATOM     23  C   UNL     1       7.299   4.750  17.093  0.00  0.00    +0.000 C 
ATOM     24  N   UNL     1       7.735   4.477  15.835  0.00  0.00    +0.000 N 
ATOM     25  O   UNL     1       7.963   4.348  18.049  0.00  0.00    +0.000 OA
ATOM     26  H   UNL     1       7.039   4.418  15.096  0.00  0.00    +0.000 HD
ATOM     27  H   UNL     1       8.508   3.831  15.772  0.00  0.00    +0.000 HD
ENDBRANCH   8  23
BRANCH   1  29
ATOM     28  C   UNL     1       1.786   3.033  21.018  0.00  0.00    +0.000 C 
ATOM     29  C   UNL     1       2.789   3.666  20.058  0.00  0.00    +0.000 C 
ENDBRANCH   1  29
TORSDOF 4
ENDMDL
MODEL 2
REMARK VINA RESULT:      -7.5      0.902      1.594
REMARK  Name = 
REMARK  6 active torsions:
REMARK  status: ('A' for Active; 'I' for Inactive)
REMARK    1  A    between atoms: C_1  and  C_2
REMARK    2  A    between atoms: C_2  and  N_3
REMARK    3  A    between atoms: C_9  and  N_10
REMARK    4  A    between atoms: N_13  and  C_14
REMARK    5  A    between atoms: C_18  and  C_19
REMARK    6  A    between atoms: C_21  and  C_22
REMARK                            x       y       z     vdW  Elec       q    Type
REMARK                         _______ _______ _______ _____ _____    ______ ____
ROOT
ATOM      1  N   UNL     1       2.448   3.976  18.726  0.00  0.00    +0.000 NA
ATOM      2  C   UNL     1       3.387   2.992  18.129  0.00  0.00    +0.000 C 
ATOM      3  C   UNL     1       4.879   3.384  18.220  0.00  0.00    +0.000 C 
ATOM      4  C   UNL     1       5.080   4.841  17.894  0.00  0.00    +0.000 A 
ATOM      5  C   UNL     1       3.995   5.692  17.815  0.00  0.00    +0.000 A 
ATOM      6  S   UNL     1       4.459   7.292  17.511  0.00  0.00    +0.000 S 
ATOM      7  C   UNL     1       6.103   6.846  17.360  0.00  0.00    +0.000 A 
ATOM      8  C   UNL     1       6.344   5.516  17.685  0.00  0.00    +0.000 A 
ATOM      9  C   UNL     1       2.561   5.265  17.990  0.00  0.00    +0.000 C 
ENDROOT
BRANCH   7  10
ATOM     10  N   UNL     1       6.896   7.919  16.980  0.00  0.00    +0.000 N 
ATOM     11  C   UNL     1       7.818   8.405  17.894  0.00  0.00    +0.000 C 
ATOM     12  O   UNL     1       8.019   7.870  18.982  0.00  0.00    +0.000 OA
ATOM     13  N   UNL     1       8.417   9.572  17.463  0.00  0.00    +0.000 N 
ATOM     14  H   UNL     1       7.254   7.860  16.036  0.00  0.00    +0.000 HD
ATOM     15  H   UNL     1       8.064   9.963  16.599  0.00  0.00    +0.000 HD
BRANCH  13  16
ATOM     16  C   UNL     1       9.297  10.387  18.217  0.00  0.00    +0.000 A 
ATOM     17  C   UNL     1      10.510  10.877  17.726  0.00  0.00    +0.000 A 
ATOM     18  C   UNL     1      11.365  11.623  18.543  0.00  0.00    +0.000 A 
ATOM     19  C   UNL     1      11.010  11.898  19.859  0.00  0.00    +0.000 A 
ATOM     20  C   UNL     1       9.792  11.438  20.368  0.00  0.00    +0.000 A 
ATOM     21  C   UNL     1       9.408  11.729  21.788  0.00  0.00    +0.000 C 
ATOM     22  C   UNL     1       8.943  10.680  19.542  0.00  0.00    +0.000 A 
ENDBRANCH  13  16
ENDBRANCH   7  10
BRANCH   8  23
ATOM     23  C   UNL     1       7.628   4.840  17.895  0.00  0.00    +0.000 C 
ATOM     24  N   UNL     1       8.231   4.947  19.109  0.00  0.00    +0.000 N 
ATOM     25  O   UNL     1       8.207   4.225  17.000  0.00  0.00    +0.000 OA
ATOM     26  H   UNL     1       8.000   5.754  19.683  0.00  0.00    +0.000 HD
ATOM     27  H   UNL     1       9.189   4.632  19.149  0.00  0.00    +0.000 HD
ENDBRANCH   8  23
BRANCH   1  29
ATOM     28  C   UNL     1       2.174   3.040  21.048  0.00  0.00    +0.000 C 
ATOM     29  C   UNL     1       2.657   4.190  20.169  0.00  0.00    +0.000 C 
ENDBRANCH   1  29
TORSDOF 4
ENDMDL
MODEL 3
REMARK VINA RESULT:      -7.3      7.525     10.434
REMARK  Name = 
REMARK  6 active torsions:
REMARK  status: ('A' for Active; 'I' for Inactive)
REMARK    1  A    between atoms: C_1  and  C_2
REMARK    2  A    between atoms: C_2  and  N_3
REMARK    3  A    between atoms: C_9  and  N_10
REMARK    4  A    between atoms: N_13  and  C_14
REMARK    5  A    between atoms: C_18  and  C_19
REMARK    6  A    between atoms: C_21  and  C_22
REMARK                            x       y       z     vdW  Elec       q    Type
REMARK                         _______ _______ _______ _____ _____    ______ ____
ROOT
ATOM      1  N   UNL     1      -3.433  13.617  22.658  0.00  0.00    +0.000 NA
ATOM      2  C   UNL     1      -2.431  14.586  22.145  0.00  0.00    +0.000 C 
ATOM      3  C   UNL     1      -1.412  13.995  21.144  0.00  0.00    +0.000 C 
ATOM      4  C   UNL     1      -0.921  12.646  21.600  0.00  0.00    +0.000 A 
ATOM      5  C   UNL     1      -1.560  11.986  22.631  0.00  0.00    +0.000 A 
ATOM      6  S   UNL     1      -0.888  10.460  22.926  0.00  0.00    +0.000 S 
ATOM      7  C   UNL     1       0.340  10.714  21.763  0.00  0.00    +0.000 A 
ATOM      8  C   UNL     1       0.172  11.885  21.032  0.00  0.00    +0.000 A 
ATOM      9  C   UNL     1      -2.728  12.539  23.404  0.00  0.00    +0.000 C 
ENDROOT
BRANCH   7  10
ATOM     10  N   UNL     1       1.255   9.671  21.742  0.00  0.00    +0.000 N 
ATOM     11  C   UNL     1       1.187   8.765  20.695  0.00  0.00    +0.000 C 
ATOM     12  O   UNL     1       0.415   8.901  19.748  0.00  0.00    +0.000 OA
ATOM     13  N   UNL     1       2.030   7.687  20.880  0.00  0.00    +0.000 N 
ATOM     14  H   UNL     1       2.199   9.938  21.985  0.00  0.00    +0.000 HD
ATOM     15  H   UNL     1       2.518   7.648  21.765  0.00  0.00    +0.000 HD
BRANCH  13  16
ATOM     16  C   UNL     1       2.097   6.530  20.066  0.00  0.00    +0.000 A 
ATOM     17  C   UNL     1       2.556   6.538  18.746  0.00  0.00    +0.000 A 
ATOM     18  C   UNL     1       2.537   5.373  17.973  0.00  0.00    +0.000 A 
ATOM     19  C   UNL     1       2.067   4.182  18.516  0.00  0.00    +0.000 A 
ATOM     20  C   UNL     1       1.623   4.142  19.840  0.00  0.00    +0.000 A 
ATOM     21  C   UNL     1       1.112   2.860  20.428  0.00  0.00    +0.000 C 
ATOM     22  C   UNL     1       1.638   5.321  20.607  0.00  0.00    +0.000 A 
ENDBRANCH  13  16
ENDBRANCH   7  10
BRANCH   8  23
ATOM     23  C   UNL     1       0.873  12.320  19.821  0.00  0.00    +0.000 C 
ATOM     24  N   UNL     1       0.430  11.875  18.615  0.00  0.00    +0.000 N 
ATOM     25  O   UNL     1       1.879  13.029  19.855  0.00  0.00    +0.000 OA
ATOM     26  H   UNL     1      -0.092  11.002  18.595  0.00  0.00    +0.000 HD
ATOM     27  H   UNL     1       1.048  12.041  17.834  0.00  0.00    +0.000 HD
ENDBRANCH   8  23
BRANCH   1  29
ATOM     28  C   UNL     1      -5.676  13.658  21.515  0.00  0.00    +0.000 C 
ATOM     29  C   UNL     1      -4.286  13.038  21.604  0.00  0.00    +0.000 C 
ENDBRANCH   1  29
TORSDOF 4
ENDMDL
MODEL 4
REMARK VINA RESULT:      -7.2      4.838      6.886
REMARK  Name = 
REMARK  6 active torsions:
REMARK  status: ('A' for Active; 'I' for Inactive)
REMARK    1  A    between atoms: C_1  and  C_2
REMARK    2  A    between atoms: C_2  and  N_3
REMARK    3  A    between atoms: C_9  and  N_10
REMARK    4  A    between atoms: N_13  and  C_14
REMARK    5  A    between atoms: C_18  and  C_19
REMARK    6  A    between atoms: C_21  and  C_22
REMARK                            x       y       z     vdW  Elec       q    Type
REMARK                         _______ _______ _______ _____ _____    ______ ____
ROOT
ATOM      1  N   UNL     1       6.447   4.647  15.606  0.00  0.00    +0.000 NA
ATOM      2  C   UNL     1       5.949   3.474  16.370  0.00  0.00    +0.000 C 
ATOM      3  C   UNL     1       4.471   3.570  16.813  0.00  0.00    +0.000 C 
ATOM      4  C   UNL     1       4.150   4.945  17.338  0.00  0.00    +0.000 A 
ATOM      5  C   UNL     1       5.035   5.988  17.147  0.00  0.00    +0.000 A 
ATOM      6  S   UNL     1       4.437   7.452  17.753  0.00  0.00    +0.000 S 
ATOM      7  C   UNL     1       3.044   6.687  18.385  0.00  0.00    +0.000 A 
ATOM      8  C   UNL     1       2.936   5.350  18.018  0.00  0.00    +0.000 A 
ATOM      9  C   UNL     1       6.373   5.856  16.470  0.00  0.00    +0.000 C 
ENDROOT
BRANCH   7  10
ATOM     10  N   UNL     1       2.258   7.568  19.113  0.00  0.00    +0.000 N 
ATOM     11  C   UNL     1       1.757   8.685  18.464  0.00  0.00    +0.000 C 
ATOM     12  O   UNL     1       1.905   8.875  17.259  0.00  0.00    +0.000 OA
ATOM     13  N   UNL     1       1.141   9.564  19.334  0.00  0.00    +0.000 N 
ATOM     14  H   UNL     1       1.589   7.121  19.726  0.00  0.00    +0.000 HD
ATOM     15  H   UNL     1       1.200   9.334  20.317  0.00  0.00    +0.000 HD
BRANCH  13  16
ATOM     16  C   UNL     1       0.649  10.852  19.010  0.00  0.00    +0.000 A 
ATOM     17  C   UNL     1      -0.690  11.117  18.713  0.00  0.00    +0.000 A 
ATOM     18  C   UNL     1      -1.101  12.400  18.338  0.00  0.00    +0.000 A 
ATOM     19  C   UNL     1      -0.177  13.437  18.267  0.00  0.00    +0.000 A 
ATOM     20  C   UNL     1       1.165  13.203  18.580  0.00  0.00    +0.000 A 
ATOM     21  C   UNL     1       2.166  14.317  18.501  0.00  0.00    +0.000 C 
ATOM     22  C   UNL     1       1.570  11.907  18.947  0.00  0.00    +0.000 A 
ENDBRANCH  13  16
ENDBRANCH   7  10
BRANCH   8  23
ATOM     23  C   UNL     1       1.792   4.446  18.169  0.00  0.00    +0.000 C 
ATOM     24  N   UNL     1       1.555   3.892  19.388  0.00  0.00    +0.000 N 
ATOM     25  O   UNL     1       1.069   4.128  17.225  0.00  0.00    +0.000 OA
ATOM     26  H   UNL     1       2.341   3.804  20.029  0.00  0.00    +0.000 HD
ATOM     27  H   UNL     1       0.884   3.139  19.402  0.00  0.00    +0.000 HD
ENDBRANCH   8  23
BRANCH   1  29
ATOM     28  C   UNL     1       5.950   3.793  13.289  0.00  0.00    +0.000 C 
ATOM     29  C   UNL     1       5.726   4.875  14.341  0.00  0.00    +0.000 C 
ENDBRANCH   1  29
TORSDOF 4
ENDMDL
MODEL 5
REMARK VINA RESULT:      -7.2      4.813      7.360
REMARK  Name = 
REMARK  6 active torsions:
REMARK  status: ('A' for Active; 'I' for Inactive)
REMARK    1  A    between atoms: C_1  and  C_2
REMARK    2  A    between atoms: C_2  and  N_3
REMARK    3  A    between atoms: C_9  and  N_10
REMARK    4  A    between atoms: N_13  and  C_14
REMARK    5  A    between atoms: C_18  and  C_19
REMARK    6  A    between atoms: C_21  and  C_22
REMARK                            x       y       z     vdW  Elec       q    Type
REMARK                         _______ _______ _______ _____ _____    ______ ____
ROOT
ATOM      1  N   UNL     1       6.478   4.535  15.432  0.00  0.00    +0.000 NA
ATOM      2  C   UNL     1       5.960   3.355  16.172  0.00  0.00    +0.000 C 
ATOM      3  C   UNL     1       4.495   3.482  16.648  0.00  0.00    +0.000 C 
ATOM      4  C   UNL     1       4.225   4.849  17.220  0.00  0.00    +0.000 A 
ATOM      5  C   UNL     1       5.138   5.870  17.041  0.00  0.00    +0.000 A 
ATOM      6  S   UNL     1       4.597   7.333  17.702  0.00  0.00    +0.000 S 
ATOM      7  C   UNL     1       3.194   6.591  18.340  0.00  0.00    +0.000 A 
ATOM      8  C   UNL     1       3.039   5.269  17.936  0.00  0.00    +0.000 A 
ATOM      9  C   UNL     1       6.458   5.720  16.333  0.00  0.00    +0.000 C 
ENDROOT
BRANCH   7  10
ATOM     10  N   UNL     1       2.449   7.472  19.110  0.00  0.00    +0.000 N 
ATOM     11  C   UNL     1       1.786   8.503  18.463  0.00  0.00    +0.000 C 
ATOM     12  O   UNL     1       1.759   8.611  17.240  0.00  0.00    +0.000 OA
ATOM     13  N   UNL     1       1.228   9.404  19.351  0.00  0.00    +0.000 N 
ATOM     14  H   UNL     1       1.902   7.031  19.837  0.00  0.00    +0.000 HD
ATOM     15  H   UNL     1       1.434   9.253  20.329  0.00  0.00    +0.000 HD
BRANCH  13  16
ATOM     16  C   UNL     1       0.605  10.631  19.013  0.00  0.00    +0.000 A 
ATOM     17  C   UNL     1       1.295  11.838  18.881  0.00  0.00    +0.000 A 
ATOM     18  C   UNL     1       0.613  13.028  18.609  0.00  0.00    +0.000 A 
ATOM     19  C   UNL     1      -0.769  13.021  18.454  0.00  0.00    +0.000 A 
ATOM     20  C   UNL     1      -1.481  11.822  18.560  0.00  0.00    +0.000 A 
ATOM     21  C   UNL     1      -2.972  11.811  18.399  0.00  0.00    +0.000 C 
ATOM     22  C   UNL     1      -0.786  10.633  18.843  0.00  0.00    +0.000 A 
ENDBRANCH  13  16
ENDBRANCH   7  10
BRANCH   8  23
ATOM     23  C   UNL     1       1.871   4.395  18.084  0.00  0.00    +0.000 C 
ATOM     24  N   UNL     1       1.741   3.668  19.226  0.00  0.00    +0.000 N 
ATOM     25  O   UNL     1       1.032   4.254  17.196  0.00  0.00    +0.000 OA
ATOM     26  H   UNL     1       2.587   3.453  19.749  0.00  0.00    +0.000 HD
ATOM     27  H   UNL     1       1.035   2.947  19.206  0.00  0.00    +0.000 HD
ENDBRANCH   8  23
BRANCH   1  29
ATOM     28  C   UNL     1       5.793   3.702  13.157  0.00  0.00    +0.000 C 
ATOM     29  C   UNL     1       5.739   4.823  14.190  0.00  0.00    +0.000 C 
ENDBRANCH   1  29
TORSDOF 4
ENDMDL
MODEL 6
REMARK VINA RESULT:      -7.0      7.028      9.470
REMARK  Name = 
REMARK  6 active torsions:
REMARK  status: ('A' for Active; 'I' for Inactive)
REMARK    1  A    between atoms: C_1  and  C_2
REMARK    2  A    between atoms: C_2  and  N_3
REMARK    3  A    between atoms: C_9  and  N_10
REMARK    4  A    between atoms: N_13  and  C_14
REMARK    5  A    between atoms: C_18  and  C_19
REMARK    6  A    between atoms: C_21  and  C_22
REMARK                            x       y       z     vdW  Elec       q    Type
REMARK                         _______ _______ _______ _____ _____    ______ ____
ROOT
ATOM      1  N   UNL     1      -1.724  13.366  22.430  0.00  0.00    +0.000 NA
ATOM      2  C   UNL     1      -2.532  13.794  21.259  0.00  0.00    +0.000 C 
ATOM      3  C   UNL     1      -2.585  12.771  20.102  0.00  0.00    +0.000 C 
ATOM      4  C   UNL     1      -1.228  12.171  19.843  0.00  0.00    +0.000 A 
ATOM      5  C   UNL     1      -0.201  12.357  20.747  0.00  0.00    +0.000 A 
ATOM      6  S   UNL     1       1.208  11.535  20.292  0.00  0.00    +0.000 S 
ATOM      7  C   UNL     1       0.501  11.022  18.822  0.00  0.00    +0.000 A 
ATOM      8  C   UNL     1      -0.851  11.333  18.723  0.00  0.00    +0.000 A 
ATOM      9  C   UNL     1      -0.310  13.181  22.003  0.00  0.00    +0.000 C 
ENDROOT
BRANCH   7  10
ATOM     10  N   UNL     1       1.410  10.347  18.020  0.00  0.00    +0.000 N 
ATOM     11  C   UNL     1       1.666   9.014  18.303  0.00  0.00    +0.000 C 
ATOM     12  O   UNL     1       1.058   8.391  19.170  0.00  0.00    +0.000 OA
ATOM     13  N   UNL     1       2.709   8.511  17.550  0.00  0.00    +0.000 N 
ATOM     14  H   UNL     1       1.320  10.541  17.032  0.00  0.00    +0.000 HD
ATOM     15  H   UNL     1       3.197   9.173  16.962  0.00  0.00    +0.000 HD
BRANCH  13  16
ATOM     16  C   UNL     1       3.302   7.232  17.695  0.00  0.00    +0.000 A 
ATOM     17  C   UNL     1       4.679   7.007  17.632  0.00  0.00    +0.000 A 
ATOM     18  C   UNL     1       5.198   5.711  17.719  0.00  0.00    +0.000 A 
ATOM     19  C   UNL     1       4.344   4.626  17.881  0.00  0.00    +0.000 A 
ATOM     20  C   UNL     1       2.963   4.826  17.968  0.00  0.00    +0.000 A 
ATOM     21  C   UNL     1       2.038   3.658  18.138  0.00  0.00    +0.000 C 
ATOM     22  C   UNL     1       2.450   6.132  17.870  0.00  0.00    +0.000 A 
ENDBRANCH  13  16
ENDBRANCH   7  10
BRANCH   8  23
ATOM     23  C   UNL     1      -1.831  10.866  17.738  0.00  0.00    +0.000 C 
ATOM     24  N   UNL     1      -2.052  11.621  16.629  0.00  0.00    +0.000 N 
ATOM     25  O   UNL     1      -2.498   9.845  17.900  0.00  0.00    +0.000 OA
ATOM     26  H   UNL     1      -1.846  12.616  16.685  0.00  0.00    +0.000 HD
ATOM     27  H   UNL     1      -2.860  11.364  16.081  0.00  0.00    +0.000 HD
ENDBRANCH   8  23
BRANCH   1  29
ATOM     28  C   UNL     1      -3.476  12.355  23.929  0.00  0.00    +0.000 C 
ATOM     29  C   UNL     1      -2.228  12.143  23.079  0.00  0.00    +0.000 C 
ENDBRANCH   1  29
TORSDOF 4
ENDMDL
MODEL 7
REMARK VINA RESULT:      -6.9      7.337     10.041
REMARK  Name = 
REMARK  6 active torsions:
REMARK  status: ('A' for Active; 'I' for Inactive)
REMARK    1  A    between atoms: C_1  and  C_2
REMARK    2  A    between atoms: C_2  and  N_3
REMARK    3  A    between atoms: C_9  and  N_10
REMARK    4  A    between atoms: N_13  and  C_14
REMARK    5  A    between atoms: C_18  and  C_19
REMARK    6  A    between atoms: C_21  and  C_22
REMARK                            x       y       z     vdW  Elec       q    Type
REMARK                         _______ _______ _______ _____ _____    ______ ____
ROOT
ATOM      1  N   UNL     1      -3.168  13.839  22.134  0.00  0.00    +0.000 NA
ATOM      2  C   UNL     1      -2.045  14.727  21.739  0.00  0.00    +0.000 C 
ATOM      3  C   UNL     1      -0.962  14.053  20.866  0.00  0.00    +0.000 C 
ATOM      4  C   UNL     1      -0.628  12.677  21.381  0.00  0.00    +0.000 A 
ATOM      5  C   UNL     1      -1.429  12.076  22.332  0.00  0.00    +0.000 A 
ATOM      6  S   UNL     1      -0.909  10.509  22.708  0.00  0.00    +0.000 S 
ATOM      7  C   UNL     1       0.461  10.661  21.696  0.00  0.00    +0.000 A 
ATOM      8  C   UNL     1       0.465  11.832  20.947  0.00  0.00    +0.000 A 
ATOM      9  C   UNL     1      -2.636  12.722  22.961  0.00  0.00    +0.000 C 
ENDROOT
BRANCH   7  10
ATOM     10  N   UNL     1       1.293   9.554  21.785  0.00  0.00    +0.000 N 
ATOM     11  C   UNL     1       1.250   8.621  20.760  0.00  0.00    +0.000 C 
ATOM     12  O   UNL     1       0.577   8.782  19.745  0.00  0.00    +0.000 OA
ATOM     13  N   UNL     1       1.990   7.492  21.050  0.00  0.00    +0.000 N 
ATOM     14  H   UNL     1       2.230   9.760  22.106  0.00  0.00    +0.000 HD
ATOM     15  H   UNL     1       2.393   7.446  21.976  0.00  0.00    +0.000 HD
BRANCH  13  16
ATOM     16  C   UNL     1       2.041   6.306  20.276  0.00  0.00    +0.000 A 
ATOM     17  C   UNL     1       1.310   5.154  20.576  0.00  0.00    +0.000 A 
ATOM     18  C   UNL     1       1.453   3.994  19.808  0.00  0.00    +0.000 A 
ATOM     19  C   UNL     1       2.322   3.977  18.723  0.00  0.00    +0.000 A 
ATOM     20  C   UNL     1       3.049   5.123  18.388  0.00  0.00    +0.000 A 
ATOM     21  C   UNL     1       3.991   5.108  17.221  0.00  0.00    +0.000 C 
ATOM     22  C   UNL     1       2.905   6.282  19.172  0.00  0.00    +0.000 A 
ENDBRANCH  13  16
ENDBRANCH   7  10
BRANCH   8  23
ATOM     23  C   UNL     1       1.333  12.201  19.824  0.00  0.00    +0.000 C 
ATOM     24  N   UNL     1       1.126  11.610  18.618  0.00  0.00    +0.000 N 
ATOM     25  O   UNL     1       2.274  12.985  19.944  0.00  0.00    +0.000 OA
ATOM     26  H   UNL     1       0.668  10.701  18.609  0.00  0.00    +0.000 HD
ATOM     27  H   UNL     1       1.855  11.747  17.934  0.00  0.00    +0.000 HD
ENDBRANCH   8  23
BRANCH   1  29
ATOM     28  C   UNL     1      -5.309  12.766  21.356  0.00  0.00    +0.000 C 
ATOM     29  C   UNL     1      -3.932  13.311  20.990  0.00  0.00    +0.000 C 
ENDBRANCH   1  29
TORSDOF 4
ENDMDL
MODEL 8
REMARK VINA RESULT:      -6.8      4.996      7.579
REMARK  Name = 
REMARK  6 active torsions:
REMARK  status: ('A' for Active; 'I' for Inactive)
REMARK    1  A    between atoms: C_1  and  C_2
REMARK    2  A    between atoms: C_2  and  N_3
REMARK    3  A    between atoms: C_9  and  N_10
REMARK    4  A    between atoms: N_13  and  C_14
REMARK    5  A    between atoms: C_18  and  C_19
REMARK    6  A    between atoms: C_21  and  C_22
REMARK                            x       y       z     vdW  Elec       q    Type
REMARK                         _______ _______ _______ _____ _____    ______ ____
ROOT
ATOM      1  N   UNL     1       6.562   4.639  16.674  0.00  0.00    +0.000 NA
ATOM      2  C   UNL     1       6.413   4.149  18.068  0.00  0.00    +0.000 C 
ATOM      3  C   UNL     1       4.968   4.187  18.616  0.00  0.00    +0.000 C 
ATOM      4  C   UNL     1       4.277   5.472  18.240  0.00  0.00    +0.000 A 
ATOM      5  C   UNL     1       4.836   6.312  17.298  0.00  0.00    +0.000 A 
ATOM      6  S   UNL     1       3.856   7.656  16.978  0.00  0.00    +0.000 S 
ATOM      7  C   UNL     1       2.733   7.194  18.182  0.00  0.00    +0.000 A 
ATOM      8  C   UNL     1       3.001   5.946  18.735  0.00  0.00    +0.000 A 
ATOM      9  C   UNL     1       6.157   6.070  16.616  0.00  0.00    +0.000 C 
ENDROOT
BRANCH   7  10
ATOM     10  N   UNL     1       1.734   8.142  18.348  0.00  0.00    +0.000 N 
ATOM     11  C   UNL     1       1.545   8.675  19.614  0.00  0.00    +0.000 C 
ATOM     12  O   UNL     1       2.278   8.409  20.563  0.00  0.00    +0.000 OA
ATOM     13  N   UNL     1       0.418   9.471  19.682  0.00  0.00    +0.000 N 
ATOM     14  H   UNL     1       1.684   8.829  17.608  0.00  0.00    +0.000 HD
ATOM     15  H   UNL     1      -0.159   9.503  18.852  0.00  0.00    +0.000 HD
BRANCH  13  16
ATOM     16  C   UNL     1      -0.125  10.049  20.856  0.00  0.00    +0.000 A 
ATOM     17  C   UNL     1      -0.354   9.335  22.035  0.00  0.00    +0.000 A 
ATOM     18  C   UNL     1      -0.952   9.948  23.140  0.00  0.00    +0.000 A 
ATOM     19  C   UNL     1      -1.320  11.288  23.082  0.00  0.00    +0.000 A 
ATOM     20  C   UNL     1      -1.083  12.031  21.921  0.00  0.00    +0.000 A 
ATOM     21  C   UNL     1      -1.481  13.475  21.852  0.00  0.00    +0.000 C 
ATOM     22  C   UNL     1      -0.488  11.403  20.812  0.00  0.00    +0.000 A 
ENDBRANCH  13  16
ENDBRANCH   7  10
BRANCH   8  23
ATOM     23  C   UNL     1       2.155   5.128  19.608  0.00  0.00    +0.000 C 
ATOM     24  N   UNL     1       2.175   5.367  20.946  0.00  0.00    +0.000 N 
ATOM     25  O   UNL     1       1.467   4.199  19.185  0.00  0.00    +0.000 OA
ATOM     26  H   UNL     1       3.006   5.806  21.336  0.00  0.00    +0.000 HD
ATOM     27  H   UNL     1       1.731   4.666  21.522  0.00  0.00    +0.000 HD
ENDBRANCH   8  23
BRANCH   1  29
ATOM     28  C   UNL     1       6.090   4.220  14.236  0.00  0.00    +0.000 C 
ATOM     29  C   UNL     1       5.802   3.850  15.688  0.00  0.00    +0.000 C 
ENDBRANCH   1  29
TORSDOF 4
ENDMDL
MODEL 9
REMARK VINA RESULT:      -6.7      7.459      9.558
REMARK  Name = 
REMARK  6 active torsions:
REMARK  status: ('A' for Active; 'I' for Inactive)
REMARK    1  A    between atoms: C_1  and  C_2
REMARK    2  A    between atoms: C_2  and  N_3
REMARK    3  A    between atoms: C_9  and  N_10
REMARK    4  A    between atoms: N_13  and  C_14
REMARK    5  A    between atoms: C_18  and  C_19
REMARK    6  A    between atoms: C_21  and  C_22
REMARK                            x       y       z     vdW  Elec       q    Type
REMARK                         _______ _______ _______ _____ _____    ______ ____
ROOT
ATOM      1  N   UNL     1      -2.362  13.520  22.763  0.00  0.00    +0.000 NA
ATOM      2  C   UNL     1      -3.100  13.987  21.562  0.00  0.00    +0.000 C 
ATOM      3  C   UNL     1      -3.042  13.026  20.352  0.00  0.00    +0.000 C 
ATOM      4  C   UNL     1      -1.653  12.477  20.160  0.00  0.00    +0.000 A 
ATOM      5  C   UNL     1      -0.697  12.642  21.143  0.00  0.00    +0.000 A 
ATOM      6  S   UNL     1       0.764  11.883  20.747  0.00  0.00    +0.000 S 
ATOM      7  C   UNL     1       0.176  11.430  19.206  0.00  0.00    +0.000 A 
ATOM      8  C   UNL     1      -1.174  11.711  19.028  0.00  0.00    +0.000 A 
ATOM      9  C   UNL     1      -0.917  13.395  22.428  0.00  0.00    +0.000 C 
ENDROOT
BRANCH   7  10
ATOM     10  N   UNL     1       1.158  10.824  18.437  0.00  0.00    +0.000 N 
ATOM     11  C   UNL     1       1.357   9.460  18.589  0.00  0.00    +0.000 C 
ATOM     12  O   UNL     1       0.643   8.761  19.304  0.00  0.00    +0.000 OA
ATOM     13  N   UNL     1       2.469   9.013  17.902  0.00  0.00    +0.000 N 
ATOM     14  H   UNL     1       1.185  11.131  17.474  0.00  0.00    +0.000 HD
ATOM     15  H   UNL     1       3.032   9.723  17.453  0.00  0.00    +0.000 HD
BRANCH  13  16
ATOM     16  C   UNL     1       3.018   7.708  17.961  0.00  0.00    +0.000 A 
ATOM     17  C   UNL     1       2.752   6.804  18.993  0.00  0.00    +0.000 A 
ATOM     18  C   UNL     1       3.377   5.553  19.027  0.00  0.00    +0.000 A 
ATOM     19  C   UNL     1       4.267   5.188  18.023  0.00  0.00    +0.000 A 
ATOM     20  C   UNL     1       4.534   6.067  16.969  0.00  0.00    +0.000 A 
ATOM     21  C   UNL     1       5.496   5.679  15.886  0.00  0.00    +0.000 C 
ATOM     22  C   UNL     1       3.908   7.326  16.948  0.00  0.00    +0.000 A 
ENDBRANCH  13  16
ENDBRANCH   7  10
BRANCH   8  23
ATOM     23  C   UNL     1      -2.069  11.271  17.954  0.00  0.00    +0.000 C 
ATOM     24  N   UNL     1      -2.080  11.968  16.787  0.00  0.00    +0.000 N 
ATOM     25  O   UNL     1      -2.849  10.327  18.085  0.00  0.00    +0.000 OA
ATOM     26  H   UNL     1      -1.785  12.941  16.814  0.00  0.00    +0.000 HD
ATOM     27  H   UNL     1      -2.837  11.750  16.155  0.00  0.00    +0.000 HD
ENDBRANCH   8  23
BRANCH   1  29
ATOM     28  C   UNL     1      -4.024  12.414  24.299  0.00  0.00    +0.000 C 
ATOM     29  C   UNL     1      -2.873  12.250  23.311  0.00  0.00    +0.000 C 
ENDBRANCH   1  29
TORSDOF 4
ENDMDL
