MODEL 1
REMARK VINA RESULT:      -7.1      0.000      0.000
REMARK  Name = 
REMARK  2 active torsions:
REMARK  status: ('A' for Active; 'I' for Inactive)
REMARK    1  A    between atoms: C_4  and  C_5
REMARK    2  A    between atoms: C_5  and  C_6
REMARK                            x       y       z     vdW  Elec       q    Type
REMARK                         _______ _______ _______ _____ _____    ______ ____
ROOT
ATOM      1  O   UNL     1       3.608   7.738  17.221  0.00  0.00    +0.000 OA
ATOM      2  C   UNL     1       2.715   7.696  18.061  0.00  0.00    +0.000 C 
ATOM      3  N   UNL     1       1.821   8.730  18.148  0.00  0.00    +0.000 N 
ATOM      4  C   UNL     1       1.272   9.387  19.351  0.00  0.00    +0.000 C 
ATOM      5  C   UNL     1       0.930   8.488  20.565  0.00  0.00    +0.000 C 
ATOM      6  O   UNL     1      -0.011   8.678  21.329  0.00  0.00    +0.000 OA
ATOM      7  N   UNL     1       1.975   7.634  20.919  0.00  0.00    +0.000 N 
ATOM      8  C   UNL     1       2.035   6.448  20.155  0.00  0.00    +0.000 A 
ATOM      9  C   UNL     1       1.729   5.244  20.792  0.00  0.00    +0.000 A 
ATOM     10  C   UNL     1       1.868   4.038  20.100  0.00  0.00    +0.000 A 
ATOM     11  C   UNL     1       2.321   4.044  18.782  0.00  0.00    +0.000 A 
ATOM     12 BR   UNL     1       2.492   2.414  17.840  0.00  0.00    +0.000 Br
ATOM     13  C   UNL     1       2.633   5.243  18.145  0.00  0.00    +0.000 A 
ATOM     14  C   UNL     1       2.474   6.456  18.829  0.00  0.00    +0.000 A 
ATOM     15  H   UNL     1       2.035   9.393  17.410  0.00  0.00    +0.000 HD
ATOM     16  H   UNL     1       2.840   8.145  20.746  0.00  0.00    +0.000 HD
ENDROOT
BRANCH   4  17
ATOM     17  C   UNL     1       0.098  10.321  18.978  0.00  0.00    +0.000 C 
BRANCH  17  18
ATOM     18  C   UNL     1       0.447  11.790  18.862  0.00  0.00    +0.000 A 
ATOM     19  C   UNL     1       1.783  12.197  18.983  0.00  0.00    +0.000 A 
ATOM     20  C   UNL     1       2.119  13.552  18.964  0.00  0.00    +0.000 A 
ATOM     21  C   UNL     1       1.125  14.514  18.814  0.00  0.00    +0.000 A 
ATOM     22  C   UNL     1      -0.201  14.121  18.651  0.00  0.00    +0.000 A 
ATOM     23  C   UNL     1      -0.537  12.766  18.661  0.00  0.00    +0.000 A 
ENDBRANCH  17  18
ENDBRANCH   4  17
TORSDOF 2
ENDMDL
MODEL 2
REMARK VINA RESULT:      -7.1      0.242      1.064
REMARK  Name = 
REMARK  2 active torsions:
REMARK  status: ('A' for Active; 'I' for Inactive)
REMARK    1  A    between atoms: C_4  and  C_5
REMARK    2  A    between atoms: C_5  and  C_6
REMARK                            x       y       z     vdW  Elec       q    Type
REMARK                         _______ _______ _______ _____ _____    ______ ____
ROOT
ATOM      1  O   UNL     1       3.762   7.544  17.180  0.00  0.00    +0.000 OA
ATOM      2  C   UNL     1       2.841   7.581  17.989  0.00  0.00    +0.000 C 
ATOM      3  N   UNL     1       1.997   8.660  18.002  0.00  0.00    +0.000 N 
ATOM      4  C   UNL     1       1.442   9.393  19.158  0.00  0.00    +0.000 C 
ATOM      5  C   UNL     1       1.017   8.564  20.395  0.00  0.00    +0.000 C 
ATOM      6  O   UNL     1       0.062   8.832  21.117  0.00  0.00    +0.000 OA
ATOM      7  N   UNL     1       2.005   7.677  20.820  0.00  0.00    +0.000 N 
ATOM      8  C   UNL     1       2.031   6.458  20.107  0.00  0.00    +0.000 A 
ATOM      9  C   UNL     1       1.645   5.298  20.782  0.00  0.00    +0.000 A 
ATOM     10  C   UNL     1       1.746   4.058  20.146  0.00  0.00    +0.000 A 
ATOM     11  C   UNL     1       2.242   3.986  18.845  0.00  0.00    +0.000 A 
ATOM     12 BR   UNL     1       2.362   2.311  17.977  0.00  0.00    +0.000 Br
ATOM     13  C   UNL     1       2.634   5.140  18.170  0.00  0.00    +0.000 A 
ATOM     14  C   UNL     1       2.514   6.387  18.798  0.00  0.00    +0.000 A 
ATOM     15  H   UNL     1       2.268   9.279  17.246  0.00  0.00    +0.000 HD
ATOM     16  H   UNL     1       2.900   8.138  20.656  0.00  0.00    +0.000 HD
ENDROOT
BRANCH   4  17
ATOM     17  C   UNL     1       0.329  10.366  18.706  0.00  0.00    +0.000 C 
BRANCH  17  18
ATOM     18  C   UNL     1       0.688  11.836  18.762  0.00  0.00    +0.000 A 
ATOM     19  C   UNL     1      -0.326  12.793  18.906  0.00  0.00    +0.000 A 
ATOM     20  C   UNL     1      -0.028  14.157  18.877  0.00  0.00    +0.000 A 
ATOM     21  C   UNL     1       1.288  14.578  18.712  0.00  0.00    +0.000 A 
ATOM     22  C   UNL     1       2.310  13.638  18.609  0.00  0.00    +0.000 A 
ATOM     23  C   UNL     1       2.013  12.274  18.649  0.00  0.00    +0.000 A 
ENDBRANCH  17  18
ENDBRANCH   4  17
TORSDOF 2
ENDMDL
MODEL 3
REMARK VINA RESULT:      -6.9      4.304      7.507
REMARK  Name = 
REMARK  2 active torsions:
REMARK  status: ('A' for Active; 'I' for Inactive)
REMARK    1  A    between atoms: C_4  and  C_5
REMARK    2  A    between atoms: C_5  and  C_6
REMARK                            x       y       z     vdW  Elec       q    Type
REMARK                         _______ _______ _______ _____ _____    ______ ____
ROOT
ATOM      1  O   UNL     1       2.920   8.512  16.823  0.00  0.00    +0.000 OA
ATOM      2  C   UNL     1       3.257   7.436  17.307  0.00  0.00    +0.000 C 
ATOM      3  N   UNL     1       4.383   6.810  16.841  0.00  0.00    +0.000 N 
ATOM      4  C   UNL     1       4.600   5.379  16.552  0.00  0.00    +0.000 C 
ATOM      5  C   UNL     1       3.967   4.349  17.520  0.00  0.00    +0.000 C 
ATOM      6  O   UNL     1       4.477   3.275  17.822  0.00  0.00    +0.000 OA
ATOM      7  N   UNL     1       2.615   4.590  17.760  0.00  0.00    +0.000 N 
ATOM      8  C   UNL     1       2.371   5.561  18.756  0.00  0.00    +0.000 A 
ATOM      9  C   UNL     1       1.819   5.133  19.965  0.00  0.00    +0.000 A 
ATOM     10  C   UNL     1       1.472   6.071  20.941  0.00  0.00    +0.000 A 
ATOM     11  C   UNL     1       1.670   7.429  20.697  0.00  0.00    +0.000 A 
ATOM     12 BR   UNL     1       1.219   8.697  22.024  0.00  0.00    +0.000 Br
ATOM     13  C   UNL     1       2.215   7.861  19.489  0.00  0.00    +0.000 A 
ATOM     14  C   UNL     1       2.583   6.921  18.517  0.00  0.00    +0.000 A 
ATOM     15  H   UNL     1       4.813   7.414  16.148  0.00  0.00    +0.000 HD
ATOM     16  H   UNL     1       2.223   4.949  16.890  0.00  0.00    +0.000 HD
ENDROOT
BRANCH   4  17
ATOM     17  C   UNL     1       6.099   5.091  16.303  0.00  0.00    +0.000 C 
BRANCH  17  18
ATOM     18  C   UNL     1       6.464   4.733  14.878  0.00  0.00    +0.000 A 
ATOM     19  C   UNL     1       7.537   5.383  14.253  0.00  0.00    +0.000 A 
ATOM     20  C   UNL     1       7.841   5.131  12.914  0.00  0.00    +0.000 A 
ATOM     21  C   UNL     1       7.081   4.219  12.188  0.00  0.00    +0.000 A 
ATOM     22  C   UNL     1       6.039   3.535  12.809  0.00  0.00    +0.000 A 
ATOM     23  C   UNL     1       5.741   3.780  14.150  0.00  0.00    +0.000 A 
ENDBRANCH  17  18
ENDBRANCH   4  17
TORSDOF 2
ENDMDL
MODEL 4
REMARK VINA RESULT:      -6.9      3.818      5.793
REMARK  Name = 
REMARK  2 active torsions:
REMARK  status: ('A' for Active; 'I' for Inactive)
REMARK    1  A    between atoms: C_4  and  C_5
REMARK    2  A    between atoms: C_5  and  C_6
REMARK                            x       y       z     vdW  Elec       q    Type
REMARK                         _______ _______ _______ _____ _____    ______ ____
ROOT
ATOM      1  O   UNL     1       7.400   5.130  18.995  0.00  0.00    +0.000 OA
ATOM      2  C   UNL     1       6.287   4.923  18.524  0.00  0.00    +0.000 C 
ATOM      3  N   UNL     1       5.174   5.260  19.250  0.00  0.00    +0.000 N 
ATOM      4  C   UNL     1       3.916   4.507  19.427  0.00  0.00    +0.000 C 
ATOM      5  C   UNL     1       3.352   3.755  18.195  0.00  0.00    +0.000 C 
ATOM      6  O   UNL     1       2.158   3.621  17.950  0.00  0.00    +0.000 OA
ATOM      7  N   UNL     1       4.305   2.955  17.565  0.00  0.00    +0.000 N 
ATOM      8  C   UNL     1       5.137   3.653  16.662  0.00  0.00    +0.000 A 
ATOM      9  C   UNL     1       4.991   3.385  15.300  0.00  0.00    +0.000 A 
ATOM     10  C   UNL     1       5.858   3.980  14.379  0.00  0.00    +0.000 A 
ATOM     11  C   UNL     1       6.868   4.829  14.827  0.00  0.00    +0.000 A 
ATOM     12 BR   UNL     1       8.030   5.648  13.581  0.00  0.00    +0.000 Br
ATOM     13  C   UNL     1       7.021   5.093  16.187  0.00  0.00    +0.000 A 
ATOM     14  C   UNL     1       6.141   4.515  17.111  0.00  0.00    +0.000 A 
ATOM     15  H   UNL     1       5.483   5.704  20.108  0.00  0.00    +0.000 HD
ATOM     16  H   UNL     1       4.906   2.584  18.301  0.00  0.00    +0.000 HD
ENDROOT
BRANCH   4  17
ATOM     17  C   UNL     1       2.842   5.388  20.105  0.00  0.00    +0.000 C 
BRANCH  17  18
ATOM     18  C   UNL     1       2.569   6.716  19.432  0.00  0.00    +0.000 A 
ATOM     19  C   UNL     1       1.864   7.712  20.121  0.00  0.00    +0.000 A 
ATOM     20  C   UNL     1       1.528   8.913  19.493  0.00  0.00    +0.000 A 
ATOM     21  C   UNL     1       1.901   9.133  18.170  0.00  0.00    +0.000 A 
ATOM     22  C   UNL     1       2.637   8.169  17.487  0.00  0.00    +0.000 A 
ATOM     23  C   UNL     1       2.982   6.973  18.118  0.00  0.00    +0.000 A 
ENDBRANCH  17  18
ENDBRANCH   4  17
TORSDOF 2
ENDMDL
MODEL 5
REMARK VINA RESULT:      -6.8      4.075      6.065
REMARK  Name = 
REMARK  2 active torsions:
REMARK  status: ('A' for Active; 'I' for Inactive)
REMARK    1  A    between atoms: C_4  and  C_5
REMARK    2  A    between atoms: C_5  and  C_6
REMARK                            x       y       z     vdW  Elec       q    Type
REMARK                         _______ _______ _______ _____ _____    ______ ____
ROOT
ATOM      1  O   UNL     1       7.822   4.937  18.572  0.00  0.00    +0.000 OA
ATOM      2  C   UNL     1       6.676   4.785  18.163  0.00  0.00    +0.000 C 
ATOM      3  N   UNL     1       5.620   5.119  18.970  0.00  0.00    +0.000 N 
ATOM      4  C   UNL     1       4.352   4.395  19.190  0.00  0.00    +0.000 C 
ATOM      5  C   UNL     1       3.692   3.718  17.964  0.00  0.00    +0.000 C 
ATOM      6  O   UNL     1       2.481   3.629  17.787  0.00  0.00    +0.000 OA
ATOM      7  N   UNL     1       4.579   2.921  17.241  0.00  0.00    +0.000 N 
ATOM      8  C   UNL     1       5.376   3.636  16.320  0.00  0.00    +0.000 A 
ATOM      9  C   UNL     1       5.140   3.436  14.959  0.00  0.00    +0.000 A 
ATOM     10  C   UNL     1       5.967   4.049  14.014  0.00  0.00    +0.000 A 
ATOM     11  C   UNL     1       7.029   4.846  14.436  0.00  0.00    +0.000 A 
ATOM     12 BR   UNL     1       8.138   5.689  13.159  0.00  0.00    +0.000 Br
ATOM     13  C   UNL     1       7.273   5.042  15.794  0.00  0.00    +0.000 A 
ATOM     14  C   UNL     1       6.432   4.447  16.744  0.00  0.00    +0.000 A 
ATOM     15  H   UNL     1       5.994   5.513  19.827  0.00  0.00    +0.000 HD
ATOM     16  H   UNL     1       5.212   2.499  17.920  0.00  0.00    +0.000 HD
ENDROOT
BRANCH   4  17
ATOM     17  C   UNL     1       3.349   5.273  19.973  0.00  0.00    +0.000 C 
BRANCH  17  18
ATOM     18  C   UNL     1       2.899   6.534  19.266  0.00  0.00    +0.000 A 
ATOM     19  C   UNL     1       3.397   6.829  17.989  0.00  0.00    +0.000 A 
ATOM     20  C   UNL     1       3.062   8.025  17.352  0.00  0.00    +0.000 A 
ATOM     21  C   UNL     1       2.218   8.936  17.982  0.00  0.00    +0.000 A 
ATOM     22  C   UNL     1       1.683   8.637  19.232  0.00  0.00    +0.000 A 
ATOM     23  C   UNL     1       2.010   7.436  19.864  0.00  0.00    +0.000 A 
ENDBRANCH  17  18
ENDBRANCH   4  17
TORSDOF 2
ENDMDL
MODEL 6
REMARK VINA RESULT:      -6.8      1.157      1.309
REMARK  Name = 
REMARK  2 active torsions:
REMARK  status: ('A' for Active; 'I' for Inactive)
REMARK    1  A    between atoms: C_4  and  C_5
REMARK    2  A    between atoms: C_5  and  C_6
REMARK                            x       y       z     vdW  Elec       q    Type
REMARK                         _______ _______ _______ _____ _____    ______ ____
ROOT
ATOM      1  O   UNL     1       3.041   8.532  17.285  0.00  0.00    +0.000 OA
ATOM      2  C   UNL     1       2.255   8.306  18.200  0.00  0.00    +0.000 C 
ATOM      3  N   UNL     1       1.269   9.214  18.483  0.00  0.00    +0.000 N 
ATOM      4  C   UNL     1       0.787   9.685  19.797  0.00  0.00    +0.000 C 
ATOM      5  C   UNL     1       0.680   8.642  20.937  0.00  0.00    +0.000 C 
ATOM      6  O   UNL     1      -0.187   8.647  21.804  0.00  0.00    +0.000 OA
ATOM      7  N   UNL     1       1.843   7.889  21.094  0.00  0.00    +0.000 N 
ATOM      8  C   UNL     1       1.947   6.796  20.206  0.00  0.00    +0.000 A 
ATOM      9  C   UNL     1       1.845   5.510  20.740  0.00  0.00    +0.000 A 
ATOM     10  C   UNL     1       2.038   4.398  19.915  0.00  0.00    +0.000 A 
ATOM     11  C   UNL     1       2.340   4.581  18.566  0.00  0.00    +0.000 A 
ATOM     12 BR   UNL     1       2.582   3.079  17.445  0.00  0.00    +0.000 Br
ATOM     13  C   UNL     1       2.449   5.863  18.032  0.00  0.00    +0.000 A 
ATOM     14  C   UNL     1       2.235   6.979  18.852  0.00  0.00    +0.000 A 
ATOM     15  H   UNL     1       1.328   9.963  17.801  0.00  0.00    +0.000 HD
ATOM     16  H   UNL     1       2.624   8.513  20.892  0.00  0.00    +0.000 HD
ENDROOT
BRANCH   4  17
ATOM     17  C   UNL     1      -0.515  10.504  19.641  0.00  0.00    +0.000 C 
BRANCH  17  18
ATOM     18  C   UNL     1      -0.392  11.983  19.940  0.00  0.00    +0.000 A 
ATOM     19  C   UNL     1      -0.290  12.417  21.269  0.00  0.00    +0.000 A 
ATOM     20  C   UNL     1      -0.260  13.779  21.574  0.00  0.00    +0.000 A 
ATOM     21  C   UNL     1      -0.323  14.722  20.552  0.00  0.00    +0.000 A 
ATOM     22  C   UNL     1      -0.382  14.305  19.225  0.00  0.00    +0.000 A 
ATOM     23  C   UNL     1      -0.403  12.943  18.920  0.00  0.00    +0.000 A 
ENDBRANCH  17  18
ENDBRANCH   4  17
TORSDOF 2
ENDMDL
MODEL 7
REMARK VINA RESULT:      -6.8      1.823      2.611
REMARK  Name = 
REMARK  2 active torsions:
REMARK  status: ('A' for Active; 'I' for Inactive)
REMARK    1  A    between atoms: C_4  and  C_5
REMARK    2  A    between atoms: C_5  and  C_6
REMARK                            x       y       z     vdW  Elec       q    Type
REMARK                         _______ _______ _______ _____ _____    ______ ____
ROOT
ATOM      1  O   UNL     1       2.699   9.003  17.395  0.00  0.00    +0.000 OA
ATOM      2  C   UNL     1       1.977   8.690  18.336  0.00  0.00    +0.000 C 
ATOM      3  N   UNL     1       0.953   9.522  18.706  0.00  0.00    +0.000 N 
ATOM      4  C   UNL     1       0.511   9.907  20.061  0.00  0.00    +0.000 C 
ATOM      5  C   UNL     1       0.526   8.813  21.158  0.00  0.00    +0.000 C 
ATOM      6  O   UNL     1      -0.294   8.728  22.066  0.00  0.00    +0.000 OA
ATOM      7  N   UNL     1       1.739   8.129  21.226  0.00  0.00    +0.000 N 
ATOM      8  C   UNL     1       1.864   7.082  20.286  0.00  0.00    +0.000 A 
ATOM      9  C   UNL     1       1.867   5.771  20.766  0.00  0.00    +0.000 A 
ATOM     10  C   UNL     1       2.084   4.709  19.884  0.00  0.00    +0.000 A 
ATOM     11  C   UNL     1       2.306   4.966  18.532  0.00  0.00    +0.000 A 
ATOM     12 BR   UNL     1       2.581   3.530  17.335  0.00  0.00    +0.000 Br
ATOM     13  C   UNL     1       2.309   6.274  18.050  0.00  0.00    +0.000 A 
ATOM     14  C   UNL     1       2.071   7.339  18.929  0.00  0.00    +0.000 A 
ATOM     15  H   UNL     1       0.932  10.301  18.057  0.00  0.00    +0.000 HD
ATOM     16  H   UNL     1       2.469   8.809  21.014  0.00  0.00    +0.000 HD
ENDROOT
BRANCH   4  17
ATOM     17  C   UNL     1      -0.845  10.649  20.006  0.00  0.00    +0.000 C 
BRANCH  17  18
ATOM     18  C   UNL     1      -1.541  10.631  18.662  0.00  0.00    +0.000 A 
ATOM     19  C   UNL     1      -1.428  11.736  17.807  0.00  0.00    +0.000 A 
ATOM     20  C   UNL     1      -2.128  11.778  16.599  0.00  0.00    +0.000 A 
ATOM     21  C   UNL     1      -2.941  10.711  16.230  0.00  0.00    +0.000 A 
ATOM     22  C   UNL     1      -3.029   9.589  17.050  0.00  0.00    +0.000 A 
ATOM     23  C   UNL     1      -2.322   9.543  18.252  0.00  0.00    +0.000 A 
ENDBRANCH  17  18
ENDBRANCH   4  17
TORSDOF 2
ENDMDL
MODEL 8
REMARK VINA RESULT:      -6.8      1.936      2.147
REMARK  Name = 
REMARK  2 active torsions:
REMARK  status: ('A' for Active; 'I' for Inactive)
REMARK    1  A    between atoms: C_4  and  C_5
REMARK    2  A    between atoms: C_5  and  C_6
REMARK                            x       y       z     vdW  Elec       q    Type
REMARK                         _______ _______ _______ _____ _____    ______ ____
ROOT
ATOM      1  O   UNL     1       2.899   8.722  17.434  0.00  0.00    +0.000 OA
ATOM      2  C   UNL     1       2.157   8.431  18.367  0.00  0.00    +0.000 C 
ATOM      3  N   UNL     1       1.181   9.312  18.753  0.00  0.00    +0.000 N 
ATOM      4  C   UNL     1       0.758   9.693  20.114  0.00  0.00    +0.000 C 
ATOM      5  C   UNL     1       0.708   8.578  21.188  0.00  0.00    +0.000 C 
ATOM      6  O   UNL     1      -0.119   8.521  22.093  0.00  0.00    +0.000 OA
ATOM      7  N   UNL     1       1.880   7.826  21.244  0.00  0.00    +0.000 N 
ATOM      8  C   UNL     1       1.949   6.793  20.284  0.00  0.00    +0.000 A 
ATOM      9  C   UNL     1       1.877   5.474  20.737  0.00  0.00    +0.000 A 
ATOM     10  C   UNL     1       2.037   4.420  19.834  0.00  0.00    +0.000 A 
ATOM     11  C   UNL     1       2.276   4.691  18.488  0.00  0.00    +0.000 A 
ATOM     12 BR   UNL     1       2.475   3.266  17.262  0.00  0.00    +0.000 Br
ATOM     13  C   UNL     1       2.355   6.006  18.033  0.00  0.00    +0.000 A 
ATOM     14  C   UNL     1       2.174   7.065  18.932  0.00  0.00    +0.000 A 
ATOM     15  H   UNL     1       1.206  10.104  18.119  0.00  0.00    +0.000 HD
ATOM     16  H   UNL     1       2.648   8.468  21.048  0.00  0.00    +0.000 HD
ENDROOT
BRANCH   4  17
ATOM     17  C   UNL     1      -0.554  10.511  20.071  0.00  0.00    +0.000 C 
BRANCH  17  18
ATOM     18  C   UNL     1      -0.601  11.714  20.989  0.00  0.00    +0.000 A 
ATOM     19  C   UNL     1      -1.240  11.613  22.233  0.00  0.00    +0.000 A 
ATOM     20  C   UNL     1      -1.369  12.730  23.060  0.00  0.00    +0.000 A 
ATOM     21  C   UNL     1      -0.853  13.958  22.657  0.00  0.00    +0.000 A 
ATOM     22  C   UNL     1      -0.179  14.062  21.443  0.00  0.00    +0.000 A 
ATOM     23  C   UNL     1      -0.042  12.943  20.620  0.00  0.00    +0.000 A 
ENDBRANCH  17  18
ENDBRANCH   4  17
TORSDOF 2
ENDMDL
MODEL 9
REMARK VINA RESULT:      -6.8      1.062      1.112
REMARK  Name = 
REMARK  2 active torsions:
REMARK  status: ('A' for Active; 'I' for Inactive)
REMARK    1  A    between atoms: C_4  and  C_5
REMARK    2  A    between atoms: C_5  and  C_6
REMARK                            x       y       z     vdW  Elec       q    Type
REMARK                         _______ _______ _______ _____ _____    ______ ____
ROOT
ATOM      1  O   UNL     1       3.787   7.434  17.201  0.00  0.00    +0.000 OA
ATOM      2  C   UNL     1       2.875   7.449  18.022  0.00  0.00    +0.000 C 
ATOM      3  N   UNL     1       2.026   8.524  18.067  0.00  0.00    +0.000 N 
ATOM      4  C   UNL     1       1.481   9.230  19.243  0.00  0.00    +0.000 C 
ATOM      5  C   UNL     1       1.073   8.373  20.467  0.00  0.00    +0.000 C 
ATOM      6  O   UNL     1       0.125   8.621  21.205  0.00  0.00    +0.000 OA
ATOM      7  N   UNL     1       2.071   7.483  20.863  0.00  0.00    +0.000 N 
ATOM      8  C   UNL     1       2.095   6.279  20.124  0.00  0.00    +0.000 A 
ATOM      9  C   UNL     1       1.722   5.103  20.780  0.00  0.00    +0.000 A 
ATOM     10  C   UNL     1       1.822   3.877  20.117  0.00  0.00    +0.000 A 
ATOM     11  C   UNL     1       2.303   3.834  18.809  0.00  0.00    +0.000 A 
ATOM     12 BR   UNL     1       2.422   2.179  17.906  0.00  0.00    +0.000 Br
ATOM     13  C   UNL     1       2.683   5.004  18.154  0.00  0.00    +0.000 A 
ATOM     14  C   UNL     1       2.563   6.238  18.809  0.00  0.00    +0.000 A 
ATOM     15  H   UNL     1       2.286   9.160  17.320  0.00  0.00    +0.000 HD
ATOM     16  H   UNL     1       2.962   7.951  20.699  0.00  0.00    +0.000 HD
ENDROOT
BRANCH   4  17
ATOM     17  C   UNL     1       0.357  10.206  18.824  0.00  0.00    +0.000 C 
BRANCH  17  18
ATOM     18  C   UNL     1       0.238  11.459  19.665  0.00  0.00    +0.000 A 
ATOM     19  C   UNL     1       1.391  12.181  20.003  0.00  0.00    +0.000 A 
ATOM     20  C   UNL     1       1.315  13.291  20.846  0.00  0.00    +0.000 A 
ATOM     21  C   UNL     1       0.084  13.696  21.354  0.00  0.00    +0.000 A 
ATOM     22  C   UNL     1      -1.074  13.013  20.993  0.00  0.00    +0.000 A 
ATOM     23  C   UNL     1      -1.000  11.909  20.142  0.00  0.00    +0.000 A 
ENDBRANCH  17  18
ENDBRANCH   4  17
TORSDOF 2
ENDMDL
