MODEL 1
REMARK VINA RESULT:      -7.2      0.000      0.000
REMARK  Name = 
REMARK  9 active torsions:
REMARK  status: ('A' for Active; 'I' for Inactive)
REMARK    1  A    between atoms: C_2  and  C_3
REMARK    2  A    between atoms: C_6  and  C_7
REMARK    3  A    between atoms: C_10  and  O_11
REMARK    4  A    between atoms: O_11  and  C_12
REMARK    5  A    between atoms: C_12  and  C_13
REMARK    6  A    between atoms: N_15  and  C_16
REMARK    7  A    between atoms: C_16  and  C_17
REMARK    8  A    between atoms: C_17  and  C_18
REMARK    9  A    between atoms: C_18  and  N_19
REMARK                            x       y       z     vdW  Elec       q    Type
REMARK                         _______ _______ _______ _____ _____    ______ ____
ROOT
ATOM      1  O   UNL     1       2.928   7.454  17.409  0.00  0.00    +0.000 OA
ENDROOT
BRANCH   1   5
ATOM      2  C   UNL     1       0.533   9.685  20.043  0.00  0.00    +0.000 A 
ATOM      3  C   UNL     1       0.697  10.013  18.686  0.00  0.00    +0.000 A 
ATOM      4  C   UNL     1       1.498   9.239  17.842  0.00  0.00    +0.000 A 
ATOM      5  C   UNL     1       2.184   8.133  18.335  0.00  0.00    +0.000 A 
ATOM      6  C   UNL     1       2.050   7.793  19.678  0.00  0.00    +0.000 A 
ATOM      7  C   UNL     1       1.233   8.561  20.516  0.00  0.00    +0.000 A 
BRANCH   2  11
ATOM      8  C   UNL     1      -1.984  12.008  22.652  0.00  0.00    +0.000 A 
ATOM      9  C   UNL     1      -1.261  10.932  23.158  0.00  0.00    +0.000 A 
ATOM     10  C   UNL     1      -0.464  10.162  22.300  0.00  0.00    +0.000 A 
ATOM     11  C   UNL     1      -0.376  10.450  20.927  0.00  0.00    +0.000 A 
ATOM     12  C   UNL     1      -1.143  11.523  20.439  0.00  0.00    +0.000 A 
ATOM     13  C   UNL     1      -1.933  12.302  21.291  0.00  0.00    +0.000 A 
BRANCH   8  15
ATOM     14  N   UNL     1      -3.406  13.484  24.238  0.00  0.00    +0.000 NA
ATOM     15  C   UNL     1      -2.760  12.824  23.529  0.00  0.00    +0.000 C 
ENDBRANCH   8  15
ENDBRANCH   2  11
ENDBRANCH   1   5
BRANCH   1  16
ATOM     16  C   UNL     1       4.311   7.315  17.702  0.00  0.00    +0.000 C 
BRANCH  16  17
ATOM     17  C   UNL     1       4.738   5.869  17.949  0.00  0.00    +0.000 C 
ATOM     18  O   UNL     1       5.259   5.517  19.004  0.00  0.00    +0.000 OA
ATOM     19  N   UNL     1       4.494   5.008  16.899  0.00  0.00    +0.000 N 
ATOM     20  H   UNL     1       4.070   5.372  16.050  0.00  0.00    +0.000 HD
BRANCH  19  21
ATOM     21  C   UNL     1       4.878   3.618  16.985  0.00  0.00    +0.000 C 
BRANCH  21  22
ATOM     22  C   UNL     1       3.750   2.719  17.473  0.00  0.00    +0.000 C 
BRANCH  22  23
ATOM     23  C   UNL     1       3.889   2.376  18.957  0.00  0.00    +0.000 C 
BRANCH  23  24
ATOM     24  N   UNL     1       2.828   2.962  19.759  0.00  0.00    +0.000 N 
ATOM     25  C   UNL     1       1.712   3.662  19.178  0.00  0.00    +0.000 C 
ATOM     26  C   UNL     1       0.999   4.255  20.377  0.00  0.00    +0.000 C 
ATOM     27  C   UNL     1       1.304   3.276  21.505  0.00  0.00    +0.000 C 
ATOM     28  C   UNL     1       2.644   2.705  21.111  0.00  0.00    +0.000 C 
ATOM     29  O   UNL     1       3.388   2.076  21.846  0.00  0.00    +0.000 OA
ENDBRANCH  23  24
ENDBRANCH  22  23
ENDBRANCH  21  22
ENDBRANCH  19  21
ENDBRANCH  16  17
ENDBRANCH   1  16
TORSDOF 9
ENDMDL
MODEL 2
REMARK VINA RESULT:      -7.1      1.159      1.862
REMARK  Name = 
REMARK  9 active torsions:
REMARK  status: ('A' for Active; 'I' for Inactive)
REMARK    1  A    between atoms: C_2  and  C_3
REMARK    2  A    between atoms: C_6  and  C_7
REMARK    3  A    between atoms: C_10  and  O_11
REMARK    4  A    between atoms: O_11  and  C_12
REMARK    5  A    between atoms: C_12  and  C_13
REMARK    6  A    between atoms: N_15  and  C_16
REMARK    7  A    between atoms: C_16  and  C_17
REMARK    8  A    between atoms: C_17  and  C_18
REMARK    9  A    between atoms: C_18  and  N_19
REMARK                            x       y       z     vdW  Elec       q    Type
REMARK                         _______ _______ _______ _____ _____    ______ ____
ROOT
ATOM      1  O   UNL     1       2.823   7.837  17.338  0.00  0.00    +0.000 OA
ENDROOT
BRANCH   1   5
ATOM      2  C   UNL     1       0.314   9.909  19.995  0.00  0.00    +0.000 A 
ATOM      3  C   UNL     1       1.091   8.802  20.376  0.00  0.00    +0.000 A 
ATOM      4  C   UNL     1       1.919   8.146  19.462  0.00  0.00    +0.000 A 
ATOM      5  C   UNL     1       1.970   8.555  18.133  0.00  0.00    +0.000 A 
ATOM      6  C   UNL     1       1.201   9.641  17.725  0.00  0.00    +0.000 A 
ATOM      7  C   UNL     1       0.386  10.306  18.648  0.00  0.00    +0.000 A 
BRANCH   2  11
ATOM      8  C   UNL     1      -2.193  11.998  22.805  0.00  0.00    +0.000 A 
ATOM      9  C   UNL     1      -2.176  12.382  21.467  0.00  0.00    +0.000 A 
ATOM     10  C   UNL     1      -1.338  11.717  20.562  0.00  0.00    +0.000 A 
ATOM     11  C   UNL     1      -0.505  10.662  20.973  0.00  0.00    +0.000 A 
ATOM     12  C   UNL     1      -0.520  10.318  22.337  0.00  0.00    +0.000 A 
ATOM     13  C   UNL     1      -1.361  10.970  23.245  0.00  0.00    +0.000 A 
BRANCH   8  15
ATOM     14  N   UNL     1      -3.811  13.165  24.459  0.00  0.00    +0.000 NA
ATOM     15  C   UNL     1      -3.078  12.641  23.722  0.00  0.00    +0.000 C 
ENDBRANCH   8  15
ENDBRANCH   2  11
ENDBRANCH   1   5
BRANCH   1  16
ATOM     16  C   UNL     1       4.016   7.378  17.960  0.00  0.00    +0.000 C 
BRANCH  16  17
ATOM     17  C   UNL     1       4.527   6.056  17.393  0.00  0.00    +0.000 C 
ATOM     18  O   UNL     1       4.886   5.946  16.223  0.00  0.00    +0.000 OA
ATOM     19  N   UNL     1       4.547   5.010  18.293  0.00  0.00    +0.000 N 
ATOM     20  H   UNL     1       4.224   5.171  19.243  0.00  0.00    +0.000 HD
BRANCH  19  21
ATOM     21  C   UNL     1       4.977   3.694  17.880  0.00  0.00    +0.000 C 
BRANCH  21  22
ATOM     22  C   UNL     1       3.829   2.817  17.401  0.00  0.00    +0.000 C 
BRANCH  22  23
ATOM     23  C   UNL     1       3.430   1.771  18.443  0.00  0.00    +0.000 C 
BRANCH  23  24
ATOM     24  N   UNL     1       2.607   2.333  19.501  0.00  0.00    +0.000 N 
ATOM     25  C   UNL     1       3.133   2.666  20.800  0.00  0.00    +0.000 C 
ATOM     26  C   UNL     1       1.898   3.015  21.607  0.00  0.00    +0.000 C 
ATOM     27  C   UNL     1       0.924   3.557  20.568  0.00  0.00    +0.000 C 
ATOM     28  C   UNL     1       1.326   2.831  19.307  0.00  0.00    +0.000 C 
ATOM     29  O   UNL     1       0.659   2.761  18.288  0.00  0.00    +0.000 OA
ENDBRANCH  23  24
ENDBRANCH  22  23
ENDBRANCH  21  22
ENDBRANCH  19  21
ENDBRANCH  16  17
ENDBRANCH   1  16
TORSDOF 9
ENDMDL
MODEL 3
REMARK VINA RESULT:      -7.1      1.048      1.574
REMARK  Name = 
REMARK  9 active torsions:
REMARK  status: ('A' for Active; 'I' for Inactive)
REMARK    1  A    between atoms: C_2  and  C_3
REMARK    2  A    between atoms: C_6  and  C_7
REMARK    3  A    between atoms: C_10  and  O_11
REMARK    4  A    between atoms: O_11  and  C_12
REMARK    5  A    between atoms: C_12  and  C_13
REMARK    6  A    between atoms: N_15  and  C_16
REMARK    7  A    between atoms: C_16  and  C_17
REMARK    8  A    between atoms: C_17  and  C_18
REMARK    9  A    between atoms: C_18  and  N_19
REMARK                            x       y       z     vdW  Elec       q    Type
REMARK                         _______ _______ _______ _____ _____    ______ ____
ROOT
ATOM      1  O   UNL     1       2.844   7.529  17.353  0.00  0.00    +0.000 OA
ENDROOT
BRANCH   1   5
ATOM      2  C   UNL     1       0.597   9.786  20.093  0.00  0.00    +0.000 A 
ATOM      3  C   UNL     1       0.762  10.152  18.746  0.00  0.00    +0.000 A 
ATOM      4  C   UNL     1       1.512   9.368  17.865  0.00  0.00    +0.000 A 
ATOM      5  C   UNL     1       2.146   8.213  18.311  0.00  0.00    +0.000 A 
ATOM      6  C   UNL     1       2.011   7.833  19.644  0.00  0.00    +0.000 A 
ATOM      7  C   UNL     1       1.245   8.612  20.518  0.00  0.00    +0.000 A 
BRANCH   2  11
ATOM      8  C   UNL     1      -2.026  11.962  22.724  0.00  0.00    +0.000 A 
ATOM      9  C   UNL     1      -1.860  12.378  21.406  0.00  0.00    +0.000 A 
ATOM     10  C   UNL     1      -0.985  11.682  20.562  0.00  0.00    +0.000 A 
ATOM     11  C   UNL     1      -0.261  10.565  21.014  0.00  0.00    +0.000 A 
ATOM     12  C   UNL     1      -0.425  10.189  22.360  0.00  0.00    +0.000 A 
ATOM     13  C   UNL     1      -1.305  10.872  23.206  0.00  0.00    +0.000 A 
BRANCH   8  15
ATOM     14  N   UNL     1      -3.697  13.202  24.268  0.00  0.00    +0.000 NA
ATOM     15  C   UNL     1      -2.951  12.638  23.575  0.00  0.00    +0.000 C 
ENDBRANCH   8  15
ENDBRANCH   2  11
ENDBRANCH   1   5
BRANCH   1  16
ATOM     16  C   UNL     1       4.260   7.607  17.439  0.00  0.00    +0.000 C 
BRANCH  16  17
ATOM     17  C   UNL     1       4.960   6.281  17.147  0.00  0.00    +0.000 C 
ATOM     18  O   UNL     1       6.183   6.195  17.070  0.00  0.00    +0.000 OA
ATOM     19  N   UNL     1       4.112   5.206  16.977  0.00  0.00    +0.000 N 
ATOM     20  H   UNL     1       3.109   5.353  17.044  0.00  0.00    +0.000 HD
BRANCH  19  21
ATOM     21  C   UNL     1       4.639   3.898  16.663  0.00  0.00    +0.000 C 
BRANCH  21  22
ATOM     22  C   UNL     1       4.251   2.839  17.686  0.00  0.00    +0.000 C 
BRANCH  22  23
ATOM     23  C   UNL     1       4.317   3.371  19.119  0.00  0.00    +0.000 C 
BRANCH  23  24
ATOM     24  N   UNL     1       3.033   3.291  19.795  0.00  0.00    +0.000 N 
ATOM     25  C   UNL     1       2.889   2.763  21.127  0.00  0.00    +0.000 C 
ATOM     26  C   UNL     1       1.388   2.693  21.324  0.00  0.00    +0.000 C 
ATOM     27  C   UNL     1       0.852   3.822  20.452  0.00  0.00    +0.000 C 
ATOM     28  C   UNL     1       1.880   3.924  19.351  0.00  0.00    +0.000 C 
ATOM     29  O   UNL     1       1.730   4.517  18.296  0.00  0.00    +0.000 OA
ENDBRANCH  23  24
ENDBRANCH  22  23
ENDBRANCH  21  22
ENDBRANCH  19  21
ENDBRANCH  16  17
ENDBRANCH   1  16
TORSDOF 9
ENDMDL
MODEL 4
REMARK VINA RESULT:      -7.0      2.344      5.033
REMARK  Name = 
REMARK  9 active torsions:
REMARK  status: ('A' for Active; 'I' for Inactive)
REMARK    1  A    between atoms: C_2  and  C_3
REMARK    2  A    between atoms: C_6  and  C_7
REMARK    3  A    between atoms: C_10  and  O_11
REMARK    4  A    between atoms: O_11  and  C_12
REMARK    5  A    between atoms: C_12  and  C_13
REMARK    6  A    between atoms: N_15  and  C_16
REMARK    7  A    between atoms: C_16  and  C_17
REMARK    8  A    between atoms: C_17  and  C_18
REMARK    9  A    between atoms: C_18  and  N_19
REMARK                            x       y       z     vdW  Elec       q    Type
REMARK                         _______ _______ _______ _____ _____    ______ ____
ROOT
ATOM      1  O   UNL     1       3.610   2.548  19.926  0.00  0.00    +0.000 OA
ENDROOT
BRANCH   1   5
ATOM      2  C   UNL     1       2.230   6.513  20.083  0.00  0.00    +0.000 A 
ATOM      3  C   UNL     1       1.453   5.411  20.480  0.00  0.00    +0.000 A 
ATOM      4  C   UNL     1       1.953   4.108  20.418  0.00  0.00    +0.000 A 
ATOM      5  C   UNL     1       3.233   3.864  19.929  0.00  0.00    +0.000 A 
ATOM      6  C   UNL     1       4.020   4.935  19.517  0.00  0.00    +0.000 A 
ATOM      7  C   UNL     1       3.521   6.240  19.595  0.00  0.00    +0.000 A 
BRANCH   2  11
ATOM      8  C   UNL     1       0.653  10.503  20.447  0.00  0.00    +0.000 A 
ATOM      9  C   UNL     1       1.040  10.018  19.201  0.00  0.00    +0.000 A 
ATOM     10  C   UNL     1       1.578   8.729  19.092  0.00  0.00    +0.000 A 
ATOM     11  C   UNL     1       1.740   7.904  20.218  0.00  0.00    +0.000 A 
ATOM     12  C   UNL     1       1.370   8.434  21.468  0.00  0.00    +0.000 A 
ATOM     13  C   UNL     1       0.823   9.716  21.584  0.00  0.00    +0.000 A 
BRANCH   8  15
ATOM     14  N   UNL     1      -0.411  12.858  20.637  0.00  0.00    +0.000 NA
ATOM     15  C   UNL     1       0.062  11.798  20.558  0.00  0.00    +0.000 C 
ENDBRANCH   8  15
ENDBRANCH   2  11
ENDBRANCH   1   5
BRANCH   1  16
ATOM     16  C   UNL     1       3.269   1.805  18.764  0.00  0.00    +0.000 C 
BRANCH  16  17
ATOM     17  C   UNL     1       3.379   2.613  17.473  0.00  0.00    +0.000 C 
ATOM     18  O   UNL     1       2.386   3.041  16.889  0.00  0.00    +0.000 OA
ATOM     19  N   UNL     1       4.668   2.814  17.025  0.00  0.00    +0.000 N 
ATOM     20  H   UNL     1       5.441   2.419  17.554  0.00  0.00    +0.000 HD
BRANCH  19  21
ATOM     21  C   UNL     1       4.915   3.534  15.798  0.00  0.00    +0.000 C 
BRANCH  21  22
ATOM     22  C   UNL     1       5.095   5.030  16.012  0.00  0.00    +0.000 C 
BRANCH  22  23
ATOM     23  C   UNL     1       6.562   5.452  15.920  0.00  0.00    +0.000 C 
BRANCH  23  24
ATOM     24  N   UNL     1       7.110   5.822  17.214  0.00  0.00    +0.000 N 
ATOM     25  C   UNL     1       7.516   4.847  18.194  0.00  0.00    +0.000 C 
ATOM     26  C   UNL     1       7.819   5.679  19.424  0.00  0.00    +0.000 C 
ATOM     27  C   UNL     1       8.269   7.020  18.855  0.00  0.00    +0.000 C 
ATOM     28  C   UNL     1       7.526   7.105  17.545  0.00  0.00    +0.000 C 
ATOM     29  O   UNL     1       7.384   8.116  16.877  0.00  0.00    +0.000 OA
ENDBRANCH  23  24
ENDBRANCH  22  23
ENDBRANCH  21  22
ENDBRANCH  19  21
ENDBRANCH  16  17
ENDBRANCH   1  16
TORSDOF 9
ENDMDL
MODEL 5
REMARK VINA RESULT:      -7.0      1.069      1.215
REMARK  Name = 
REMARK  9 active torsions:
REMARK  status: ('A' for Active; 'I' for Inactive)
REMARK    1  A    between atoms: C_2  and  C_3
REMARK    2  A    between atoms: C_6  and  C_7
REMARK    3  A    between atoms: C_10  and  O_11
REMARK    4  A    between atoms: O_11  and  C_12
REMARK    5  A    between atoms: C_12  and  C_13
REMARK    6  A    between atoms: N_15  and  C_16
REMARK    7  A    between atoms: C_16  and  C_17
REMARK    8  A    between atoms: C_17  and  C_18
REMARK    9  A    between atoms: C_18  and  N_19
REMARK                            x       y       z     vdW  Elec       q    Type
REMARK                         _______ _______ _______ _____ _____    ______ ____
ROOT
ATOM      1  O   UNL     1       3.240   7.400  17.315  0.00  0.00    +0.000 OA
ENDROOT
BRANCH   1   5
ATOM      2  C   UNL     1       0.768   9.532  19.961  0.00  0.00    +0.000 A 
ATOM      3  C   UNL     1       1.053   9.966  18.654  0.00  0.00    +0.000 A 
ATOM      4  C   UNL     1       1.875   9.222  17.804  0.00  0.00    +0.000 A 
ATOM      5  C   UNL     1       2.463   8.040  18.243  0.00  0.00    +0.000 A 
ATOM      6  C   UNL     1       2.208   7.593  19.537  0.00  0.00    +0.000 A 
ATOM      7  C   UNL     1       1.371   8.333  20.380  0.00  0.00    +0.000 A 
BRANCH   2  11
ATOM      8  C   UNL     1      -1.821  11.776  22.569  0.00  0.00    +0.000 A 
ATOM      9  C   UNL     1      -1.099  10.694  23.066  0.00  0.00    +0.000 A 
ATOM     10  C   UNL     1      -0.279   9.951  22.207  0.00  0.00    +0.000 A 
ATOM     11  C   UNL     1      -0.165  10.270  20.843  0.00  0.00    +0.000 A 
ATOM     12  C   UNL     1      -0.932  11.347  20.363  0.00  0.00    +0.000 A 
ATOM     13  C   UNL     1      -1.745  12.101  21.216  0.00  0.00    +0.000 A 
BRANCH   8  15
ATOM     14  N   UNL     1      -3.285  13.196  24.167  0.00  0.00    +0.000 NA
ATOM     15  C   UNL     1      -2.622  12.565  23.448  0.00  0.00    +0.000 C 
ENDBRANCH   8  15
ENDBRANCH   2  11
ENDBRANCH   1   5
BRANCH   1  16
ATOM     16  C   UNL     1       4.639   7.405  17.565  0.00  0.00    +0.000 C 
BRANCH  16  17
ATOM     17  C   UNL     1       5.261   6.011  17.560  0.00  0.00    +0.000 C 
ATOM     18  O   UNL     1       6.365   5.791  18.053  0.00  0.00    +0.000 OA
ATOM     19  N   UNL     1       4.490   5.036  16.963  0.00  0.00    +0.000 N 
ATOM     20  H   UNL     1       3.591   5.293  16.565  0.00  0.00    +0.000 HD
BRANCH  19  21
ATOM     21  C   UNL     1       4.972   3.678  16.860  0.00  0.00    +0.000 C 
BRANCH  21  22
ATOM     22  C   UNL     1       3.925   2.644  17.246  0.00  0.00    +0.000 C 
BRANCH  22  23
ATOM     23  C   UNL     1       2.580   3.287  17.590  0.00  0.00    +0.000 C 
BRANCH  23  24
ATOM     24  N   UNL     1       2.262   3.175  19.004  0.00  0.00    +0.000 N 
ATOM     25  C   UNL     1       3.058   3.796  20.031  0.00  0.00    +0.000 C 
ATOM     26  C   UNL     1       2.475   3.245  21.317  0.00  0.00    +0.000 C 
ATOM     27  C   UNL     1       1.014   2.981  20.973  0.00  0.00    +0.000 C 
ATOM     28  C   UNL     1       1.058   2.686  19.493  0.00  0.00    +0.000 C 
ATOM     29  O   UNL     1       0.159   2.172  18.848  0.00  0.00    +0.000 OA
ENDBRANCH  23  24
ENDBRANCH  22  23
ENDBRANCH  21  22
ENDBRANCH  19  21
ENDBRANCH  16  17
ENDBRANCH   1  16
TORSDOF 9
ENDMDL
MODEL 6
REMARK VINA RESULT:      -7.0      2.301      4.376
REMARK  Name = 
REMARK  9 active torsions:
REMARK  status: ('A' for Active; 'I' for Inactive)
REMARK    1  A    between atoms: C_2  and  C_3
REMARK    2  A    between atoms: C_6  and  C_7
REMARK    3  A    between atoms: C_10  and  O_11
REMARK    4  A    between atoms: O_11  and  C_12
REMARK    5  A    between atoms: C_12  and  C_13
REMARK    6  A    between atoms: N_15  and  C_16
REMARK    7  A    between atoms: C_16  and  C_17
REMARK    8  A    between atoms: C_17  and  C_18
REMARK    9  A    between atoms: C_18  and  N_19
REMARK                            x       y       z     vdW  Elec       q    Type
REMARK                         _______ _______ _______ _____ _____    ______ ____
ROOT
ATOM      1  O   UNL     1       1.410   8.434  20.864  0.00  0.00    +0.000 OA
ENDROOT
BRANCH   1   5
ATOM      2  C   UNL     1      -0.941  11.518  22.481  0.00  0.00    +0.000 A 
ATOM      3  C   UNL     1      -0.747  10.281  23.121  0.00  0.00    +0.000 A 
ATOM      4  C   UNL     1       0.050   9.285  22.551  0.00  0.00    +0.000 A 
ATOM      5  C   UNL     1       0.650   9.481  21.311  0.00  0.00    +0.000 A 
ATOM      6  C   UNL     1       0.464  10.691  20.649  0.00  0.00    +0.000 A 
ATOM      7  C   UNL     1      -0.321  11.693  21.231  0.00  0.00    +0.000 A 
BRANCH   2  11
ATOM      8  C   UNL     1      -3.238  14.746  24.167  0.00  0.00    +0.000 A 
ATOM      9  C   UNL     1      -1.901  14.943  23.832  0.00  0.00    +0.000 A 
ATOM     10  C   UNL     1      -1.150  13.882  23.309  0.00  0.00    +0.000 A 
ATOM     11  C   UNL     1      -1.716  12.610  23.112  0.00  0.00    +0.000 A 
ATOM     12  C   UNL     1      -3.060  12.433  23.490  0.00  0.00    +0.000 A 
ATOM     13  C   UNL     1      -3.819  13.490  24.004  0.00  0.00    +0.000 A 
BRANCH   8  15
ATOM     14  N   UNL     1      -4.648  16.733  25.048  0.00  0.00    +0.000 NA
ATOM     15  C   UNL     1      -4.020  15.835  24.656  0.00  0.00    +0.000 C 
ENDBRANCH   8  15
ENDBRANCH   2  11
ENDBRANCH   1   5
BRANCH   1  16
ATOM     16  C   UNL     1       1.788   8.479  19.495  0.00  0.00    +0.000 C 
BRANCH  16  17
ATOM     17  C   UNL     1       2.470   7.201  19.011  0.00  0.00    +0.000 C 
ATOM     18  O   UNL     1       2.679   6.987  17.819  0.00  0.00    +0.000 OA
ATOM     19  N   UNL     1       2.823   6.320  20.013  0.00  0.00    +0.000 N 
ATOM     20  H   UNL     1       2.608   6.558  20.977  0.00  0.00    +0.000 HD
BRANCH  19  21
ATOM     21  C   UNL     1       3.446   5.056  19.693  0.00  0.00    +0.000 C 
BRANCH  21  22
ATOM     22  C   UNL     1       4.893   5.204  19.244  0.00  0.00    +0.000 C 
BRANCH  22  23
ATOM     23  C   UNL     1       5.411   3.944  18.548  0.00  0.00    +0.000 C 
BRANCH  23  24
ATOM     24  N   UNL     1       5.751   4.185  17.155  0.00  0.00    +0.000 N 
ATOM     25  C   UNL     1       4.754   4.403  16.139  0.00  0.00    +0.000 C 
ATOM     26  C   UNL     1       5.552   4.402  14.850  0.00  0.00    +0.000 C 
ATOM     27  C   UNL     1       6.923   4.918  15.269  0.00  0.00    +0.000 C 
ATOM     28  C   UNL     1       7.033   4.474  16.708  0.00  0.00    +0.000 C 
ATOM     29  O   UNL     1       8.062   4.446  17.362  0.00  0.00    +0.000 OA
ENDBRANCH  23  24
ENDBRANCH  22  23
ENDBRANCH  21  22
ENDBRANCH  19  21
ENDBRANCH  16  17
ENDBRANCH   1  16
TORSDOF 9
ENDMDL
MODEL 7
REMARK VINA RESULT:      -7.0      3.386      9.434
REMARK  Name = 
REMARK  9 active torsions:
REMARK  status: ('A' for Active; 'I' for Inactive)
REMARK    1  A    between atoms: C_2  and  C_3
REMARK    2  A    between atoms: C_6  and  C_7
REMARK    3  A    between atoms: C_10  and  O_11
REMARK    4  A    between atoms: O_11  and  C_12
REMARK    5  A    between atoms: C_12  and  C_13
REMARK    6  A    between atoms: N_15  and  C_16
REMARK    7  A    between atoms: C_16  and  C_17
REMARK    8  A    between atoms: C_17  and  C_18
REMARK    9  A    between atoms: C_18  and  N_19
REMARK                            x       y       z     vdW  Elec       q    Type
REMARK                         _______ _______ _______ _____ _____    ______ ____
ROOT
ATOM      1  O   UNL     1       0.693   8.178  21.428  0.00  0.00    +0.000 OA
ENDROOT
BRANCH   1   5
ATOM      2  C   UNL     1       3.169   6.565  18.441  0.00  0.00    +0.000 A 
ATOM      3  C   UNL     1       2.786   5.853  19.591  0.00  0.00    +0.000 A 
ATOM      4  C   UNL     1       1.954   6.425  20.557  0.00  0.00    +0.000 A 
ATOM      5  C   UNL     1       1.507   7.735  20.420  0.00  0.00    +0.000 A 
ATOM      6  C   UNL     1       1.881   8.468  19.297  0.00  0.00    +0.000 A 
ATOM      7  C   UNL     1       2.701   7.886  18.324  0.00  0.00    +0.000 A 
BRANCH   2  11
ATOM      8  C   UNL     1       5.403   4.748  15.240  0.00  0.00    +0.000 A 
ATOM      9  C   UNL     1       4.755   3.949  16.178  0.00  0.00    +0.000 A 
ATOM     10  C   UNL     1       4.052   4.545  17.234  0.00  0.00    +0.000 A 
ATOM     11  C   UNL     1       3.983   5.943  17.372  0.00  0.00    +0.000 A 
ATOM     12  C   UNL     1       4.675   6.722  16.427  0.00  0.00    +0.000 A 
ATOM     13  C   UNL     1       5.370   6.135  15.365  0.00  0.00    +0.000 A 
BRANCH   8  15
ATOM     14  N   UNL     1       6.646   3.667  13.240  0.00  0.00    +0.000 NA
ATOM     15  C   UNL     1       6.081   4.147  14.137  0.00  0.00    +0.000 C 
ENDBRANCH   8  15
ENDBRANCH   2  11
ENDBRANCH   1   5
BRANCH   1  16
ATOM     16  C   UNL     1       1.124   9.349  22.107  0.00  0.00    +0.000 C 
BRANCH  16  17
ATOM     17  C   UNL     1       0.043  10.422  22.212  0.00  0.00    +0.000 C 
ATOM     18  O   UNL     1      -0.433  10.762  23.293  0.00  0.00    +0.000 OA
ATOM     19  N   UNL     1      -0.349  10.967  21.006  0.00  0.00    +0.000 N 
ATOM     20  H   UNL     1       0.080  10.628  20.150  0.00  0.00    +0.000 HD
BRANCH  19  21
ATOM     21  C   UNL     1      -1.387  11.970  20.956  0.00  0.00    +0.000 C 
BRANCH  21  22
ATOM     22  C   UNL     1      -1.725  12.406  19.538  0.00  0.00    +0.000 C 
BRANCH  22  23
ATOM     23  C   UNL     1      -3.140  11.994  19.130  0.00  0.00    +0.000 C 
BRANCH  23  24
ATOM     24  N   UNL     1      -3.158  11.240  17.887  0.00  0.00    +0.000 N 
ATOM     25  C   UNL     1      -4.089  11.518  16.824  0.00  0.00    +0.000 C 
ATOM     26  C   UNL     1      -3.870  10.377  15.850  0.00  0.00    +0.000 C 
ATOM     27  C   UNL     1      -2.407  10.000  16.052  0.00  0.00    +0.000 C 
ATOM     28  C   UNL     1      -2.154  10.366  17.494  0.00  0.00    +0.000 C 
ATOM     29  O   UNL     1      -1.197  10.003  18.158  0.00  0.00    +0.000 OA
ENDBRANCH  23  24
ENDBRANCH  22  23
ENDBRANCH  21  22
ENDBRANCH  19  21
ENDBRANCH  16  17
ENDBRANCH   1  16
TORSDOF 9
ENDMDL
MODEL 8
REMARK VINA RESULT:      -6.9      1.489      1.988
REMARK  Name = 
REMARK  9 active torsions:
REMARK  status: ('A' for Active; 'I' for Inactive)
REMARK    1  A    between atoms: C_2  and  C_3
REMARK    2  A    between atoms: C_6  and  C_7
REMARK    3  A    between atoms: C_10  and  O_11
REMARK    4  A    between atoms: O_11  and  C_12
REMARK    5  A    between atoms: C_12  and  C_13
REMARK    6  A    between atoms: N_15  and  C_16
REMARK    7  A    between atoms: C_16  and  C_17
REMARK    8  A    between atoms: C_17  and  C_18
REMARK    9  A    between atoms: C_18  and  N_19
REMARK                            x       y       z     vdW  Elec       q    Type
REMARK                         _______ _______ _______ _____ _____    ______ ____
ROOT
ATOM      1  O   UNL     1       2.418   7.291  18.317  0.00  0.00    +0.000 OA
ENDROOT
BRANCH   1   5
ATOM      2  C   UNL     1       0.528  10.309  20.547  0.00  0.00    +0.000 A 
ATOM      3  C   UNL     1       0.981   9.103  21.111  0.00  0.00    +0.000 A 
ATOM      4  C   UNL     1       1.611   8.129  20.334  0.00  0.00    +0.000 A 
ATOM      5  C   UNL     1       1.780   8.315  18.965  0.00  0.00    +0.000 A 
ATOM      6  C   UNL     1       1.330   9.493  18.378  0.00  0.00    +0.000 A 
ATOM      7  C   UNL     1       0.713  10.474  19.163  0.00  0.00    +0.000 A 
BRANCH   2  11
ATOM      8  C   UNL     1      -1.094  13.401  23.067  0.00  0.00    +0.000 A 
ATOM      9  C   UNL     1      -1.528  12.086  23.210  0.00  0.00    +0.000 A 
ATOM     10  C   UNL     1      -1.017  11.088  22.370  0.00  0.00    +0.000 A 
ATOM     11  C   UNL     1      -0.069  11.382  21.374  0.00  0.00    +0.000 A 
ATOM     12  C   UNL     1       0.326  12.725  21.232  0.00  0.00    +0.000 A 
ATOM     13  C   UNL     1      -0.172  13.725  22.074  0.00  0.00    +0.000 A 
BRANCH   8  15
ATOM     14  N   UNL     1      -1.980  15.243  24.660  0.00  0.00    +0.000 NA
ATOM     15  C   UNL     1      -1.576  14.413  23.950  0.00  0.00    +0.000 C 
ENDBRANCH   8  15
ENDBRANCH   2  11
ENDBRANCH   1   5
BRANCH   1  16
ATOM     16  C   UNL     1       3.565   7.652  17.560  0.00  0.00    +0.000 C 
BRANCH  16  17
ATOM     17  C   UNL     1       4.312   6.453  16.980  0.00  0.00    +0.000 C 
ATOM     18  O   UNL     1       5.159   6.580  16.099  0.00  0.00    +0.000 OA
ATOM     19  N   UNL     1       3.956   5.235  17.520  0.00  0.00    +0.000 N 
ATOM     20  H   UNL     1       3.238   5.204  18.238  0.00  0.00    +0.000 HD
BRANCH  19  21
ATOM     21  C   UNL     1       4.561   4.014  17.039  0.00  0.00    +0.000 C 
BRANCH  21  22
ATOM     22  C   UNL     1       4.640   2.930  18.104  0.00  0.00    +0.000 C 
BRANCH  22  23
ATOM     23  C   UNL     1       3.351   2.110  18.188  0.00  0.00    +0.000 C 
BRANCH  23  24
ATOM     24  N   UNL     1       2.425   2.640  19.175  0.00  0.00    +0.000 N 
ATOM     25  C   UNL     1       2.626   2.481  20.593  0.00  0.00    +0.000 C 
ATOM     26  C   UNL     1       1.337   3.001  21.197  0.00  0.00    +0.000 C 
ATOM     27  C   UNL     1       0.858   4.045  20.195  0.00  0.00    +0.000 C 
ATOM     28  C   UNL     1       1.411   3.543  18.884  0.00  0.00    +0.000 C 
ATOM     29  O   UNL     1       1.064   3.923  17.778  0.00  0.00    +0.000 OA
ENDBRANCH  23  24
ENDBRANCH  22  23
ENDBRANCH  21  22
ENDBRANCH  19  21
ENDBRANCH  16  17
ENDBRANCH   1  16
TORSDOF 9
ENDMDL
MODEL 9
REMARK VINA RESULT:      -6.9      2.110      3.926
REMARK  Name = 
REMARK  9 active torsions:
REMARK  status: ('A' for Active; 'I' for Inactive)
REMARK    1  A    between atoms: C_2  and  C_3
REMARK    2  A    between atoms: C_6  and  C_7
REMARK    3  A    between atoms: C_10  and  O_11
REMARK    4  A    between atoms: O_11  and  C_12
REMARK    5  A    between atoms: C_12  and  C_13
REMARK    6  A    between atoms: N_15  and  C_16
REMARK    7  A    between atoms: C_16  and  C_17
REMARK    8  A    between atoms: C_17  and  C_18
REMARK    9  A    between atoms: C_18  and  N_19
REMARK                            x       y       z     vdW  Elec       q    Type
REMARK                         _______ _______ _______ _____ _____    ______ ____
ROOT
ATOM      1  O   UNL     1       2.663   6.441  17.960  0.00  0.00    +0.000 OA
ENDROOT
BRANCH   1   5
ATOM      2  C   UNL     1       1.027   9.438  20.406  0.00  0.00    +0.000 A 
ATOM      3  C   UNL     1       1.339   9.636  19.050  0.00  0.00    +0.000 A 
ATOM      4  C   UNL     1       1.875   8.609  18.270  0.00  0.00    +0.000 A 
ATOM      5  C   UNL     1       2.146   7.364  18.828  0.00  0.00    +0.000 A 
ATOM      6  C   UNL     1       1.859   7.144  20.172  0.00  0.00    +0.000 A 
ATOM      7  C   UNL     1       1.306   8.170  20.946  0.00  0.00    +0.000 A 
BRANCH   2  11
ATOM      8  C   UNL     1      -0.968  12.510  22.671  0.00  0.00    +0.000 A 
ATOM      9  C   UNL     1      -0.113  12.857  21.629  0.00  0.00    +0.000 A 
ATOM     10  C   UNL     1       0.554  11.855  20.912  0.00  0.00    +0.000 A 
ATOM     11  C   UNL     1       0.384  10.494  21.222  0.00  0.00    +0.000 A 
ATOM     12  C   UNL     1      -0.461  10.176  22.301  0.00  0.00    +0.000 A 
ATOM     13  C   UNL     1      -1.138  11.170  23.015  0.00  0.00    +0.000 A 
BRANCH   8  15
ATOM     14  N   UNL     1      -2.274  14.357  23.934  0.00  0.00    +0.000 NA
ATOM     15  C   UNL     1      -1.686  13.523  23.374  0.00  0.00    +0.000 C 
ENDBRANCH   8  15
ENDBRANCH   2  11
ENDBRANCH   1   5
BRANCH   1  16
ATOM     16  C   UNL     1       2.524   5.079  18.342  0.00  0.00    +0.000 C 
BRANCH  16  17
ATOM     17  C   UNL     1       3.086   4.099  17.314  0.00  0.00    +0.000 C 
ATOM     18  O   UNL     1       2.451   3.118  16.938  0.00  0.00    +0.000 OA
ATOM     19  N   UNL     1       4.351   4.407  16.855  0.00  0.00    +0.000 N 
ATOM     20  H   UNL     1       4.821   5.229  17.220  0.00  0.00    +0.000 HD
BRANCH  19  21
ATOM     21  C   UNL     1       5.015   3.546  15.904  0.00  0.00    +0.000 C 
BRANCH  21  22
ATOM     22  C   UNL     1       6.433   3.996  15.584  0.00  0.00    +0.000 C 
BRANCH  22  23
ATOM     23  C   UNL     1       6.620   5.501  15.792  0.00  0.00    +0.000 C 
BRANCH  23  24
ATOM     24  N   UNL     1       7.164   5.812  17.104  0.00  0.00    +0.000 N 
ATOM     25  C   UNL     1       7.700   4.804  17.982  0.00  0.00    +0.000 C 
ATOM     26  C   UNL     1       7.948   5.552  19.276  0.00  0.00    +0.000 C 
ATOM     27  C   UNL     1       8.236   6.979  18.824  0.00  0.00    +0.000 C 
ATOM     28  C   UNL     1       7.449   7.098  17.541  0.00  0.00    +0.000 C 
ATOM     29  O   UNL     1       7.181   8.143  16.971  0.00  0.00    +0.000 OA
ENDBRANCH  23  24
ENDBRANCH  22  23
ENDBRANCH  21  22
ENDBRANCH  19  21
ENDBRANCH  16  17
ENDBRANCH   1  16
TORSDOF 9
ENDMDL
