MODEL 1
REMARK VINA RESULT:      -8.8      0.000      0.000
REMARK  Name = 
REMARK  6 active torsions:
REMARK  status: ('A' for Active; 'I' for Inactive)
REMARK    1  A    between atoms: C_1  and  N_2
REMARK    2  A    between atoms: N_5  and  C_6
REMARK    3  A    between atoms: C_9  and  N_10
REMARK    4  A    between atoms: C_11  and  C_13
REMARK    5  A    between atoms: C_16  and  C_17
REMARK    6  A    between atoms: C_20  and  C_21
REMARK                            x       y       z     vdW  Elec       q    Type
REMARK                         _______ _______ _______ _____ _____    ______ ____
ROOT
ATOM      1  C   UNL     1       1.403   8.806  20.187  0.00  0.00    +0.000 A 
ATOM      2  C   UNL     1       1.899   9.256  18.964  0.00  0.00    +0.000 A 
ATOM      3  C   UNL     1       2.515   8.392  18.056  0.00  0.00    +0.000 A 
ATOM      4  C   UNL     1       2.691   7.035  18.356  0.00  0.00    +0.000 A 
ATOM      5  C   UNL     1       2.225   6.518  19.585  0.00  0.00    +0.000 A 
ATOM      6  C   UNL     1       1.579   7.440  20.457  0.00  0.00    +0.000 A 
ENDROOT
BRANCH   1  11
ATOM      7  C   UNL     1      -2.123  11.737  23.349  0.00  0.00    +0.000 C 
ATOM      8  N   UNL     1      -0.821  11.288  22.863  0.00  0.00    +0.000 NA
ATOM      9  C   UNL     1      -0.653  11.619  21.429  0.00  0.00    +0.000 C 
ATOM     10  C   UNL     1       0.695  11.121  20.848  0.00  0.00    +0.000 C 
ATOM     11  N   UNL     1       0.838   9.676  21.096  0.00  0.00    +0.000 N 
ATOM     12  C   UNL     1       0.685   9.311  22.517  0.00  0.00    +0.000 C 
ATOM     13  C   UNL     1      -0.675   9.825  23.037  0.00  0.00    +0.000 C 
ENDBRANCH   1  11
BRANCH   5  14
ATOM     14  C   UNL     1       2.306   5.089  20.024  0.00  0.00    +0.000 A 
ATOM     15  C   UNL     1       1.135   4.394  20.410  0.00  0.00    +0.000 A 
ATOM     16  C   UNL     1       1.179   3.115  20.979  0.00  0.00    +0.000 A 
ATOM     17  C   UNL     1       2.396   2.461  21.125  0.00  0.00    +0.000 A 
ATOM     18  C   UNL     1       3.559   3.083  20.688  0.00  0.00    +0.000 A 
ATOM     19  C   UNL     1       3.509   4.379  20.167  0.00  0.00    +0.000 A 
ATOM     20  F   UNL     1       4.683   4.937  19.835  0.00  0.00    +0.000 F 
ENDBRANCH   5  14
BRANCH   4  21
ATOM     21  N   UNL     1       3.420   6.249  17.441  0.00  0.00    +0.000 N 
ATOM     22  C   UNL     1       4.752   6.422  17.128  0.00  0.00    +0.000 C 
ATOM     23  O   UNL     1       5.452   7.336  17.555  0.00  0.00    +0.000 OA
ATOM     24  H   UNL     1       2.898   5.617  16.846  0.00  0.00    +0.000 HD
BRANCH  22  25
ATOM     25  C   UNL     1       5.254   5.444  16.177  0.00  0.00    +0.000 A 
ATOM     26  C   UNL     1       5.045   4.079  16.088  0.00  0.00    +0.000 A 
ATOM     27  C   UNL     1       5.749   3.622  14.945  0.00  0.00    +0.000 A 
ATOM     28  C   UNL     1       6.355   4.741  14.405  0.00  0.00    +0.000 A 
ATOM     29  O   UNL     1       6.073   5.844  15.149  0.00  0.00    +0.000 OA
BRANCH  28  30
ATOM     30  C   UNL     1       7.178   4.902  13.257  0.00  0.00    +0.000 C 
ATOM     31  N   UNL     1       7.836   5.027  12.311  0.00  0.00    +0.000 NA
ENDBRANCH  28  30
ENDBRANCH  22  25
ENDBRANCH   4  21
TORSDOF 5
ENDMDL
MODEL 2
REMARK VINA RESULT:      -8.7      1.042      1.159
REMARK  Name = 
REMARK  6 active torsions:
REMARK  status: ('A' for Active; 'I' for Inactive)
REMARK    1  A    between atoms: C_1  and  N_2
REMARK    2  A    between atoms: N_5  and  C_6
REMARK    3  A    between atoms: C_9  and  N_10
REMARK    4  A    between atoms: C_11  and  C_13
REMARK    5  A    between atoms: C_16  and  C_17
REMARK    6  A    between atoms: C_20  and  C_21
REMARK                            x       y       z     vdW  Elec       q    Type
REMARK                         _______ _______ _______ _____ _____    ______ ____
ROOT
ATOM      1  C   UNL     1       1.415   8.913  20.124  0.00  0.00    +0.000 A 
ATOM      2  C   UNL     1       2.082   9.432  19.014  0.00  0.00    +0.000 A 
ATOM      3  C   UNL     1       2.722   8.607  18.088  0.00  0.00    +0.000 A 
ATOM      4  C   UNL     1       2.750   7.217  18.256  0.00  0.00    +0.000 A 
ATOM      5  C   UNL     1       2.106   6.628  19.367  0.00  0.00    +0.000 A 
ATOM      6  C   UNL     1       1.445   7.516  20.262  0.00  0.00    +0.000 A 
ENDROOT
BRANCH   1  11
ATOM      7  C   UNL     1      -2.195  11.643  23.369  0.00  0.00    +0.000 C 
ATOM      8  N   UNL     1      -0.881  11.249  22.870  0.00  0.00    +0.000 NA
ATOM      9  C   UNL     1      -0.726  11.625  21.446  0.00  0.00    +0.000 C 
ATOM     10  C   UNL     1       0.636  11.186  20.850  0.00  0.00    +0.000 C 
ATOM     11  N   UNL     1       0.824   9.739  21.057  0.00  0.00    +0.000 N 
ATOM     12  C   UNL     1       0.685   9.330  22.467  0.00  0.00    +0.000 C 
ATOM     13  C   UNL     1      -0.689   9.786  23.003  0.00  0.00    +0.000 C 
ENDBRANCH   1  11
BRANCH   5  14
ATOM     14  C   UNL     1       2.019   5.162  19.655  0.00  0.00    +0.000 A 
ATOM     15  C   UNL     1       2.478   4.650  20.893  0.00  0.00    +0.000 A 
ATOM     16  C   UNL     1       2.567   3.275  21.146  0.00  0.00    +0.000 A 
ATOM     17  C   UNL     1       2.141   2.364  20.188  0.00  0.00    +0.000 A 
ATOM     18  C   UNL     1       1.617   2.831  18.990  0.00  0.00    +0.000 A 
ATOM     19  C   UNL     1       1.578   4.203  18.728  0.00  0.00    +0.000 A 
ATOM     20  F   UNL     1       1.123   4.571  17.521  0.00  0.00    +0.000 F 
ENDBRANCH   5  14
BRANCH   4  21
ATOM     21  N   UNL     1       3.510   6.460  17.343  0.00  0.00    +0.000 N 
ATOM     22  C   UNL     1       4.786   5.987  17.568  0.00  0.00    +0.000 C 
ATOM     23  O   UNL     1       5.450   6.234  18.571  0.00  0.00    +0.000 OA
ATOM     24  H   UNL     1       3.169   6.393  16.391  0.00  0.00    +0.000 HD
BRANCH  22  25
ATOM     25  C   UNL     1       5.317   5.205  16.463  0.00  0.00    +0.000 A 
ATOM     26  C   UNL     1       5.072   3.898  16.081  0.00  0.00    +0.000 A 
ATOM     27  C   UNL     1       5.832   3.656  14.910  0.00  0.00    +0.000 A 
ATOM     28  C   UNL     1       6.505   4.835  14.649  0.00  0.00    +0.000 A 
ATOM     29  O   UNL     1       6.210   5.772  15.588  0.00  0.00    +0.000 OA
BRANCH  28  30
ATOM     30  C   UNL     1       7.403   5.192  13.606  0.00  0.00    +0.000 C 
ATOM     31  N   UNL     1       8.123   5.489  12.746  0.00  0.00    +0.000 NA
ENDBRANCH  28  30
ENDBRANCH  22  25
ENDBRANCH   4  21
TORSDOF 5
ENDMDL
MODEL 3
REMARK VINA RESULT:      -8.2      2.142      8.468
REMARK  Name = 
REMARK  6 active torsions:
REMARK  status: ('A' for Active; 'I' for Inactive)
REMARK    1  A    between atoms: C_1  and  N_2
REMARK    2  A    between atoms: N_5  and  C_6
REMARK    3  A    between atoms: C_9  and  N_10
REMARK    4  A    between atoms: C_11  and  C_13
REMARK    5  A    between atoms: C_16  and  C_17
REMARK    6  A    between atoms: C_20  and  C_21
REMARK                            x       y       z     vdW  Elec       q    Type
REMARK                         _______ _______ _______ _____ _____    ______ ____
ROOT
ATOM      1  C   UNL     1       4.893   5.562  16.274  0.00  0.00    +0.000 A 
ATOM      2  C   UNL     1       4.851   6.956  16.273  0.00  0.00    +0.000 A 
ATOM      3  C   UNL     1       4.063   7.670  17.178  0.00  0.00    +0.000 A 
ATOM      4  C   UNL     1       3.250   7.008  18.107  0.00  0.00    +0.000 A 
ATOM      5  C   UNL     1       3.234   5.596  18.151  0.00  0.00    +0.000 A 
ATOM      6  C   UNL     1       4.080   4.923  17.225  0.00  0.00    +0.000 A 
ENDROOT
BRANCH   1  11
ATOM      7  C   UNL     1       7.404   3.785  11.632  0.00  0.00    +0.000 C 
ATOM      8  N   UNL     1       7.065   3.783  13.052  0.00  0.00    +0.000 NA
ATOM      9  C   UNL     1       5.613   3.564  13.245  0.00  0.00    +0.000 C 
ATOM     10  C   UNL     1       5.190   3.602  14.736  0.00  0.00    +0.000 C 
ATOM     11  N   UNL     1       5.640   4.865  15.347  0.00  0.00    +0.000 N 
ATOM     12  C   UNL     1       7.084   5.111  15.182  0.00  0.00    +0.000 C 
ATOM     13  C   UNL     1       7.444   5.070  13.680  0.00  0.00    +0.000 C 
ENDBRANCH   1  11
BRANCH   5  14
ATOM     14  C   UNL     1       2.450   4.757  19.110  0.00  0.00    +0.000 A 
ATOM     15  C   UNL     1       2.826   4.693  20.474  0.00  0.00    +0.000 A 
ATOM     16  C   UNL     1       2.227   3.801  21.372  0.00  0.00    +0.000 A 
ATOM     17  C   UNL     1       1.186   2.984  20.951  0.00  0.00    +0.000 A 
ATOM     18  C   UNL     1       0.741   3.072  19.638  0.00  0.00    +0.000 A 
ATOM     19  C   UNL     1       1.378   3.930  18.737  0.00  0.00    +0.000 A 
ATOM     20  F   UNL     1       0.936   3.906  17.470  0.00  0.00    +0.000 F 
ENDBRANCH   5  14
BRANCH   4  21
ATOM     21  N   UNL     1       2.399   7.792  18.911  0.00  0.00    +0.000 N 
ATOM     22  C   UNL     1       1.708   8.909  18.487  0.00  0.00    +0.000 C 
ATOM     23  O   UNL     1       1.811   9.404  17.368  0.00  0.00    +0.000 OA
ATOM     24  H   UNL     1       2.417   7.629  19.911  0.00  0.00    +0.000 HD
BRANCH  22  25
ATOM     25  C   UNL     1       0.877   9.502  19.521  0.00  0.00    +0.000 A 
ATOM     26  C   UNL     1      -0.203  10.362  19.431  0.00  0.00    +0.000 A 
ATOM     27  C   UNL     1      -0.661  10.598  20.752  0.00  0.00    +0.000 A 
ATOM     28  C   UNL     1       0.177   9.869  21.575  0.00  0.00    +0.000 A 
ATOM     29  O   UNL     1       1.117   9.214  20.843  0.00  0.00    +0.000 OA
BRANCH  28  30
ATOM     30  C   UNL     1       0.200   9.710  22.988  0.00  0.00    +0.000 C 
ATOM     31  N   UNL     1       0.229   9.569  24.139  0.00  0.00    +0.000 NA
ENDBRANCH  28  30
ENDBRANCH  22  25
ENDBRANCH   4  21
TORSDOF 5
ENDMDL
MODEL 4
REMARK VINA RESULT:      -8.1      1.484      1.813
REMARK  Name = 
REMARK  6 active torsions:
REMARK  status: ('A' for Active; 'I' for Inactive)
REMARK    1  A    between atoms: C_1  and  N_2
REMARK    2  A    between atoms: N_5  and  C_6
REMARK    3  A    between atoms: C_9  and  N_10
REMARK    4  A    between atoms: C_11  and  C_13
REMARK    5  A    between atoms: C_16  and  C_17
REMARK    6  A    between atoms: C_20  and  C_21
REMARK                            x       y       z     vdW  Elec       q    Type
REMARK                         _______ _______ _______ _____ _____    ______ ____
ROOT
ATOM      1  C   UNL     1       0.946   8.815  19.757  0.00  0.00    +0.000 A 
ATOM      2  C   UNL     1       1.784   9.370  18.791  0.00  0.00    +0.000 A 
ATOM      3  C   UNL     1       2.667   8.587  18.045  0.00  0.00    +0.000 A 
ATOM      4  C   UNL     1       2.772   7.207  18.263  0.00  0.00    +0.000 A 
ATOM      5  C   UNL     1       1.962   6.584  19.239  0.00  0.00    +0.000 A 
ATOM      6  C   UNL     1       1.060   7.428  19.947  0.00  0.00    +0.000 A 
ENDROOT
BRANCH   1  11
ATOM      7  C   UNL     1      -1.195  12.737  23.082  0.00  0.00    +0.000 C 
ATOM      8  N   UNL     1      -1.219  11.568  22.207  0.00  0.00    +0.000 NA
ATOM      9  C   UNL     1      -0.405  10.469  22.777  0.00  0.00    +0.000 C 
ATOM     10  C   UNL     1      -0.355   9.217  21.864  0.00  0.00    +0.000 C 
ATOM     11  N   UNL     1       0.109   9.602  20.520  0.00  0.00    +0.000 N 
ATOM     12  C   UNL     1      -0.685  10.689  19.918  0.00  0.00    +0.000 C 
ATOM     13  C   UNL     1      -0.691  11.908  20.865  0.00  0.00    +0.000 C 
ENDBRANCH   1  11
BRANCH   5  14
ATOM     14  C   UNL     1       1.936   5.122  19.554  0.00  0.00    +0.000 A 
ATOM     15  C   UNL     1       2.345   4.660  20.828  0.00  0.00    +0.000 A 
ATOM     16  C   UNL     1       2.492   3.297  21.117  0.00  0.00    +0.000 A 
ATOM     17  C   UNL     1       2.176   2.345  20.156  0.00  0.00    +0.000 A 
ATOM     18  C   UNL     1       1.701   2.760  18.918  0.00  0.00    +0.000 A 
ATOM     19  C   UNL     1       1.605   4.123  18.624  0.00  0.00    +0.000 A 
ATOM     20  F   UNL     1       1.207   4.442  17.383  0.00  0.00    +0.000 F 
ENDBRANCH   5  14
BRANCH   4  21
ATOM     21  N   UNL     1       3.764   6.503  17.553  0.00  0.00    +0.000 N 
ATOM     22  C   UNL     1       4.886   5.925  18.111  0.00  0.00    +0.000 C 
ATOM     23  O   UNL     1       5.198   6.019  19.295  0.00  0.00    +0.000 OA
ATOM     24  H   UNL     1       3.746   6.561  16.541  0.00  0.00    +0.000 HD
BRANCH  22  25
ATOM     25  C   UNL     1       5.721   5.232  17.144  0.00  0.00    +0.000 A 
ATOM     26  C   UNL     1       7.000   4.717  17.259  0.00  0.00    +0.000 A 
ATOM     27  C   UNL     1       7.320   4.114  16.017  0.00  0.00    +0.000 A 
ATOM     28  C   UNL     1       6.214   4.304  15.210  0.00  0.00    +0.000 A 
ATOM     29  O   UNL     1       5.248   4.989  15.878  0.00  0.00    +0.000 OA
BRANCH  28  30
ATOM     30  C   UNL     1       5.950   3.911  13.869  0.00  0.00    +0.000 C 
ATOM     31  N   UNL     1       5.729   3.577  12.781  0.00  0.00    +0.000 NA
ENDBRANCH  28  30
ENDBRANCH  22  25
ENDBRANCH   4  21
TORSDOF 5
ENDMDL
MODEL 5
REMARK VINA RESULT:      -8.0      2.152      8.471
REMARK  Name = 
REMARK  6 active torsions:
REMARK  status: ('A' for Active; 'I' for Inactive)
REMARK    1  A    between atoms: C_1  and  N_2
REMARK    2  A    between atoms: N_5  and  C_6
REMARK    3  A    between atoms: C_9  and  N_10
REMARK    4  A    between atoms: C_11  and  C_13
REMARK    5  A    between atoms: C_16  and  C_17
REMARK    6  A    between atoms: C_20  and  C_21
REMARK                            x       y       z     vdW  Elec       q    Type
REMARK                         _______ _______ _______ _____ _____    ______ ____
ROOT
ATOM      1  C   UNL     1       4.792   5.533  16.528  0.00  0.00    +0.000 A 
ATOM      2  C   UNL     1       4.775   6.925  16.607  0.00  0.00    +0.000 A 
ATOM      3  C   UNL     1       4.020   7.599  17.569  0.00  0.00    +0.000 A 
ATOM      4  C   UNL     1       3.215   6.899  18.477  0.00  0.00    +0.000 A 
ATOM      5  C   UNL     1       3.174   5.487  18.440  0.00  0.00    +0.000 A 
ATOM      6  C   UNL     1       3.988   4.855  17.458  0.00  0.00    +0.000 A 
ENDROOT
BRANCH   1  11
ATOM      7  C   UNL     1       7.229   4.023  11.753  0.00  0.00    +0.000 C 
ATOM      8  N   UNL     1       6.884   3.920  13.168  0.00  0.00    +0.000 NA
ATOM      9  C   UNL     1       5.421   3.762  13.341  0.00  0.00    +0.000 C 
ATOM     10  C   UNL     1       4.993   3.697  14.830  0.00  0.00    +0.000 C 
ATOM     11  N   UNL     1       5.505   4.878  15.545  0.00  0.00    +0.000 N 
ATOM     12  C   UNL     1       6.961   5.061  15.402  0.00  0.00    +0.000 C 
ATOM     13  C   UNL     1       7.326   5.128  13.903  0.00  0.00    +0.000 C 
ENDBRANCH   1  11
BRANCH   5  14
ATOM     14  C   UNL     1       2.396   4.608  19.367  0.00  0.00    +0.000 A 
ATOM     15  C   UNL     1       2.764   4.506  20.730  0.00  0.00    +0.000 A 
ATOM     16  C   UNL     1       2.172   3.578  21.597  0.00  0.00    +0.000 A 
ATOM     17  C   UNL     1       1.145   2.760  21.142  0.00  0.00    +0.000 A 
ATOM     18  C   UNL     1       0.708   2.884  19.830  0.00  0.00    +0.000 A 
ATOM     19  C   UNL     1       1.338   3.778  18.960  0.00  0.00    +0.000 A 
ATOM     20  F   UNL     1       0.905   3.787  17.691  0.00  0.00    +0.000 F 
ENDBRANCH   5  14
BRANCH   4  21
ATOM     21  N   UNL     1       2.395   7.650  19.343  0.00  0.00    +0.000 N 
ATOM     22  C   UNL     1       1.577   8.692  18.961  0.00  0.00    +0.000 C 
ATOM     23  O   UNL     1       1.519   9.147  17.821  0.00  0.00    +0.000 OA
ATOM     24  H   UNL     1       2.534   7.531  20.339  0.00  0.00    +0.000 HD
BRANCH  22  25
ATOM     25  C   UNL     1       0.817   9.264  20.060  0.00  0.00    +0.000 A 
ATOM     26  C   UNL     1       0.725   8.887  21.388  0.00  0.00    +0.000 A 
ATOM     27  C   UNL     1      -0.134   9.815  22.028  0.00  0.00    +0.000 A 
ATOM     28  C   UNL     1      -0.523  10.705  21.044  0.00  0.00    +0.000 A 
ATOM     29  O   UNL     1       0.035  10.373  19.850  0.00  0.00    +0.000 OA
BRANCH  28  30
ATOM     30  C   UNL     1      -1.368  11.848  21.093  0.00  0.00    +0.000 C 
ATOM     31  N   UNL     1      -2.066  12.773  21.144  0.00  0.00    +0.000 NA
ENDBRANCH  28  30
ENDBRANCH  22  25
ENDBRANCH   4  21
TORSDOF 5
ENDMDL
MODEL 6
REMARK VINA RESULT:      -8.0      1.468      1.617
REMARK  Name = 
REMARK  6 active torsions:
REMARK  status: ('A' for Active; 'I' for Inactive)
REMARK    1  A    between atoms: C_1  and  N_2
REMARK    2  A    between atoms: N_5  and  C_6
REMARK    3  A    between atoms: C_9  and  N_10
REMARK    4  A    between atoms: C_11  and  C_13
REMARK    5  A    between atoms: C_16  and  C_17
REMARK    6  A    between atoms: C_20  and  C_21
REMARK                            x       y       z     vdW  Elec       q    Type
REMARK                         _______ _______ _______ _____ _____    ______ ____
ROOT
ATOM      1  C   UNL     1       1.727   8.684  19.791  0.00  0.00    +0.000 A 
ATOM      2  C   UNL     1       2.402   9.214  18.692  0.00  0.00    +0.000 A 
ATOM      3  C   UNL     1       3.033   8.397  17.752  0.00  0.00    +0.000 A 
ATOM      4  C   UNL     1       3.043   7.004  17.895  0.00  0.00    +0.000 A 
ATOM      5  C   UNL     1       2.390   6.403  18.995  0.00  0.00    +0.000 A 
ATOM      6  C   UNL     1       1.739   7.284  19.904  0.00  0.00    +0.000 A 
ENDROOT
BRANCH   1  11
ATOM      7  C   UNL     1      -1.835  11.284  23.191  0.00  0.00    +0.000 C 
ATOM      8  N   UNL     1      -0.533  10.957  22.618  0.00  0.00    +0.000 NA
ATOM      9  C   UNL     1      -0.495  11.297  21.176  0.00  0.00    +0.000 C 
ATOM     10  C   UNL     1       0.851  10.925  20.504  0.00  0.00    +0.000 C 
ATOM     11  N   UNL     1       1.145   9.500  20.739  0.00  0.00    +0.000 N 
ATOM     12  C   UNL     1       1.124   9.128  22.165  0.00  0.00    +0.000 C 
ATOM     13  C   UNL     1      -0.240   9.514  22.778  0.00  0.00    +0.000 C 
ENDBRANCH   1  11
BRANCH   5  14
ATOM     14  C   UNL     1       2.284   4.933  19.256  0.00  0.00    +0.000 A 
ATOM     15  C   UNL     1       2.919   4.363  20.386  0.00  0.00    +0.000 A 
ATOM     16  C   UNL     1       2.985   2.978  20.586  0.00  0.00    +0.000 A 
ATOM     17  C   UNL     1       2.363   2.117  19.691  0.00  0.00    +0.000 A 
ATOM     18  C   UNL     1       1.668   2.645  18.610  0.00  0.00    +0.000 A 
ATOM     19  C   UNL     1       1.650   4.025  18.393  0.00  0.00    +0.000 A 
ATOM     20  F   UNL     1       1.018   4.451  17.289  0.00  0.00    +0.000 F 
ENDBRANCH   5  14
BRANCH   4  21
ATOM     21  N   UNL     1       3.795   6.253  16.969  0.00  0.00    +0.000 N 
ATOM     22  C   UNL     1       5.167   6.302  16.831  0.00  0.00    +0.000 C 
ATOM     23  O   UNL     1       5.899   7.068  17.452  0.00  0.00    +0.000 OA
ATOM     24  H   UNL     1       3.289   5.764  16.241  0.00  0.00    +0.000 HD
BRANCH  22  25
ATOM     25  C   UNL     1       5.679   5.393  15.819  0.00  0.00    +0.000 A 
ATOM     26  C   UNL     1       6.879   4.710  15.741  0.00  0.00    +0.000 A 
ATOM     27  C   UNL     1       6.843   3.937  14.553  0.00  0.00    +0.000 A 
ATOM     28  C   UNL     1       5.619   4.202  13.969  0.00  0.00    +0.000 A 
ATOM     29  O   UNL     1       4.913   5.090  14.719  0.00  0.00    +0.000 OA
BRANCH  28  30
ATOM     30  C   UNL     1       5.022   3.712  12.775  0.00  0.00    +0.000 C 
ATOM     31  N   UNL     1       4.523   3.324  11.803  0.00  0.00    +0.000 NA
ENDBRANCH  28  30
ENDBRANCH  22  25
ENDBRANCH   4  21
TORSDOF 5
ENDMDL
MODEL 7
REMARK VINA RESULT:      -7.8      1.404      1.715
REMARK  Name = 
REMARK  6 active torsions:
REMARK  status: ('A' for Active; 'I' for Inactive)
REMARK    1  A    between atoms: C_1  and  N_2
REMARK    2  A    between atoms: N_5  and  C_6
REMARK    3  A    between atoms: C_9  and  N_10
REMARK    4  A    between atoms: C_11  and  C_13
REMARK    5  A    between atoms: C_16  and  C_17
REMARK    6  A    between atoms: C_20  and  C_21
REMARK                            x       y       z     vdW  Elec       q    Type
REMARK                         _______ _______ _______ _____ _____    ______ ____
ROOT
ATOM      1  C   UNL     1       0.979   8.692  19.730  0.00  0.00    +0.000 A 
ATOM      2  C   UNL     1       1.843   9.288  18.813  0.00  0.00    +0.000 A 
ATOM      3  C   UNL     1       2.735   8.537  18.046  0.00  0.00    +0.000 A 
ATOM      4  C   UNL     1       2.823   7.147  18.194  0.00  0.00    +0.000 A 
ATOM      5  C   UNL     1       1.986   6.482  19.118  0.00  0.00    +0.000 A 
ATOM      6  C   UNL     1       1.076   7.296  19.850  0.00  0.00    +0.000 A 
ENDROOT
BRANCH   1  11
ATOM      7  C   UNL     1      -1.226  12.533  23.108  0.00  0.00    +0.000 C 
ATOM      8  N   UNL     1      -1.227  11.361  22.236  0.00  0.00    +0.000 NA
ATOM      9  C   UNL     1      -0.352  10.299  22.785  0.00  0.00    +0.000 C 
ATOM     10  C   UNL     1      -0.277   9.047  21.874  0.00  0.00    +0.000 C 
ATOM     11  N   UNL     1       0.132   9.447  20.516  0.00  0.00    +0.000 N 
ATOM     12  C   UNL     1      -0.723  10.498  19.935  0.00  0.00    +0.000 C 
ATOM     13  C   UNL     1      -0.752  11.719  20.880  0.00  0.00    +0.000 C 
ENDBRANCH   1  11
BRANCH   5  14
ATOM     14  C   UNL     1       1.940   5.005  19.354  0.00  0.00    +0.000 A 
ATOM     15  C   UNL     1       1.571   4.126  18.307  0.00  0.00    +0.000 A 
ATOM     16  C   UNL     1       1.357   2.759  18.521  0.00  0.00    +0.000 A 
ATOM     17  C   UNL     1       1.564   2.211  19.780  0.00  0.00    +0.000 A 
ATOM     18  C   UNL     1       1.997   3.030  20.815  0.00  0.00    +0.000 A 
ATOM     19  C   UNL     1       2.160   4.402  20.603  0.00  0.00    +0.000 A 
ATOM     20  F   UNL     1       2.511   5.136  21.670  0.00  0.00    +0.000 F 
ENDBRANCH   5  14
BRANCH   4  21
ATOM     21  N   UNL     1       3.824   6.471  17.469  0.00  0.00    +0.000 N 
ATOM     22  C   UNL     1       4.922   5.843  18.020  0.00  0.00    +0.000 C 
ATOM     23  O   UNL     1       5.203   5.862  19.216  0.00  0.00    +0.000 OA
ATOM     24  H   UNL     1       3.834   6.589  16.463  0.00  0.00    +0.000 HD
BRANCH  22  25
ATOM     25  C   UNL     1       5.773   5.196  17.037  0.00  0.00    +0.000 A 
ATOM     26  C   UNL     1       7.084   4.763  17.120  0.00  0.00    +0.000 A 
ATOM     27  C   UNL     1       7.410   4.171  15.874  0.00  0.00    +0.000 A 
ATOM     28  C   UNL     1       6.272   4.284  15.097  0.00  0.00    +0.000 A 
ATOM     29  O   UNL     1       5.283   4.913  15.785  0.00  0.00    +0.000 OA
BRANCH  28  30
ATOM     30  C   UNL     1       5.999   3.865  13.766  0.00  0.00    +0.000 C 
ATOM     31  N   UNL     1       5.792   3.525  12.677  0.00  0.00    +0.000 NA
ENDBRANCH  28  30
ENDBRANCH  22  25
ENDBRANCH   4  21
TORSDOF 5
ENDMDL
MODEL 8
REMARK VINA RESULT:      -7.7      0.990      1.344
REMARK  Name = 
REMARK  6 active torsions:
REMARK  status: ('A' for Active; 'I' for Inactive)
REMARK    1  A    between atoms: C_1  and  N_2
REMARK    2  A    between atoms: N_5  and  C_6
REMARK    3  A    between atoms: C_9  and  N_10
REMARK    4  A    between atoms: C_11  and  C_13
REMARK    5  A    between atoms: C_16  and  C_17
REMARK    6  A    between atoms: C_20  and  C_21
REMARK                            x       y       z     vdW  Elec       q    Type
REMARK                         _______ _______ _______ _____ _____    ______ ____
ROOT
ATOM      1  C   UNL     1       1.055   8.783  19.611  0.00  0.00    +0.000 A 
ATOM      2  C   UNL     1       1.736   9.221  18.476  0.00  0.00    +0.000 A 
ATOM      3  C   UNL     1       2.568   8.373  17.743  0.00  0.00    +0.000 A 
ATOM      4  C   UNL     1       2.781   7.047  18.143  0.00  0.00    +0.000 A 
ATOM      5  C   UNL     1       2.133   6.545  19.294  0.00  0.00    +0.000 A 
ATOM      6  C   UNL     1       1.274   7.447  19.983  0.00  0.00    +0.000 A 
ENDROOT
BRANCH   1  11
ATOM      7  C   UNL     1      -0.835  12.930  22.812  0.00  0.00    +0.000 C 
ATOM      8  N   UNL     1      -0.931  11.734  21.981  0.00  0.00    +0.000 NA
ATOM      9  C   UNL     1      -0.171  10.615  22.583  0.00  0.00    +0.000 C 
ATOM     10  C   UNL     1      -0.199   9.330  21.715  0.00  0.00    +0.000 C 
ATOM     11  N   UNL     1       0.270   9.642  20.354  0.00  0.00    +0.000 N 
ATOM     12  C   UNL     1      -0.472  10.747  19.720  0.00  0.00    +0.000 C 
ATOM     13  C   UNL     1      -0.402  11.998  20.623  0.00  0.00    +0.000 C 
ENDBRANCH   1  11
BRANCH   5  14
ATOM     14  C   UNL     1       2.233   5.146  19.817  0.00  0.00    +0.000 A 
ATOM     15  C   UNL     1       1.061   4.398  20.080  0.00  0.00    +0.000 A 
ATOM     16  C   UNL     1       1.097   3.152  20.719  0.00  0.00    +0.000 A 
ATOM     17  C   UNL     1       2.317   2.584  21.063  0.00  0.00    +0.000 A 
ATOM     18  C   UNL     1       3.492   3.256  20.755  0.00  0.00    +0.000 A 
ATOM     19  C   UNL     1       3.443   4.521  20.161  0.00  0.00    +0.000 A 
ATOM     20  F   UNL     1       4.618   5.135  19.961  0.00  0.00    +0.000 F 
ENDBRANCH   5  14
BRANCH   4  21
ATOM     21  N   UNL     1       3.721   6.286  17.421  0.00  0.00    +0.000 N 
ATOM     22  C   UNL     1       5.042   6.631  17.220  0.00  0.00    +0.000 C 
ATOM     23  O   UNL     1       5.544   7.690  17.586  0.00  0.00    +0.000 OA
ATOM     24  H   UNL     1       3.372   5.512  16.868  0.00  0.00    +0.000 HD
BRANCH  22  25
ATOM     25  C   UNL     1       5.790   5.640  16.465  0.00  0.00    +0.000 A 
ATOM     26  C   UNL     1       6.895   4.883  16.812  0.00  0.00    +0.000 A 
ATOM     27  C   UNL     1       7.196   4.050  15.706  0.00  0.00    +0.000 A 
ATOM     28  C   UNL     1       6.255   4.355  14.740  0.00  0.00    +0.000 A 
ATOM     29  O   UNL     1       5.410   5.323  15.184  0.00  0.00    +0.000 OA
BRANCH  28  30
ATOM     30  C   UNL     1       6.051   3.837  13.431  0.00  0.00    +0.000 C 
ATOM     31  N   UNL     1       5.874   3.404  12.371  0.00  0.00    +0.000 NA
ENDBRANCH  28  30
ENDBRANCH  22  25
ENDBRANCH   4  21
TORSDOF 5
ENDMDL
MODEL 9
REMARK VINA RESULT:      -7.6      1.908      8.437
REMARK  Name = 
REMARK  6 active torsions:
REMARK  status: ('A' for Active; 'I' for Inactive)
REMARK    1  A    between atoms: C_1  and  N_2
REMARK    2  A    between atoms: N_5  and  C_6
REMARK    3  A    between atoms: C_9  and  N_10
REMARK    4  A    between atoms: C_11  and  C_13
REMARK    5  A    between atoms: C_16  and  C_17
REMARK    6  A    between atoms: C_20  and  C_21
REMARK                            x       y       z     vdW  Elec       q    Type
REMARK                         _______ _______ _______ _____ _____    ______ ____
ROOT
ATOM      1  C   UNL     1       4.973   5.305  16.297  0.00  0.00    +0.000 A 
ATOM      2  C   UNL     1       4.903   6.693  16.404  0.00  0.00    +0.000 A 
ATOM      3  C   UNL     1       4.178   7.318  17.419  0.00  0.00    +0.000 A 
ATOM      4  C   UNL     1       3.457   6.569  18.358  0.00  0.00    +0.000 A 
ATOM      5  C   UNL     1       3.472   5.158  18.297  0.00  0.00    +0.000 A 
ATOM      6  C   UNL     1       4.253   4.577  17.258  0.00  0.00    +0.000 A 
ENDROOT
BRANCH   1  11
ATOM      7  C   UNL     1       7.285   4.037  11.391  0.00  0.00    +0.000 C 
ATOM      8  N   UNL     1       6.968   3.857  12.805  0.00  0.00    +0.000 NA
ATOM      9  C   UNL     1       5.507   3.712  13.001  0.00  0.00    +0.000 C 
ATOM     10  C   UNL     1       5.109   3.566  14.492  0.00  0.00    +0.000 C 
ATOM     11  N   UNL     1       5.655   4.697  15.263  0.00  0.00    +0.000 N 
ATOM     12  C   UNL     1       7.110   4.866  15.098  0.00  0.00    +0.000 C 
ATOM     13  C   UNL     1       7.445   5.014  13.598  0.00  0.00    +0.000 C 
ENDBRANCH   1  11
BRANCH   5  14
ATOM     14  C   UNL     1       2.785   4.231  19.250  0.00  0.00    +0.000 A 
ATOM     15  C   UNL     1       1.376   4.257  19.380  0.00  0.00    +0.000 A 
ATOM     16  C   UNL     1       0.703   3.528  20.368  0.00  0.00    +0.000 A 
ATOM     17  C   UNL     1       1.414   2.697  21.224  0.00  0.00    +0.000 A 
ATOM     18  C   UNL     1       2.792   2.590  21.079  0.00  0.00    +0.000 A 
ATOM     19  C   UNL     1       3.459   3.359  20.121  0.00  0.00    +0.000 A 
ATOM     20  F   UNL     1       4.796   3.252  20.091  0.00  0.00    +0.000 F 
ENDBRANCH   5  14
BRANCH   4  21
ATOM     21  N   UNL     1       2.658   7.270  19.284  0.00  0.00    +0.000 N 
ATOM     22  C   UNL     1       1.851   8.348  18.985  0.00  0.00    +0.000 C 
ATOM     23  O   UNL     1       1.788   8.882  17.881  0.00  0.00    +0.000 OA
ATOM     24  H   UNL     1       2.805   7.080  20.268  0.00  0.00    +0.000 HD
BRANCH  22  25
ATOM     25  C   UNL     1       1.112   8.853  20.130  0.00  0.00    +0.000 A 
ATOM     26  C   UNL     1       1.014   8.376  21.425  0.00  0.00    +0.000 A 
ATOM     27  C   UNL     1       0.185   9.275  22.141  0.00  0.00    +0.000 A 
ATOM     28  C   UNL     1      -0.182  10.251  21.232  0.00  0.00    +0.000 A 
ATOM     29  O   UNL     1       0.363   9.998  20.013  0.00  0.00    +0.000 OA
BRANCH  28  30
ATOM     30  C   UNL     1      -0.993  11.410  21.376  0.00  0.00    +0.000 C 
ATOM     31  N   UNL     1      -1.664  12.347  21.502  0.00  0.00    +0.000 NA
ENDBRANCH  28  30
ENDBRANCH  22  25
ENDBRANCH   4  21
TORSDOF 5
ENDMDL
