MODEL 1
REMARK VINA RESULT:      -7.2      0.000      0.000
REMARK  Name = 
REMARK  2 active torsions:
REMARK  status: ('A' for Active; 'I' for Inactive)
REMARK    1  A    between atoms: N_3  and  C_4
REMARK    2  A    between atoms: C_5  and  C_6
REMARK                            x       y       z     vdW  Elec       q    Type
REMARK                         _______ _______ _______ _____ _____    ______ ____
ROOT
ATOM      1  C   UNL     1       4.325   5.337  17.100  0.00  0.00    +0.000 A 
ATOM      2  C   UNL     1       3.977   6.269  18.085  0.00  0.00    +0.000 A 
ATOM      3  C   UNL     1       3.027   5.962  19.059  0.00  0.00    +0.000 A 
ATOM      4  C   UNL     1       2.384   4.718  19.061  0.00  0.00    +0.000 A 
ATOM      5  C   UNL     1       1.422   4.403  20.033  0.00  0.00    +0.000 A 
ATOM      6  C   UNL     1       0.778   3.167  20.022  0.00  0.00    +0.000 A 
ATOM      7  C   UNL     1       1.092   2.230  19.042  0.00  0.00    +0.000 A 
ATOM      8  C   UNL     1       2.049   2.528  18.069  0.00  0.00    +0.000 A 
ATOM      9  C   UNL     1       2.706   3.771  18.063  0.00  0.00    +0.000 A 
ATOM     10  C   UNL     1       3.672   4.096  17.091  0.00  0.00    +0.000 A 
ENDROOT
BRANCH   1  12
ATOM     11  C   UNL     1       6.570   5.193  16.064  0.00  0.00    +0.000 C 
ATOM     12  C   UNL     1       5.309   5.646  16.049  0.00  0.00    +0.000 C 
BRANCH  11  15
ATOM     13  O   UNL     1       8.160   5.505  12.913  0.00  0.00    +0.000 OA
ATOM     14  C   UNL     1       7.328   5.218  13.762  0.00  0.00    +0.000 C 
ATOM     15  N   UNL     1       7.477   5.513  15.092  0.00  0.00    +0.000 N 
ATOM     16  H   UNL     1       8.340   5.987  15.331  0.00  0.00    +0.000 HD
ENDBRANCH  11  15
ENDBRANCH   1  12
TORSDOF 2
ENDMDL
MODEL 2
REMARK VINA RESULT:      -7.0      1.272      1.283
REMARK  Name = 
REMARK  2 active torsions:
REMARK  status: ('A' for Active; 'I' for Inactive)
REMARK    1  A    between atoms: N_3  and  C_4
REMARK    2  A    between atoms: C_5  and  C_6
REMARK                            x       y       z     vdW  Elec       q    Type
REMARK                         _______ _______ _______ _____ _____    ______ ____
ROOT
ATOM      1  C   UNL     1       4.432   4.983  16.913  0.00  0.00    +0.000 A 
ATOM      2  C   UNL     1       4.304   6.117  17.723  0.00  0.00    +0.000 A 
ATOM      3  C   UNL     1       3.403   6.139  18.789  0.00  0.00    +0.000 A 
ATOM      4  C   UNL     1       2.589   5.033  19.058  0.00  0.00    +0.000 A 
ATOM      5  C   UNL     1       1.675   5.049  20.123  0.00  0.00    +0.000 A 
ATOM      6  C   UNL     1       0.862   3.947  20.378  0.00  0.00    +0.000 A 
ATOM      7  C   UNL     1       0.954   2.814  19.575  0.00  0.00    +0.000 A 
ATOM      8  C   UNL     1       1.861   2.782  18.513  0.00  0.00    +0.000 A 
ATOM      9  C   UNL     1       2.688   3.885  18.238  0.00  0.00    +0.000 A 
ATOM     10  C   UNL     1       3.607   3.878  17.171  0.00  0.00    +0.000 A 
ENDROOT
BRANCH   1  12
ATOM     11  C   UNL     1       5.600   3.835  15.055  0.00  0.00    +0.000 C 
ATOM     12  C   UNL     1       5.359   4.943  15.770  0.00  0.00    +0.000 C 
BRANCH  11  15
ATOM     13  O   UNL     1       6.972   3.474  11.808  0.00  0.00    +0.000 OA
ATOM     14  C   UNL     1       6.157   3.500  12.721  0.00  0.00    +0.000 C 
ATOM     15  N   UNL     1       6.486   3.812  14.014  0.00  0.00    +0.000 N 
ATOM     16  H   UNL     1       7.466   4.017  14.169  0.00  0.00    +0.000 HD
ENDBRANCH  11  15
ENDBRANCH   1  12
TORSDOF 2
ENDMDL
MODEL 3
REMARK VINA RESULT:      -7.0      0.727      1.926
REMARK  Name = 
REMARK  2 active torsions:
REMARK  status: ('A' for Active; 'I' for Inactive)
REMARK    1  A    between atoms: N_3  and  C_4
REMARK    2  A    between atoms: C_5  and  C_6
REMARK                            x       y       z     vdW  Elec       q    Type
REMARK                         _______ _______ _______ _____ _____    ______ ____
ROOT
ATOM      1  C   UNL     1       4.434   4.805  16.923  0.00  0.00    +0.000 A 
ATOM      2  C   UNL     1       3.976   3.507  16.668  0.00  0.00    +0.000 A 
ATOM      3  C   UNL     1       2.965   2.938  17.445  0.00  0.00    +0.000 A 
ATOM      4  C   UNL     1       2.400   3.648  18.511  0.00  0.00    +0.000 A 
ATOM      5  C   UNL     1       1.388   3.081  19.302  0.00  0.00    +0.000 A 
ATOM      6  C   UNL     1       0.838   3.790  20.368  0.00  0.00    +0.000 A 
ATOM      7  C   UNL     1       1.290   5.075  20.655  0.00  0.00    +0.000 A 
ATOM      8  C   UNL     1       2.295   5.653  19.875  0.00  0.00    +0.000 A 
ATOM      9  C   UNL     1       2.863   4.952  18.797  0.00  0.00    +0.000 A 
ATOM     10  C   UNL     1       3.880   5.513  18.000  0.00  0.00    +0.000 A 
ENDROOT
BRANCH   1  12
ATOM     11  C   UNL     1       6.573   4.733  15.676  0.00  0.00    +0.000 C 
ATOM     12  C   UNL     1       5.514   5.418  16.131  0.00  0.00    +0.000 C 
BRANCH  11  15
ATOM     13  O   UNL     1       8.604   5.828  12.987  0.00  0.00    +0.000 OA
ATOM     14  C   UNL     1       7.686   5.300  13.600  0.00  0.00    +0.000 C 
ATOM     15  N   UNL     1       7.579   5.326  14.965  0.00  0.00    +0.000 N 
ATOM     16  H   UNL     1       8.327   5.814  15.444  0.00  0.00    +0.000 HD
ENDBRANCH  11  15
ENDBRANCH   1  12
TORSDOF 2
ENDMDL
MODEL 4
REMARK VINA RESULT:      -6.9      2.318      3.001
REMARK  Name = 
REMARK  2 active torsions:
REMARK  status: ('A' for Active; 'I' for Inactive)
REMARK    1  A    between atoms: N_3  and  C_4
REMARK    2  A    between atoms: C_5  and  C_6
REMARK                            x       y       z     vdW  Elec       q    Type
REMARK                         _______ _______ _______ _____ _____    ______ ____
ROOT
ATOM      1  C   UNL     1       4.531   5.799  17.453  0.00  0.00    +0.000 A 
ATOM      2  C   UNL     1       4.460   4.607  16.723  0.00  0.00    +0.000 A 
ATOM      3  C   UNL     1       3.545   3.609  17.066  0.00  0.00    +0.000 A 
ATOM      4  C   UNL     1       2.691   3.771  18.163  0.00  0.00    +0.000 A 
ATOM      5  C   UNL     1       1.774   2.771  18.520  0.00  0.00    +0.000 A 
ATOM      6  C   UNL     1       0.935   2.936  19.620  0.00  0.00    +0.000 A 
ATOM      7  C   UNL     1       1.000   4.103  20.375  0.00  0.00    +0.000 A 
ATOM      8  C   UNL     1       1.907   5.108  20.031  0.00  0.00    +0.000 A 
ATOM      9  C   UNL     1       2.763   4.959  18.926  0.00  0.00    +0.000 A 
ATOM     10  C   UNL     1       3.687   5.957  18.563  0.00  0.00    +0.000 A 
ENDROOT
BRANCH   1  12
ATOM     11  C   UNL     1       6.801   6.789  17.450  0.00  0.00    +0.000 C 
ATOM     12  C   UNL     1       5.502   6.855  17.124  0.00  0.00    +0.000 C 
BRANCH  11  15
ATOM     13  O   UNL     1       8.786   9.712  17.722  0.00  0.00    +0.000 OA
ATOM     14  C   UNL     1       8.003   8.818  18.011  0.00  0.00    +0.000 C 
ATOM     15  N   UNL     1       7.682   7.793  17.159  0.00  0.00    +0.000 N 
ATOM     16  H   UNL     1       8.139   7.830  16.255  0.00  0.00    +0.000 HD
ENDBRANCH  11  15
ENDBRANCH   1  12
TORSDOF 2
ENDMDL
MODEL 5
REMARK VINA RESULT:      -6.8      1.243      1.325
REMARK  Name = 
REMARK  2 active torsions:
REMARK  status: ('A' for Active; 'I' for Inactive)
REMARK    1  A    between atoms: N_3  and  C_4
REMARK    2  A    between atoms: C_5  and  C_6
REMARK                            x       y       z     vdW  Elec       q    Type
REMARK                         _______ _______ _______ _____ _____    ______ ____
ROOT
ATOM      1  C   UNL     1       4.836   4.149  17.203  0.00  0.00    +0.000 A 
ATOM      2  C   UNL     1       5.447   4.224  18.461  0.00  0.00    +0.000 A 
ATOM      3  C   UNL     1       4.730   3.937  19.624  0.00  0.00    +0.000 A 
ATOM      4  C   UNL     1       3.376   3.587  19.560  0.00  0.00    +0.000 A 
ATOM      5  C   UNL     1       2.647   3.304  20.724  0.00  0.00    +0.000 A 
ATOM      6  C   UNL     1       1.296   2.967  20.653  0.00  0.00    +0.000 A 
ATOM      7  C   UNL     1       0.660   2.905  19.416  0.00  0.00    +0.000 A 
ATOM      8  C   UNL     1       1.375   3.182  18.248  0.00  0.00    +0.000 A 
ATOM      9  C   UNL     1       2.736   3.526  18.301  0.00  0.00    +0.000 A 
ATOM     10  C   UNL     1       3.476   3.813  17.137  0.00  0.00    +0.000 A 
ENDROOT
BRANCH   1  12
ATOM     11  C   UNL     1       6.812   4.961  15.950  0.00  0.00    +0.000 C 
ATOM     12  C   UNL     1       5.565   4.468  15.965  0.00  0.00    +0.000 C 
BRANCH  11  15
ATOM     13  O   UNL     1       7.733   5.079  12.530  0.00  0.00    +0.000 OA
ATOM     14  C   UNL     1       7.126   4.791  13.553  0.00  0.00    +0.000 C 
ATOM     15  N   UNL     1       7.463   5.276  14.790  0.00  0.00    +0.000 N 
ATOM     16  H   UNL     1       8.266   5.895  14.803  0.00  0.00    +0.000 HD
ENDBRANCH  11  15
ENDBRANCH   1  12
TORSDOF 2
ENDMDL
MODEL 6
REMARK VINA RESULT:      -6.8      1.407      1.512
REMARK  Name = 
REMARK  2 active torsions:
REMARK  status: ('A' for Active; 'I' for Inactive)
REMARK    1  A    between atoms: N_3  and  C_4
REMARK    2  A    between atoms: C_5  and  C_6
REMARK                            x       y       z     vdW  Elec       q    Type
REMARK                         _______ _______ _______ _____ _____    ______ ____
ROOT
ATOM      1  C   UNL     1       4.237   5.049  17.814  0.00  0.00    +0.000 A 
ATOM      2  C   UNL     1       2.990   5.681  17.757  0.00  0.00    +0.000 A 
ATOM      3  C   UNL     1       1.972   5.342  18.650  0.00  0.00    +0.000 A 
ATOM      4  C   UNL     1       2.171   4.344  19.612  0.00  0.00    +0.000 A 
ATOM      5  C   UNL     1       1.152   3.992  20.510  0.00  0.00    +0.000 A 
ATOM      6  C   UNL     1       1.354   2.991  21.458  0.00  0.00    +0.000 A 
ATOM      7  C   UNL     1       2.579   2.332  21.523  0.00  0.00    +0.000 A 
ATOM      8  C   UNL     1       3.604   2.674  20.637  0.00  0.00    +0.000 A 
ATOM      9  C   UNL     1       3.417   3.680  19.673  0.00  0.00    +0.000 A 
ATOM     10  C   UNL     1       4.434   4.038  18.767  0.00  0.00    +0.000 A 
ENDROOT
BRANCH   1  12
ATOM     11  C   UNL     1       6.321   4.532  16.578  0.00  0.00    +0.000 C 
ATOM     12  C   UNL     1       5.318   5.374  16.869  0.00  0.00    +0.000 C 
BRANCH  11  15
ATOM     13  O   UNL     1       8.079   5.433  13.636  0.00  0.00    +0.000 OA
ATOM     14  C   UNL     1       7.156   5.151  14.390  0.00  0.00    +0.000 C 
ATOM     15  N   UNL     1       7.330   4.863  15.718  0.00  0.00    +0.000 N 
ATOM     16  H   UNL     1       8.291   4.892  16.040  0.00  0.00    +0.000 HD
ENDBRANCH  11  15
ENDBRANCH   1  12
TORSDOF 2
ENDMDL
MODEL 7
REMARK VINA RESULT:      -6.8      2.213      3.055
REMARK  Name = 
REMARK  2 active torsions:
REMARK  status: ('A' for Active; 'I' for Inactive)
REMARK    1  A    between atoms: N_3  and  C_4
REMARK    2  A    between atoms: C_5  and  C_6
REMARK                            x       y       z     vdW  Elec       q    Type
REMARK                         _______ _______ _______ _____ _____    ______ ____
ROOT
ATOM      1  C   UNL     1       5.456   4.644  15.531  0.00  0.00    +0.000 A 
ATOM      2  C   UNL     1       5.522   6.040  15.620  0.00  0.00    +0.000 A 
ATOM      3  C   UNL     1       4.773   6.734  16.571  0.00  0.00    +0.000 A 
ATOM      4  C   UNL     1       3.921   6.050  17.446  0.00  0.00    +0.000 A 
ATOM      5  C   UNL     1       3.158   6.740  18.401  0.00  0.00    +0.000 A 
ATOM      6  C   UNL     1       2.305   6.052  19.262  0.00  0.00    +0.000 A 
ATOM      7  C   UNL     1       2.206   4.666  19.180  0.00  0.00    +0.000 A 
ATOM      8  C   UNL     1       2.960   3.965  18.236  0.00  0.00    +0.000 A 
ATOM      9  C   UNL     1       3.824   4.642  17.358  0.00  0.00    +0.000 A 
ATOM     10  C   UNL     1       4.592   3.957  16.396  0.00  0.00    +0.000 A 
ENDROOT
BRANCH   1  12
ATOM     11  C   UNL     1       5.763   3.646  13.285  0.00  0.00    +0.000 C 
ATOM     12  C   UNL     1       6.219   3.892  14.522  0.00  0.00    +0.000 C 
BRANCH  11  15
ATOM     13  O   UNL     1       6.623   1.266  10.805  0.00  0.00    +0.000 OA
ATOM     14  C   UNL     1       5.960   1.908  11.609  0.00  0.00    +0.000 C 
ATOM     15  N   UNL     1       6.476   2.922  12.370  0.00  0.00    +0.000 N 
ATOM     16  H   UNL     1       7.463   3.106  12.227  0.00  0.00    +0.000 HD
ENDBRANCH  11  15
ENDBRANCH   1  12
TORSDOF 2
ENDMDL
MODEL 8
REMARK VINA RESULT:      -6.6      4.236      5.002
REMARK  Name = 
REMARK  2 active torsions:
REMARK  status: ('A' for Active; 'I' for Inactive)
REMARK    1  A    between atoms: N_3  and  C_4
REMARK    2  A    between atoms: C_5  and  C_6
REMARK                            x       y       z     vdW  Elec       q    Type
REMARK                         _______ _______ _______ _____ _____    ______ ____
ROOT
ATOM      1  C   UNL     1       2.359   7.125  18.699  0.00  0.00    +0.000 A 
ATOM      2  C   UNL     1       2.048   6.970  20.055  0.00  0.00    +0.000 A 
ATOM      3  C   UNL     1       1.820   5.705  20.599  0.00  0.00    +0.000 A 
ATOM      4  C   UNL     1       1.877   4.562  19.794  0.00  0.00    +0.000 A 
ATOM      5  C   UNL     1       1.642   3.287  20.331  0.00  0.00    +0.000 A 
ATOM      6  C   UNL     1       1.692   2.154  19.520  0.00  0.00    +0.000 A 
ATOM      7  C   UNL     1       1.979   2.282  18.164  0.00  0.00    +0.000 A 
ATOM      8  C   UNL     1       2.218   3.545  17.616  0.00  0.00    +0.000 A 
ATOM      9  C   UNL     1       2.170   4.698  18.418  0.00  0.00    +0.000 A 
ATOM     10  C   UNL     1       2.403   5.982  17.887  0.00  0.00    +0.000 A 
ENDROOT
BRANCH   1  12
ATOM     11  C   UNL     1       1.788   9.505  18.327  0.00  0.00    +0.000 C 
ATOM     12  C   UNL     1       2.583   8.450  18.098  0.00  0.00    +0.000 C 
BRANCH  11  15
ATOM     13  O   UNL     1       2.260  12.987  17.865  0.00  0.00    +0.000 OA
ATOM     14  C   UNL     1       2.086  11.908  18.417  0.00  0.00    +0.000 C 
ATOM     15  N   UNL     1       1.996  10.722  17.738  0.00  0.00    +0.000 N 
ATOM     16  H   UNL     1       2.079  10.797  16.731  0.00  0.00    +0.000 HD
ENDBRANCH  11  15
ENDBRANCH   1  12
TORSDOF 2
ENDMDL
MODEL 9
REMARK VINA RESULT:      -6.5      4.246      5.338
REMARK  Name = 
REMARK  2 active torsions:
REMARK  status: ('A' for Active; 'I' for Inactive)
REMARK    1  A    between atoms: N_3  and  C_4
REMARK    2  A    between atoms: C_5  and  C_6
REMARK                            x       y       z     vdW  Elec       q    Type
REMARK                         _______ _______ _______ _____ _____    ______ ____
ROOT
ATOM      1  C   UNL     1       3.065   7.055  17.801  0.00  0.00    +0.000 A 
ATOM      2  C   UNL     1       4.317   6.589  17.383  0.00  0.00    +0.000 A 
ATOM      3  C   UNL     1       4.583   5.221  17.303  0.00  0.00    +0.000 A 
ATOM      4  C   UNL     1       3.607   4.283  17.660  0.00  0.00    +0.000 A 
ATOM      5  C   UNL     1       3.868   2.906  17.590  0.00  0.00    +0.000 A 
ATOM      6  C   UNL     1       2.895   1.978  17.957  0.00  0.00    +0.000 A 
ATOM      7  C   UNL     1       1.649   2.416  18.396  0.00  0.00    +0.000 A 
ATOM      8  C   UNL     1       1.374   3.783  18.470  0.00  0.00    +0.000 A 
ATOM      9  C   UNL     1       2.343   4.734  18.105  0.00  0.00    +0.000 A 
ATOM     10  C   UNL     1       2.091   6.117  18.175  0.00  0.00    +0.000 A 
ENDROOT
BRANCH   1  12
ATOM     11  C   UNL     1       1.527   8.995  17.855  0.00  0.00    +0.000 C 
ATOM     12  C   UNL     1       2.769   8.493  17.915  0.00  0.00    +0.000 C 
BRANCH  11  15
ATOM     13  O   UNL     1       0.516  12.165  19.075  0.00  0.00    +0.000 OA
ATOM     14  C   UNL     1       0.745  10.963  19.032  0.00  0.00    +0.000 C 
ATOM     15  N   UNL     1       1.274  10.337  17.935  0.00  0.00    +0.000 N 
ATOM     16  H   UNL     1       1.461  10.943  17.145  0.00  0.00    +0.000 HD
ENDBRANCH  11  15
ENDBRANCH   1  12
TORSDOF 2
ENDMDL
