MODEL 1
REMARK VINA RESULT:      -8.4      0.000      0.000
REMARK  Name = 
REMARK  7 active torsions:
REMARK  status: ('A' for Active; 'I' for Inactive)
REMARK    1  A    between atoms: C_1  and  C_2
REMARK    2  A    between atoms: C_2  and  N_3
REMARK    3  A    between atoms: C_16  and  C_17
REMARK    4  A    between atoms: N_19  and  C_20
REMARK    5  A    between atoms: C_20  and  C_21
REMARK    6  A    between atoms: C_24  and  O_25
REMARK    7  A    between atoms: O_25  and  C_26
REMARK                            x       y       z     vdW  Elec       q    Type
REMARK                         _______ _______ _______ _____ _____    ______ ____
ROOT
ATOM      1  N   UNL     1      -3.295  12.663  20.183  0.00  0.00    +0.000 N 
ATOM      2  C   UNL     1      -4.567  13.240  20.096  0.00  0.00    +0.000 C 
ATOM      3  O   UNL     1      -4.796  14.426  20.333  0.00  0.00    +0.000 OA
ATOM      4  C   UNL     1      -5.704  12.303  20.122  0.00  0.00    +0.000 A 
ATOM      5  C   UNL     1      -6.500  12.285  21.278  0.00  0.00    +0.000 A 
ATOM      6  C   UNL     1      -7.524  11.353  21.401  0.00  0.00    +0.000 A 
ATOM      7  C   UNL     1      -7.757  10.446  20.369  0.00  0.00    +0.000 A 
ATOM      8  C   UNL     1      -6.989  10.500  19.200  0.00  0.00    +0.000 A 
ATOM      9  C   UNL     1      -5.959  11.438  19.067  0.00  0.00    +0.000 A 
ATOM     10  S   UNL     1      -5.071  11.596  17.551  0.00  0.00    +0.000 S 
ATOM     11  C   UNL     1      -3.402  11.233  18.084  0.00  0.00    +0.000 A 
ATOM     12  C   UNL     1      -2.741  10.358  17.193  0.00  0.00    +0.000 A 
ATOM     13  C   UNL     1      -1.418   9.977  17.395  0.00  0.00    +0.000 A 
ATOM     14  C   UNL     1      -0.724  10.475  18.490  0.00  0.00    +0.000 A 
ATOM     15  C   UNL     1      -1.380  11.319  19.400  0.00  0.00    +0.000 A 
ATOM     16  C   UNL     1      -2.728  11.729  19.228  0.00  0.00    +0.000 A 
ENDROOT
BRANCH  14  17
ATOM     17  C   UNL     1       0.693  10.059  18.659  0.00  0.00    +0.000 C 
ATOM     18  O   UNL     1       1.382  10.606  19.509  0.00  0.00    +0.000 OA
ATOM     19  N   UNL     1       1.147   9.030  17.858  0.00  0.00    +0.000 N 
ATOM     20  H   UNL     1       0.505   8.526  17.263  0.00  0.00    +0.000 HD
BRANCH  19  21
ATOM     21  C   UNL     1       2.494   8.513  17.980  0.00  0.00    +0.000 C 
BRANCH  21  22
ATOM     22  C   UNL     1       2.491   7.133  18.583  0.00  0.00    +0.000 A 
ATOM     23  C   UNL     1       2.852   6.021  17.809  0.00  0.00    +0.000 A 
ATOM     24  C   UNL     1       2.807   4.735  18.353  0.00  0.00    +0.000 A 
ATOM     25  C   UNL     1       2.416   4.535  19.679  0.00  0.00    +0.000 A 
ATOM     26  C   UNL     1       2.063   5.638  20.457  0.00  0.00    +0.000 A 
ATOM     27  C   UNL     1       2.097   6.926  19.912  0.00  0.00    +0.000 A 
BRANCH  25  28
ATOM     28  O   UNL     1       2.350   3.229  20.075  0.00  0.00    +0.000 OA
ATOM     29  C   UNL     1       1.758   2.317  19.158  0.00  0.00    +0.000 C 
ENDBRANCH  25  28
ENDBRANCH  21  22
ENDBRANCH  19  21
ENDBRANCH  14  17
BRANCH   1  31
ATOM     30  C   UNL     1      -2.920  12.410  22.652  0.00  0.00    +0.000 C 
ATOM     31  C   UNL     1      -2.543  13.108  21.356  0.00  0.00    +0.000 C 
ENDBRANCH   1  31
TORSDOF 5
ENDMDL
MODEL 2
REMARK VINA RESULT:      -8.0      0.840      1.227
REMARK  Name = 
REMARK  7 active torsions:
REMARK  status: ('A' for Active; 'I' for Inactive)
REMARK    1  A    between atoms: C_1  and  C_2
REMARK    2  A    between atoms: C_2  and  N_3
REMARK    3  A    between atoms: C_16  and  C_17
REMARK    4  A    between atoms: N_19  and  C_20
REMARK    5  A    between atoms: C_20  and  C_21
REMARK    6  A    between atoms: C_24  and  O_25
REMARK    7  A    between atoms: O_25  and  C_26
REMARK                            x       y       z     vdW  Elec       q    Type
REMARK                         _______ _______ _______ _____ _____    ______ ____
ROOT
ATOM      1  N   UNL     1      -2.981  12.617  20.409  0.00  0.00    +0.000 N 
ATOM      2  C   UNL     1      -4.171  13.353  20.372  0.00  0.00    +0.000 C 
ATOM      3  O   UNL     1      -4.250  14.540  20.688  0.00  0.00    +0.000 OA
ATOM      4  C   UNL     1      -5.416  12.565  20.349  0.00  0.00    +0.000 A 
ATOM      5  C   UNL     1      -6.205  12.570  21.509  0.00  0.00    +0.000 A 
ATOM      6  C   UNL     1      -7.338  11.767  21.583  0.00  0.00    +0.000 A 
ATOM      7  C   UNL     1      -7.685  10.965  20.497  0.00  0.00    +0.000 A 
ATOM      8  C   UNL     1      -6.918  11.000  19.326  0.00  0.00    +0.000 A 
ATOM      9  C   UNL     1      -5.779  11.809  19.243  0.00  0.00    +0.000 A 
ATOM     10  S   UNL     1      -4.881  11.955  17.731  0.00  0.00    +0.000 S 
ATOM     11  C   UNL     1      -3.269  11.352  18.223  0.00  0.00    +0.000 A 
ATOM     12  C   UNL     1      -2.724  10.462  17.270  0.00  0.00    +0.000 A 
ATOM     13  C   UNL     1      -1.459   9.908  17.434  0.00  0.00    +0.000 A 
ATOM     14  C   UNL     1      -0.707  10.242  18.552  0.00  0.00    +0.000 A 
ATOM     15  C   UNL     1      -1.250  11.100  19.521  0.00  0.00    +0.000 A 
ATOM     16  C   UNL     1      -2.536  11.685  19.390  0.00  0.00    +0.000 A 
ENDROOT
BRANCH  14  17
ATOM     17  C   UNL     1       0.648   9.643  18.679  0.00  0.00    +0.000 C 
ATOM     18  O   UNL     1       1.532   9.989  17.906  0.00  0.00    +0.000 OA
ATOM     19  N   UNL     1       0.846   8.745  19.708  0.00  0.00    +0.000 N 
ATOM     20  H   UNL     1       0.123   8.590  20.395  0.00  0.00    +0.000 HD
BRANCH  19  21
ATOM     21  C   UNL     1       2.142   8.146  19.952  0.00  0.00    +0.000 C 
BRANCH  21  22
ATOM     22  C   UNL     1       2.127   6.674  19.633  0.00  0.00    +0.000 A 
ATOM     23  C   UNL     1       1.770   5.741  20.615  0.00  0.00    +0.000 A 
ATOM     24  C   UNL     1       1.797   4.373  20.335  0.00  0.00    +0.000 A 
ATOM     25  C   UNL     1       2.167   3.911  19.069  0.00  0.00    +0.000 A 
ATOM     26  C   UNL     1       2.517   4.836  18.085  0.00  0.00    +0.000 A 
ATOM     27  C   UNL     1       2.500   6.207  18.366  0.00  0.00    +0.000 A 
BRANCH  25  28
ATOM     28  O   UNL     1       2.219   2.553  18.937  0.00  0.00    +0.000 OA
ATOM     29  C   UNL     1       3.052   2.047  17.900  0.00  0.00    +0.000 C 
ENDBRANCH  25  28
ENDBRANCH  21  22
ENDBRANCH  19  21
ENDBRANCH  14  17
BRANCH   1  31
ATOM     30  C   UNL     1      -2.641  12.165  22.855  0.00  0.00    +0.000 C 
ATOM     31  C   UNL     1      -2.176  12.888  21.601  0.00  0.00    +0.000 C 
ENDBRANCH   1  31
TORSDOF 5
ENDMDL
MODEL 3
REMARK VINA RESULT:      -7.8      1.028      1.095
REMARK  Name = 
REMARK  7 active torsions:
REMARK  status: ('A' for Active; 'I' for Inactive)
REMARK    1  A    between atoms: C_1  and  C_2
REMARK    2  A    between atoms: C_2  and  N_3
REMARK    3  A    between atoms: C_16  and  C_17
REMARK    4  A    between atoms: N_19  and  C_20
REMARK    5  A    between atoms: C_20  and  C_21
REMARK    6  A    between atoms: C_24  and  O_25
REMARK    7  A    between atoms: O_25  and  C_26
REMARK                            x       y       z     vdW  Elec       q    Type
REMARK                         _______ _______ _______ _____ _____    ______ ____
ROOT
ATOM      1  N   UNL     1      -2.962  12.470  20.204  0.00  0.00    +0.000 N 
ATOM      2  C   UNL     1      -4.189  13.123  20.043  0.00  0.00    +0.000 C 
ATOM      3  O   UNL     1      -4.364  14.317  20.288  0.00  0.00    +0.000 OA
ATOM      4  C   UNL     1      -5.378  12.255  19.976  0.00  0.00    +0.000 A 
ATOM      5  C   UNL     1      -6.249  12.266  21.075  0.00  0.00    +0.000 A 
ATOM      6  C   UNL     1      -7.332  11.395  21.112  0.00  0.00    +0.000 A 
ATOM      7  C   UNL     1      -7.548  10.519  20.049  0.00  0.00    +0.000 A 
ATOM      8  C   UNL     1      -6.701  10.547  18.935  0.00  0.00    +0.000 A 
ATOM      9  C   UNL     1      -5.611  11.424  18.889  0.00  0.00    +0.000 A 
ATOM     10  S   UNL     1      -4.615  11.552  17.438  0.00  0.00    +0.000 S 
ATOM     11  C   UNL     1      -3.009  11.082  18.074  0.00  0.00    +0.000 A 
ATOM     12  C   UNL     1      -2.342  10.183  17.211  0.00  0.00    +0.000 A 
ATOM     13  C   UNL     1      -1.061   9.722  17.493  0.00  0.00    +0.000 A 
ATOM     14  C   UNL     1      -0.415  10.160  18.642  0.00  0.00    +0.000 A 
ATOM     15  C   UNL     1      -1.080  11.027  19.523  0.00  0.00    +0.000 A 
ATOM     16  C   UNL     1      -2.387  11.519  19.270  0.00  0.00    +0.000 A 
ENDROOT
BRANCH  14  17
ATOM     17  C   UNL     1       0.962   9.658  18.896  0.00  0.00    +0.000 C 
ATOM     18  O   UNL     1       1.425   9.723  20.026  0.00  0.00    +0.000 OA
ATOM     19  N   UNL     1       1.634   9.096  17.829  0.00  0.00    +0.000 N 
ATOM     20  H   UNL     1       1.161   8.949  16.949  0.00  0.00    +0.000 HD
BRANCH  19  21
ATOM     21  C   UNL     1       2.958   8.528  17.982  0.00  0.00    +0.000 C 
BRANCH  21  22
ATOM     22  C   UNL     1       2.919   7.027  17.864  0.00  0.00    +0.000 A 
ATOM     23  C   UNL     1       4.063   6.318  17.475  0.00  0.00    +0.000 A 
ATOM     24  C   UNL     1       4.018   4.930  17.322  0.00  0.00    +0.000 A 
ATOM     25  C   UNL     1       2.838   4.224  17.565  0.00  0.00    +0.000 A 
ATOM     26  C   UNL     1       1.696   4.923  17.959  0.00  0.00    +0.000 A 
ATOM     27  C   UNL     1       1.737   6.315  18.104  0.00  0.00    +0.000 A 
BRANCH  25  28
ATOM     28  O   UNL     1       2.901   2.882  17.318  0.00  0.00    +0.000 OA
ATOM     29  C   UNL     1       3.270   2.052  18.413  0.00  0.00    +0.000 C 
ENDBRANCH  25  28
ENDBRANCH  21  22
ENDBRANCH  19  21
ENDBRANCH  14  17
BRANCH   1  31
ATOM     30  C   UNL     1      -2.841  12.241  22.700  0.00  0.00    +0.000 C 
ATOM     31  C   UNL     1      -2.266  12.851  21.432  0.00  0.00    +0.000 C 
ENDBRANCH   1  31
TORSDOF 5
ENDMDL
MODEL 4
REMARK VINA RESULT:      -7.7      3.018     10.192
REMARK  Name = 
REMARK  7 active torsions:
REMARK  status: ('A' for Active; 'I' for Inactive)
REMARK    1  A    between atoms: C_1  and  C_2
REMARK    2  A    between atoms: C_2  and  N_3
REMARK    3  A    between atoms: C_16  and  C_17
REMARK    4  A    between atoms: N_19  and  C_20
REMARK    5  A    between atoms: C_20  and  C_21
REMARK    6  A    between atoms: C_24  and  O_25
REMARK    7  A    between atoms: O_25  and  C_26
REMARK                            x       y       z     vdW  Elec       q    Type
REMARK                         _______ _______ _______ _____ _____    ______ ____
ROOT
ATOM      1  N   UNL     1       2.901   5.415  19.613  0.00  0.00    +0.000 N 
ATOM      2  C   UNL     1       3.664   4.768  18.633  0.00  0.00    +0.000 C 
ATOM      3  O   UNL     1       3.492   3.596  18.298  0.00  0.00    +0.000 OA
ATOM      4  C   UNL     1       4.957   5.393  18.306  0.00  0.00    +0.000 A 
ATOM      5  C   UNL     1       6.120   4.731  18.729  0.00  0.00    +0.000 A 
ATOM      6  C   UNL     1       7.364   5.322  18.538  0.00  0.00    +0.000 A 
ATOM      7  C   UNL     1       7.447   6.568  17.919  0.00  0.00    +0.000 A 
ATOM      8  C   UNL     1       6.286   7.201  17.458  0.00  0.00    +0.000 A 
ATOM      9  C   UNL     1       5.031   6.611  17.644  0.00  0.00    +0.000 A 
ATOM     10  S   UNL     1       3.579   7.341  16.956  0.00  0.00    +0.000 S 
ATOM     11  C   UNL     1       2.610   7.647  18.430  0.00  0.00    +0.000 A 
ATOM     12  C   UNL     1       2.021   8.931  18.418  0.00  0.00    +0.000 A 
ATOM     13  C   UNL     1       1.193   9.360  19.450  0.00  0.00    +0.000 A 
ATOM     14  C   UNL     1       0.926   8.506  20.512  0.00  0.00    +0.000 A 
ATOM     15  C   UNL     1       1.531   7.240  20.551  0.00  0.00    +0.000 A 
ATOM     16  C   UNL     1       2.382   6.767  19.519  0.00  0.00    +0.000 A 
ENDROOT
BRANCH  14  17
ATOM     17  C   UNL     1       0.019   8.996  21.583  0.00  0.00    +0.000 C 
ATOM     18  O   UNL     1      -0.693   8.199  22.177  0.00  0.00    +0.000 OA
ATOM     19  N   UNL     1       0.066  10.343  21.880  0.00  0.00    +0.000 N 
ATOM     20  H   UNL     1       0.761  10.936  21.451  0.00  0.00    +0.000 HD
BRANCH  19  21
ATOM     21  C   UNL     1      -0.736  10.913  22.943  0.00  0.00    +0.000 C 
BRANCH  21  22
ATOM     22  C   UNL     1      -1.832  11.783  22.387  0.00  0.00    +0.000 A 
ATOM     23  C   UNL     1      -2.883  12.211  23.210  0.00  0.00    +0.000 A 
ATOM     24  C   UNL     1      -3.923  12.982  22.686  0.00  0.00    +0.000 A 
ATOM     25  C   UNL     1      -3.930  13.350  21.339  0.00  0.00    +0.000 A 
ATOM     26  C   UNL     1      -2.884  12.933  20.515  0.00  0.00    +0.000 A 
ATOM     27  C   UNL     1      -1.845  12.152  21.036  0.00  0.00    +0.000 A 
BRANCH  25  28
ATOM     28  O   UNL     1      -5.032  14.047  20.931  0.00  0.00    +0.000 OA
ATOM     29  C   UNL     1      -6.285  13.609  21.444  0.00  0.00    +0.000 C 
ENDBRANCH  25  28
ENDBRANCH  21  22
ENDBRANCH  19  21
ENDBRANCH  14  17
BRANCH   1  31
ATOM     30  C   UNL     1       1.347   3.784  20.720  0.00  0.00    +0.000 C 
ATOM     31  C   UNL     1       2.642   4.577  20.783  0.00  0.00    +0.000 C 
ENDBRANCH   1  31
TORSDOF 5
ENDMDL
MODEL 5
REMARK VINA RESULT:      -7.7      4.255     10.978
REMARK  Name = 
REMARK  7 active torsions:
REMARK  status: ('A' for Active; 'I' for Inactive)
REMARK    1  A    between atoms: C_1  and  C_2
REMARK    2  A    between atoms: C_2  and  N_3
REMARK    3  A    between atoms: C_16  and  C_17
REMARK    4  A    between atoms: N_19  and  C_20
REMARK    5  A    between atoms: C_20  and  C_21
REMARK    6  A    between atoms: C_24  and  O_25
REMARK    7  A    between atoms: O_25  and  C_26
REMARK                            x       y       z     vdW  Elec       q    Type
REMARK                         _______ _______ _______ _____ _____    ______ ____
ROOT
ATOM      1  N   UNL     1       6.213   5.680  17.700  0.00  0.00    +0.000 N 
ATOM      2  C   UNL     1       7.040   4.737  17.078  0.00  0.00    +0.000 C 
ATOM      3  O   UNL     1       8.118   4.365  17.541  0.00  0.00    +0.000 OA
ATOM      4  C   UNL     1       6.791   4.506  15.645  0.00  0.00    +0.000 A 
ATOM      5  C   UNL     1       7.748   4.986  14.738  0.00  0.00    +0.000 A 
ATOM      6  C   UNL     1       7.519   4.888  13.370  0.00  0.00    +0.000 A 
ATOM      7  C   UNL     1       6.340   4.304  12.909  0.00  0.00    +0.000 A 
ATOM      8  C   UNL     1       5.412   3.785  13.819  0.00  0.00    +0.000 A 
ATOM      9  C   UNL     1       5.637   3.878  15.198  0.00  0.00    +0.000 A 
ATOM     10  S   UNL     1       4.535   3.116  16.346  0.00  0.00    +0.000 S 
ATOM     11  C   UNL     1       3.982   4.532  17.291  0.00  0.00    +0.000 A 
ATOM     12  C   UNL     1       2.585   4.512  17.505  0.00  0.00    +0.000 A 
ATOM     13  C   UNL     1       1.950   5.498  18.252  0.00  0.00    +0.000 A 
ATOM     14  C   UNL     1       2.704   6.522  18.812  0.00  0.00    +0.000 A 
ATOM     15  C   UNL     1       4.087   6.571  18.580  0.00  0.00    +0.000 A 
ATOM     16  C   UNL     1       4.771   5.584  17.822  0.00  0.00    +0.000 A 
ENDROOT
BRANCH  14  17
ATOM     17  C   UNL     1       1.989   7.545  19.620  0.00  0.00    +0.000 C 
ATOM     18  O   UNL     1       1.705   7.299  20.785  0.00  0.00    +0.000 OA
ATOM     19  N   UNL     1       1.719   8.754  19.011  0.00  0.00    +0.000 N 
ATOM     20  H   UNL     1       2.086   8.954  18.092  0.00  0.00    +0.000 HD
BRANCH  19  21
ATOM     21  C   UNL     1       1.076   9.836  19.727  0.00  0.00    +0.000 C 
BRANCH  21  22
ATOM     22  C   UNL     1      -0.160  10.303  19.005  0.00  0.00    +0.000 A 
ATOM     23  C   UNL     1      -0.927  11.356  19.521  0.00  0.00    +0.000 A 
ATOM     24  C   UNL     1      -2.097  11.763  18.877  0.00  0.00    +0.000 A 
ATOM     25  C   UNL     1      -2.518  11.137  17.701  0.00  0.00    +0.000 A 
ATOM     26  C   UNL     1      -1.756  10.093  17.177  0.00  0.00    +0.000 A 
ATOM     27  C   UNL     1      -0.587   9.677  17.826  0.00  0.00    +0.000 A 
BRANCH  25  28
ATOM     28  O   UNL     1      -3.710  11.578  17.201  0.00  0.00    +0.000 OA
ATOM     29  C   UNL     1      -4.823  11.539  18.087  0.00  0.00    +0.000 C 
ENDBRANCH  25  28
ENDBRANCH  21  22
ENDBRANCH  19  21
ENDBRANCH  14  17
BRANCH   1  31
ATOM     30  C   UNL     1       7.496   7.783  17.218  0.00  0.00    +0.000 C 
ATOM     31  C   UNL     1       6.953   6.813  18.255  0.00  0.00    +0.000 C 
ENDBRANCH   1  31
TORSDOF 5
ENDMDL
MODEL 6
REMARK VINA RESULT:      -7.5      2.841      9.816
REMARK  Name = 
REMARK  7 active torsions:
REMARK  status: ('A' for Active; 'I' for Inactive)
REMARK    1  A    between atoms: C_1  and  C_2
REMARK    2  A    between atoms: C_2  and  N_3
REMARK    3  A    between atoms: C_16  and  C_17
REMARK    4  A    between atoms: N_19  and  C_20
REMARK    5  A    between atoms: C_20  and  C_21
REMARK    6  A    between atoms: C_24  and  O_25
REMARK    7  A    between atoms: O_25  and  C_26
REMARK                            x       y       z     vdW  Elec       q    Type
REMARK                         _______ _______ _______ _____ _____    ______ ____
ROOT
ATOM      1  N   UNL     1       4.093   6.064  18.551  0.00  0.00    +0.000 N 
ATOM      2  C   UNL     1       4.652   4.857  18.989  0.00  0.00    +0.000 C 
ATOM      3  O   UNL     1       5.864   4.649  19.050  0.00  0.00    +0.000 OA
ATOM      4  C   UNL     1       3.756   3.689  18.976  0.00  0.00    +0.000 A 
ATOM      5  C   UNL     1       3.994   2.701  18.008  0.00  0.00    +0.000 A 
ATOM      6  C   UNL     1       3.122   1.626  17.882  0.00  0.00    +0.000 A 
ATOM      7  C   UNL     1       2.017   1.533  18.728  0.00  0.00    +0.000 A 
ATOM      8  C   UNL     1       1.812   2.498  19.722  0.00  0.00    +0.000 A 
ATOM      9  C   UNL     1       2.688   3.581  19.856  0.00  0.00    +0.000 A 
ATOM     10  S   UNL     1       2.507   4.729  21.184  0.00  0.00    +0.000 S 
ATOM     11  C   UNL     1       2.248   6.258  20.290  0.00  0.00    +0.000 A 
ATOM     12  C   UNL     1       1.195   7.021  20.843  0.00  0.00    +0.000 A 
ATOM     13  C   UNL     1       0.852   8.267  20.327  0.00  0.00    +0.000 A 
ATOM     14  C   UNL     1       1.565   8.780  19.251  0.00  0.00    +0.000 A 
ATOM     15  C   UNL     1       2.591   8.017  18.673  0.00  0.00    +0.000 A 
ATOM     16  C   UNL     1       2.970   6.743  19.170  0.00  0.00    +0.000 A 
ENDROOT
BRANCH  14  17
ATOM     17  C   UNL     1       1.179  10.123  18.743  0.00  0.00    +0.000 C 
ATOM     18  O   UNL     1       1.969  10.755  18.056  0.00  0.00    +0.000 OA
ATOM     19  N   UNL     1      -0.091  10.571  19.048  0.00  0.00    +0.000 N 
ATOM     20  H   UNL     1      -0.749   9.960  19.509  0.00  0.00    +0.000 HD
BRANCH  19  21
ATOM     21  C   UNL     1      -0.585  11.840  18.557  0.00  0.00    +0.000 C 
BRANCH  21  22
ATOM     22  C   UNL     1      -2.051  11.757  18.222  0.00  0.00    +0.000 A 
ATOM     23  C   UNL     1      -3.016  12.096  19.179  0.00  0.00    +0.000 A 
ATOM     24  C   UNL     1      -4.377  11.978  18.885  0.00  0.00    +0.000 A 
ATOM     25  C   UNL     1      -4.799  11.533  17.630  0.00  0.00    +0.000 A 
ATOM     26  C   UNL     1      -3.843  11.201  16.670  0.00  0.00    +0.000 A 
ATOM     27  C   UNL     1      -2.480  11.309  16.965  0.00  0.00    +0.000 A 
BRANCH  25  28
ATOM     28  O   UNL     1      -6.151  11.397  17.486  0.00  0.00    +0.000 OA
ATOM     29  C   UNL     1      -6.878  11.013  18.647  0.00  0.00    +0.000 C 
ENDBRANCH  25  28
ENDBRANCH  21  22
ENDBRANCH  19  21
ENDBRANCH  14  17
BRANCH   1  31
ATOM     30  C   UNL     1       4.901   5.656  16.210  0.00  0.00    +0.000 C 
ATOM     31  C   UNL     1       4.771   6.618  17.380  0.00  0.00    +0.000 C 
ENDBRANCH   1  31
TORSDOF 5
ENDMDL
MODEL 7
REMARK VINA RESULT:      -7.5      3.046     10.060
REMARK  Name = 
REMARK  7 active torsions:
REMARK  status: ('A' for Active; 'I' for Inactive)
REMARK    1  A    between atoms: C_1  and  C_2
REMARK    2  A    between atoms: C_2  and  N_3
REMARK    3  A    between atoms: C_16  and  C_17
REMARK    4  A    between atoms: N_19  and  C_20
REMARK    5  A    between atoms: C_20  and  C_21
REMARK    6  A    between atoms: C_24  and  O_25
REMARK    7  A    between atoms: O_25  and  C_26
REMARK                            x       y       z     vdW  Elec       q    Type
REMARK                         _______ _______ _______ _____ _____    ______ ____
ROOT
ATOM      1  N   UNL     1       3.042   5.835  19.503  0.00  0.00    +0.000 N 
ATOM      2  C   UNL     1       3.917   4.980  18.822  0.00  0.00    +0.000 C 
ATOM      3  O   UNL     1       3.741   3.766  18.714  0.00  0.00    +0.000 OA
ATOM      4  C   UNL     1       5.277   5.499  18.592  0.00  0.00    +0.000 A 
ATOM      5  C   UNL     1       6.321   4.924  19.332  0.00  0.00    +0.000 A 
ATOM      6  C   UNL     1       7.609   5.439  19.233  0.00  0.00    +0.000 A 
ATOM      7  C   UNL     1       7.854   6.522  18.390  0.00  0.00    +0.000 A 
ATOM      8  C   UNL     1       6.816   7.061  17.620  0.00  0.00    +0.000 A 
ATOM      9  C   UNL     1       5.519   6.545  17.713  0.00  0.00    +0.000 A 
ATOM     10  S   UNL     1       4.235   7.134  16.655  0.00  0.00    +0.000 S 
ATOM     11  C   UNL     1       3.061   7.765  17.849  0.00  0.00    +0.000 A 
ATOM     12  C   UNL     1       2.549   9.027  17.471  0.00  0.00    +0.000 A 
ATOM     13  C   UNL     1       1.589   9.681  18.237  0.00  0.00    +0.000 A 
ATOM     14  C   UNL     1       1.113   9.079  19.394  0.00  0.00    +0.000 A 
ATOM     15  C   UNL     1       1.637   7.841  19.797  0.00  0.00    +0.000 A 
ATOM     16  C   UNL     1       2.617   7.143  19.043  0.00  0.00    +0.000 A 
ENDROOT
BRANCH  14  17
ATOM     17  C   UNL     1       0.073   9.802  20.173  0.00  0.00    +0.000 C 
ATOM     18  O   UNL     1      -0.329   9.325  21.225  0.00  0.00    +0.000 OA
ATOM     19  N   UNL     1      -0.357  11.015  19.674  0.00  0.00    +0.000 N 
ATOM     20  H   UNL     1       0.097  11.426  18.871  0.00  0.00    +0.000 HD
BRANCH  19  21
ATOM     21  C   UNL     1      -1.326  11.825  20.383  0.00  0.00    +0.000 C 
BRANCH  21  22
ATOM     22  C   UNL     1      -2.628  11.894  19.630  0.00  0.00    +0.000 A 
ATOM     23  C   UNL     1      -2.734  11.343  18.346  0.00  0.00    +0.000 A 
ATOM     24  C   UNL     1      -3.928  11.444  17.628  0.00  0.00    +0.000 A 
ATOM     25  C   UNL     1      -5.040  12.082  18.181  0.00  0.00    +0.000 A 
ATOM     26  C   UNL     1      -4.945  12.627  19.462  0.00  0.00    +0.000 A 
ATOM     27  C   UNL     1      -3.746  12.535  20.179  0.00  0.00    +0.000 A 
BRANCH  25  28
ATOM     28  O   UNL     1      -6.127  12.175  17.358  0.00  0.00    +0.000 OA
ATOM     29  C   UNL     1      -7.340  12.616  17.955  0.00  0.00    +0.000 C 
ENDBRANCH  25  28
ENDBRANCH  21  22
ENDBRANCH  19  21
ENDBRANCH  14  17
BRANCH   1  31
ATOM     30  C   UNL     1       1.303   4.422  20.634  0.00  0.00    +0.000 C 
ATOM     31  C   UNL     1       2.557   5.271  20.763  0.00  0.00    +0.000 C 
ENDBRANCH   1  31
TORSDOF 5
ENDMDL
MODEL 8
REMARK VINA RESULT:      -7.4      4.402     11.087
REMARK  Name = 
REMARK  7 active torsions:
REMARK  status: ('A' for Active; 'I' for Inactive)
REMARK    1  A    between atoms: C_1  and  C_2
REMARK    2  A    between atoms: C_2  and  N_3
REMARK    3  A    between atoms: C_16  and  C_17
REMARK    4  A    between atoms: N_19  and  C_20
REMARK    5  A    between atoms: C_20  and  C_21
REMARK    6  A    between atoms: C_24  and  O_25
REMARK    7  A    between atoms: O_25  and  C_26
REMARK                            x       y       z     vdW  Elec       q    Type
REMARK                         _______ _______ _______ _____ _____    ______ ____
ROOT
ATOM      1  N   UNL     1       6.328   5.194  17.825  0.00  0.00    +0.000 N 
ATOM      2  C   UNL     1       7.238   4.461  17.053  0.00  0.00    +0.000 C 
ATOM      3  O   UNL     1       8.373   4.168  17.431  0.00  0.00    +0.000 OA
ATOM      4  C   UNL     1       6.960   4.406  15.608  0.00  0.00    +0.000 A 
ATOM      5  C   UNL     1       7.812   5.127  14.758  0.00  0.00    +0.000 A 
ATOM      6  C   UNL     1       7.541   5.194  13.396  0.00  0.00    +0.000 A 
ATOM      7  C   UNL     1       6.425   4.536  12.883  0.00  0.00    +0.000 A 
ATOM      8  C   UNL     1       5.606   3.780  13.730  0.00  0.00    +0.000 A 
ATOM      9  C   UNL     1       5.875   3.705  15.101  0.00  0.00    +0.000 A 
ATOM     10  S   UNL     1       4.923   2.655  16.152  0.00  0.00    +0.000 S 
ATOM     11  C   UNL     1       4.240   3.841  17.305  0.00  0.00    +0.000 A 
ATOM     12  C   UNL     1       2.866   3.614  17.547  0.00  0.00    +0.000 A 
ATOM     13  C   UNL     1       2.147   4.395  18.444  0.00  0.00    +0.000 A 
ATOM     14  C   UNL     1       2.792   5.417  19.129  0.00  0.00    +0.000 A 
ATOM     15  C   UNL     1       4.148   5.674  18.874  0.00  0.00    +0.000 A 
ATOM     16  C   UNL     1       4.915   4.899  17.966  0.00  0.00    +0.000 A 
ENDROOT
BRANCH  14  17
ATOM     17  C   UNL     1       1.991   6.216  20.094  0.00  0.00    +0.000 C 
ATOM     18  O   UNL     1       1.200   5.647  20.834  0.00  0.00    +0.000 OA
ATOM     19  N   UNL     1       2.222   7.576  20.130  0.00  0.00    +0.000 N 
ATOM     20  H   UNL     1       2.975   7.980  19.591  0.00  0.00    +0.000 HD
BRANCH  19  21
ATOM     21  C   UNL     1       1.535   8.437  21.071  0.00  0.00    +0.000 C 
BRANCH  21  22
ATOM     22  C   UNL     1       0.656   9.428  20.356  0.00  0.00    +0.000 A 
ATOM     23  C   UNL     1      -0.228  10.241  21.078  0.00  0.00    +0.000 A 
ATOM     24  C   UNL     1      -1.076  11.130  20.413  0.00  0.00    +0.000 A 
ATOM     25  C   UNL     1      -1.050  11.234  19.020  0.00  0.00    +0.000 A 
ATOM     26  C   UNL     1      -0.167  10.433  18.295  0.00  0.00    +0.000 A 
ATOM     27  C   UNL     1       0.677   9.534  18.959  0.00  0.00    +0.000 A 
BRANCH  25  28
ATOM     28  O   UNL     1      -1.970  12.089  18.483  0.00  0.00    +0.000 OA
ATOM     29  C   UNL     1      -2.979  11.504  17.668  0.00  0.00    +0.000 C 
ENDBRANCH  25  28
ENDBRANCH  21  22
ENDBRANCH  19  21
ENDBRANCH  14  17
BRANCH   1  31
ATOM     30  C   UNL     1       7.433   7.438  17.611  0.00  0.00    +0.000 C 
ATOM     31  C   UNL     1       6.947   6.322  18.521  0.00  0.00    +0.000 C 
ENDBRANCH   1  31
TORSDOF 5
ENDMDL
MODEL 9
REMARK VINA RESULT:      -7.4      3.728     10.284
REMARK  Name = 
REMARK  7 active torsions:
REMARK  status: ('A' for Active; 'I' for Inactive)
REMARK    1  A    between atoms: C_1  and  C_2
REMARK    2  A    between atoms: C_2  and  N_3
REMARK    3  A    between atoms: C_16  and  C_17
REMARK    4  A    between atoms: N_19  and  C_20
REMARK    5  A    between atoms: C_20  and  C_21
REMARK    6  A    between atoms: C_24  and  O_25
REMARK    7  A    between atoms: O_25  and  C_26
REMARK                            x       y       z     vdW  Elec       q    Type
REMARK                         _______ _______ _______ _____ _____    ______ ____
ROOT
ATOM      1  N   UNL     1       3.012   5.395  19.578  0.00  0.00    +0.000 N 
ATOM      2  C   UNL     1       3.801   4.778  18.600  0.00  0.00    +0.000 C 
ATOM      3  O   UNL     1       3.665   3.604  18.255  0.00  0.00    +0.000 OA
ATOM      4  C   UNL     1       5.078   5.442  18.288  0.00  0.00    +0.000 A 
ATOM      5  C   UNL     1       6.256   4.811  18.715  0.00  0.00    +0.000 A 
ATOM      6  C   UNL     1       7.484   5.438  18.538  0.00  0.00    +0.000 A 
ATOM      7  C   UNL     1       7.536   6.691  17.928  0.00  0.00    +0.000 A 
ATOM      8  C   UNL     1       6.361   7.293  17.463  0.00  0.00    +0.000 A 
ATOM      9  C   UNL     1       5.122   6.666  17.635  0.00  0.00    +0.000 A 
ATOM     10  S   UNL     1       3.655   7.359  16.941  0.00  0.00    +0.000 S 
ATOM     11  C   UNL     1       2.667   7.626  18.409  0.00  0.00    +0.000 A 
ATOM     12  C   UNL     1       2.041   8.894  18.401  0.00  0.00    +0.000 A 
ATOM     13  C   UNL     1       1.193   9.291  19.429  0.00  0.00    +0.000 A 
ATOM     14  C   UNL     1       0.943   8.422  20.483  0.00  0.00    +0.000 A 
ATOM     15  C   UNL     1       1.583   7.173  20.518  0.00  0.00    +0.000 A 
ATOM     16  C   UNL     1       2.456   6.732  19.489  0.00  0.00    +0.000 A 
ENDROOT
BRANCH  14  17
ATOM     17  C   UNL     1       0.014   8.878  21.551  0.00  0.00    +0.000 C 
ATOM     18  O   UNL     1      -0.749   8.073  22.066  0.00  0.00    +0.000 OA
ATOM     19  N   UNL     1       0.097  10.201  21.936  0.00  0.00    +0.000 N 
ATOM     20  H   UNL     1       0.830  10.792  21.570  0.00  0.00    +0.000 HD
BRANCH  19  21
ATOM     21  C   UNL     1      -0.723  10.733  23.004  0.00  0.00    +0.000 C 
BRANCH  21  22
ATOM     22  C   UNL     1      -1.421  11.995  22.572  0.00  0.00    +0.000 A 
ATOM     23  C   UNL     1      -0.854  12.818  21.589  0.00  0.00    +0.000 A 
ATOM     24  C   UNL     1      -1.477  14.011  21.219  0.00  0.00    +0.000 A 
ATOM     25  C   UNL     1      -2.681  14.401  21.810  0.00  0.00    +0.000 A 
ATOM     26  C   UNL     1      -3.255  13.584  22.785  0.00  0.00    +0.000 A 
ATOM     27  C   UNL     1      -2.627  12.392  23.164  0.00  0.00    +0.000 A 
BRANCH  25  28
ATOM     28  O   UNL     1      -3.158  15.618  21.413  0.00  0.00    +0.000 OA
ATOM     29  C   UNL     1      -2.309  16.388  20.570  0.00  0.00    +0.000 C 
ENDBRANCH  25  28
ENDBRANCH  21  22
ENDBRANCH  19  21
ENDBRANCH  14  17
BRANCH   1  31
ATOM     30  C   UNL     1       1.430   3.822  20.727  0.00  0.00    +0.000 C 
ATOM     31  C   UNL     1       2.769   4.542  20.741  0.00  0.00    +0.000 C 
ENDBRANCH   1  31
TORSDOF 5
ENDMDL
