MODEL 1
REMARK VINA RESULT:      -8.3      0.000      0.000
REMARK  Name = 
REMARK  4 active torsions:
REMARK  status: ('A' for Active; 'I' for Inactive)
REMARK    1  A    between atoms: C_1  and  C_2
REMARK    2  A    between atoms: C_7  and  C_8
REMARK    3  A    between atoms: C_13  and  O_14
REMARK    4  A    between atoms: C_20  and  C_21
REMARK                            x       y       z     vdW  Elec       q    Type
REMARK                         _______ _______ _______ _____ _____    ______ ____
ROOT
ATOM      1  C   UNL     1       0.248  11.253  18.518  0.00  0.00    +0.000 C 
ATOM      2  C   UNL     1       0.592   9.822  18.922  0.00  0.00    +0.000 C 
ATOM      3  C   UNL     1       1.847   9.393  18.164  0.00  0.00    +0.000 C 
ATOM      4  C   UNL     1       2.354   8.054  18.616  0.00  0.00    +0.000 A 
ATOM      5  C   UNL     1       3.258   7.392  17.789  0.00  0.00    +0.000 A 
ATOM      6  C   UNL     1       3.796   6.138  18.123  0.00  0.00    +0.000 A 
ATOM      7  C   UNL     1       4.711   5.446  17.298  0.00  0.00    +0.000 A 
ATOM      8  C   UNL     1       5.193   4.210  17.741  0.00  0.00    +0.000 A 
ATOM      9  C   UNL     1       4.752   3.723  18.951  0.00  0.00    +0.000 A 
ATOM     10  N   UNL     1       3.880   4.362  19.745  0.00  0.00    +0.000 NA
ATOM     11  C   UNL     1       3.396   5.557  19.343  0.00  0.00    +0.000 A 
ATOM     12  C   UNL     1       2.493   6.243  20.169  0.00  0.00    +0.000 A 
ATOM     13  C   UNL     1       1.965   7.497  19.834  0.00  0.00    +0.000 A 
ATOM     14  N   UNL     1       1.070   8.176  20.653  0.00  0.00    +0.000 N 
ATOM     15  C   UNL     1       0.860   9.611  20.425  0.00  0.00    +0.000 C 
ATOM     16  C   UNL     1      -0.281  10.118  21.302  0.00  0.00    +0.000 C 
ATOM     17  H   UNL     1       0.772   7.757  21.526  0.00  0.00    +0.000 HD
ENDROOT
BRANCH   7  18
ATOM     18  C   UNL     1       5.232   5.924  15.960  0.00  0.00    +0.000 C 
ATOM     19  F   UNL     1       4.660   7.036  15.436  0.00  0.00    +0.000 F 
ATOM     20  F   UNL     1       6.566   6.200  16.014  0.00  0.00    +0.000 F 
ATOM     21  F   UNL     1       5.097   4.965  15.000  0.00  0.00    +0.000 F 
ENDBRANCH   7  18
BRANCH   9  22
ATOM     22  O   UNL     1       5.200   2.525  19.424  0.00  0.00    +0.000 OA
ATOM     23  H   UNL     1       4.438   2.008  19.729  0.00  0.00    +0.000 HD
ENDBRANCH   9  22
TORSDOF 2
ENDMDL
MODEL 2
REMARK VINA RESULT:      -8.1      3.189      3.934
REMARK  Name = 
REMARK  4 active torsions:
REMARK  status: ('A' for Active; 'I' for Inactive)
REMARK    1  A    between atoms: C_1  and  C_2
REMARK    2  A    between atoms: C_7  and  C_8
REMARK    3  A    between atoms: C_13  and  O_14
REMARK    4  A    between atoms: C_20  and  C_21
REMARK                            x       y       z     vdW  Elec       q    Type
REMARK                         _______ _______ _______ _____ _____    ______ ____
ROOT
ATOM      1  C   UNL     1      -0.134  10.392  21.911  0.00  0.00    +0.000 C 
ATOM      2  C   UNL     1       0.870   9.696  20.997  0.00  0.00    +0.000 C 
ATOM      3  C   UNL     1       0.761   8.187  21.216  0.00  0.00    +0.000 C 
ATOM      4  C   UNL     1       1.600   7.410  20.243  0.00  0.00    +0.000 A 
ATOM      5  C   UNL     1       1.871   6.078  20.544  0.00  0.00    +0.000 A 
ATOM      6  C   UNL     1       2.643   5.263  19.698  0.00  0.00    +0.000 A 
ATOM      7  C   UNL     1       2.933   3.911  19.985  0.00  0.00    +0.000 A 
ATOM      8  C   UNL     1       3.698   3.191  19.060  0.00  0.00    +0.000 A 
ATOM      9  C   UNL     1       4.133   3.830  17.922  0.00  0.00    +0.000 A 
ATOM     10  N   UNL     1       3.871   5.114  17.635  0.00  0.00    +0.000 NA
ATOM     11  C   UNL     1       3.137   5.835  18.509  0.00  0.00    +0.000 A 
ATOM     12  C   UNL     1       2.845   7.176  18.217  0.00  0.00    +0.000 A 
ATOM     13  C   UNL     1       2.071   7.982  19.062  0.00  0.00    +0.000 A 
ATOM     14  N   UNL     1       1.782   9.311  18.770  0.00  0.00    +0.000 N 
ATOM     15  C   UNL     1       0.680   9.964  19.490  0.00  0.00    +0.000 C 
ATOM     16  C   UNL     1       0.648  11.452  19.158  0.00  0.00    +0.000 C 
ATOM     17  H   UNL     1       2.144   9.729  17.923  0.00  0.00    +0.000 HD
ENDROOT
BRANCH   7  18
ATOM     18  C   UNL     1       2.488   3.151  21.215  0.00  0.00    +0.000 C 
ATOM     19  F   UNL     1       2.306   3.869  22.352  0.00  0.00    +0.000 F 
ATOM     20  F   UNL     1       1.304   2.510  21.005  0.00  0.00    +0.000 F 
ATOM     21  F   UNL     1       3.378   2.173  21.548  0.00  0.00    +0.000 F 
ENDBRANCH   7  18
BRANCH   9  22
ATOM     22  O   UNL     1       4.875   3.166  16.990  0.00  0.00    +0.000 OA
ATOM     23  H   UNL     1       5.271   2.385  17.407  0.00  0.00    +0.000 HD
ENDBRANCH   9  22
TORSDOF 2
ENDMDL
MODEL 3
REMARK VINA RESULT:      -8.0      4.590      7.128
REMARK  Name = 
REMARK  4 active torsions:
REMARK  status: ('A' for Active; 'I' for Inactive)
REMARK    1  A    between atoms: C_1  and  C_2
REMARK    2  A    between atoms: C_7  and  C_8
REMARK    3  A    between atoms: C_13  and  O_14
REMARK    4  A    between atoms: C_20  and  C_21
REMARK                            x       y       z     vdW  Elec       q    Type
REMARK                         _______ _______ _______ _____ _____    ______ ____
ROOT
ATOM      1  C   UNL     1       2.752   2.598  20.679  0.00  0.00    +0.000 C 
ATOM      2  C   UNL     1       2.446   3.851  19.864  0.00  0.00    +0.000 C 
ATOM      3  C   UNL     1       2.188   5.007  20.830  0.00  0.00    +0.000 C 
ATOM      4  C   UNL     1       2.035   6.319  20.116  0.00  0.00    +0.000 A 
ATOM      5  C   UNL     1       1.456   7.373  20.820  0.00  0.00    +0.000 A 
ATOM      6  C   UNL     1       1.271   8.642  20.245  0.00  0.00    +0.000 A 
ATOM      7  C   UNL     1       0.684   9.724  20.938  0.00  0.00    +0.000 A 
ATOM      8  C   UNL     1       0.566  10.947  20.269  0.00  0.00    +0.000 A 
ATOM      9  C   UNL     1       1.021  11.040  18.974  0.00  0.00    +0.000 A 
ATOM     10  N   UNL     1       1.577  10.023  18.299  0.00  0.00    +0.000 NA
ATOM     11  C   UNL     1       1.702   8.829  18.917  0.00  0.00    +0.000 A 
ATOM     12  C   UNL     1       2.292   7.759  18.227  0.00  0.00    +0.000 A 
ATOM     13  C   UNL     1       2.480   6.498  18.807  0.00  0.00    +0.000 A 
ATOM     14  N   UNL     1       3.065   5.438  18.123  0.00  0.00    +0.000 N 
ATOM     15  C   UNL     1       3.561   4.292  18.895  0.00  0.00    +0.000 C 
ATOM     16  C   UNL     1       3.996   3.174  17.952  0.00  0.00    +0.000 C 
ATOM     17  H   UNL     1       3.367   5.566  17.165  0.00  0.00    +0.000 HD
ENDROOT
BRANCH   7  18
ATOM     18  C   UNL     1       0.163   9.688  22.358  0.00  0.00    +0.000 C 
ATOM     19  F   UNL     1       1.056   9.398  23.336  0.00  0.00    +0.000 F 
ATOM     20  F   UNL     1      -0.386  10.882  22.718  0.00  0.00    +0.000 F 
ATOM     21  F   UNL     1      -0.836   8.770  22.501  0.00  0.00    +0.000 F 
ENDBRANCH   7  18
BRANCH   9  22
ATOM     22  O   UNL     1       0.932  12.215  18.286  0.00  0.00    +0.000 OA
ATOM     23  H   UNL     1       0.743  12.016  17.356  0.00  0.00    +0.000 HD
ENDBRANCH   9  22
TORSDOF 2
ENDMDL
MODEL 4
REMARK VINA RESULT:      -7.8      3.216      4.067
REMARK  Name = 
REMARK  4 active torsions:
REMARK  status: ('A' for Active; 'I' for Inactive)
REMARK    1  A    between atoms: C_1  and  C_2
REMARK    2  A    between atoms: C_7  and  C_8
REMARK    3  A    between atoms: C_13  and  O_14
REMARK    4  A    between atoms: C_20  and  C_21
REMARK                            x       y       z     vdW  Elec       q    Type
REMARK                         _______ _______ _______ _____ _____    ______ ____
ROOT
ATOM      1  C   UNL     1      -0.863  10.481  23.075  0.00  0.00    +0.000 C 
ATOM      2  C   UNL     1       0.159  10.041  22.031  0.00  0.00    +0.000 C 
ATOM      3  C   UNL     1       0.139   8.515  21.944  0.00  0.00    +0.000 C 
ATOM      4  C   UNL     1       0.999   7.999  20.827  0.00  0.00    +0.000 A 
ATOM      5  C   UNL     1       1.350   6.651  20.853  0.00  0.00    +0.000 A 
ATOM      6  C   UNL     1       2.147   6.068  19.854  0.00  0.00    +0.000 A 
ATOM      7  C   UNL     1       2.519   4.705  19.861  0.00  0.00    +0.000 A 
ATOM      8  C   UNL     1       3.302   4.230  18.804  0.00  0.00    +0.000 A 
ATOM      9  C   UNL     1       3.678   5.108  17.813  0.00  0.00    +0.000 A 
ATOM     10  N   UNL     1       3.340   6.406  17.792  0.00  0.00    +0.000 NA
ATOM     11  C   UNL     1       2.585   6.894  18.800  0.00  0.00    +0.000 A 
ATOM     12  C   UNL     1       2.214   8.246  18.785  0.00  0.00    +0.000 A 
ATOM     13  C   UNL     1       1.413   8.821  19.780  0.00  0.00    +0.000 A 
ATOM     14  N   UNL     1       1.045  10.162  19.764  0.00  0.00    +0.000 N 
ATOM     15  C   UNL     1      -0.076  10.592  20.610  0.00  0.00    +0.000 C 
ATOM     16  C   UNL     1      -0.197  12.113  20.583  0.00  0.00    +0.000 C 
ATOM     17  H   UNL     1       1.366  10.761  19.014  0.00  0.00    +0.000 HD
ENDROOT
BRANCH   7  18
ATOM     18  C   UNL     1       2.142   3.690  20.918  0.00  0.00    +0.000 C 
ATOM     19  F   UNL     1       0.832   3.351  21.010  0.00  0.00    +0.000 F 
ATOM     20  F   UNL     1       2.803   2.512  20.737  0.00  0.00    +0.000 F 
ATOM     21  F   UNL     1       2.490   4.115  22.166  0.00  0.00    +0.000 F 
ENDBRANCH   7  18
BRANCH   9  22
ATOM     22  O   UNL     1       4.437   4.688  16.761  0.00  0.00    +0.000 OA
ATOM     23  H   UNL     1       3.987   4.931  15.937  0.00  0.00    +0.000 HD
ENDBRANCH   9  22
TORSDOF 2
ENDMDL
MODEL 5
REMARK VINA RESULT:      -7.7      2.848      3.572
REMARK  Name = 
REMARK  4 active torsions:
REMARK  status: ('A' for Active; 'I' for Inactive)
REMARK    1  A    between atoms: C_1  and  C_2
REMARK    2  A    between atoms: C_7  and  C_8
REMARK    3  A    between atoms: C_13  and  O_14
REMARK    4  A    between atoms: C_20  and  C_21
REMARK                            x       y       z     vdW  Elec       q    Type
REMARK                         _______ _______ _______ _____ _____    ______ ____
ROOT
ATOM      1  C   UNL     1       0.016   8.928  22.233  0.00  0.00    +0.000 C 
ATOM      2  C   UNL     1       1.078   8.642  21.177  0.00  0.00    +0.000 C 
ATOM      3  C   UNL     1       1.104   7.137  20.910  0.00  0.00    +0.000 C 
ATOM      4  C   UNL     1       2.009   6.779  19.767  0.00  0.00    +0.000 A 
ATOM      5  C   UNL     1       2.398   5.447  19.644  0.00  0.00    +0.000 A 
ATOM      6  C   UNL     1       3.239   5.007  18.608  0.00  0.00    +0.000 A 
ATOM      7  C   UNL     1       3.649   3.663  18.466  0.00  0.00    +0.000 A 
ATOM      8  C   UNL     1       4.475   3.337  17.384  0.00  0.00    +0.000 A 
ATOM      9  C   UNL     1       4.852   4.336  16.516  0.00  0.00    +0.000 A 
ATOM     10  N   UNL     1       4.477   5.618  16.638  0.00  0.00    +0.000 NA
ATOM     11  C   UNL     1       3.681   5.963  17.672  0.00  0.00    +0.000 A 
ATOM     12  C   UNL     1       3.271   7.298  17.806  0.00  0.00    +0.000 A 
ATOM     13  C   UNL     1       2.428   7.730  18.837  0.00  0.00    +0.000 A 
ATOM     14  N   UNL     1       2.021   9.053  18.968  0.00  0.00    +0.000 N 
ATOM     15  C   UNL     1       0.866   9.352  19.825  0.00  0.00    +0.000 C 
ATOM     16  C   UNL     1       0.701  10.861  19.973  0.00  0.00    +0.000 C 
ATOM     17  H   UNL     1       2.346   9.745  18.304  0.00  0.00    +0.000 HD
ENDROOT
BRANCH   7  18
ATOM     18  C   UNL     1       3.273   2.521  19.384  0.00  0.00    +0.000 C 
ATOM     19  F   UNL     1       1.952   2.328  19.621  0.00  0.00    +0.000 F 
ATOM     20  F   UNL     1       3.728   1.327  18.907  0.00  0.00    +0.000 F 
ATOM     21  F   UNL     1       3.841   2.661  20.615  0.00  0.00    +0.000 F 
ENDBRANCH   7  18
BRANCH   9  22
ATOM     22  O   UNL     1       5.652   4.063  15.445  0.00  0.00    +0.000 OA
ATOM     23  H   UNL     1       6.249   4.814  15.304  0.00  0.00    +0.000 HD
ENDBRANCH   9  22
TORSDOF 2
ENDMDL
MODEL 6
REMARK VINA RESULT:      -7.7      4.712      7.386
REMARK  Name = 
REMARK  4 active torsions:
REMARK  status: ('A' for Active; 'I' for Inactive)
REMARK    1  A    between atoms: C_1  and  C_2
REMARK    2  A    between atoms: C_7  and  C_8
REMARK    3  A    between atoms: C_13  and  O_14
REMARK    4  A    between atoms: C_20  and  C_21
REMARK                            x       y       z     vdW  Elec       q    Type
REMARK                         _______ _______ _______ _____ _____    ______ ____
ROOT
ATOM      1  C   UNL     1       4.146   4.248  19.018  0.00  0.00    +0.000 C 
ATOM      2  C   UNL     1       3.374   5.483  18.563  0.00  0.00    +0.000 C 
ATOM      3  C   UNL     1       2.875   6.226  19.801  0.00  0.00    +0.000 C 
ATOM      4  C   UNL     1       2.239   7.542  19.456  0.00  0.00    +0.000 A 
ATOM      5  C   UNL     1       1.441   8.147  20.423  0.00  0.00    +0.000 A 
ATOM      6  C   UNL     1       0.805   9.380  20.202  0.00  0.00    +0.000 A 
ATOM      7  C   UNL     1      -0.013  10.011  21.166  0.00  0.00    +0.000 A 
ATOM      8  C   UNL     1      -0.581  11.246  20.840  0.00  0.00    +0.000 A 
ATOM      9  C   UNL     1      -0.325  11.787  19.601  0.00  0.00    +0.000 A 
ATOM     10  N   UNL     1       0.444  11.201  18.671  0.00  0.00    +0.000 NA
ATOM     11  C   UNL     1       1.005  10.006  18.956  0.00  0.00    +0.000 A 
ATOM     12  C   UNL     1       1.821   9.387  17.997  0.00  0.00    +0.000 A 
ATOM     13  C   UNL     1       2.458   8.161  18.226  0.00  0.00    +0.000 A 
ATOM     14  N   UNL     1       3.267   7.548  17.275  0.00  0.00    +0.000 N 
ATOM     15  C   UNL     1       4.180   6.484  17.711  0.00  0.00    +0.000 C 
ATOM     16  C   UNL     1       4.836   5.829  16.499  0.00  0.00    +0.000 C 
ATOM     17  H   UNL     1       3.405   7.990  16.375  0.00  0.00    +0.000 HD
ENDROOT
BRANCH   7  18
ATOM     18  C   UNL     1      -0.336   9.471  22.542  0.00  0.00    +0.000 C 
ATOM     19  F   UNL     1      -1.129  10.233  23.334  0.00  0.00    +0.000 F 
ATOM     20  F   UNL     1      -0.961   8.261  22.469  0.00  0.00    +0.000 F 
ATOM     21  F   UNL     1       0.795   9.252  23.272  0.00  0.00    +0.000 F 
ENDBRANCH   7  18
BRANCH   9  22
ATOM     22  O   UNL     1      -0.854  12.992  19.244  0.00  0.00    +0.000 OA
ATOM     23  H   UNL     1      -0.711  13.124  18.293  0.00  0.00    +0.000 HD
ENDBRANCH   9  22
TORSDOF 2
ENDMDL
MODEL 7
REMARK VINA RESULT:      -7.7      3.672      6.684
REMARK  Name = 
REMARK  4 active torsions:
REMARK  status: ('A' for Active; 'I' for Inactive)
REMARK    1  A    between atoms: C_1  and  C_2
REMARK    2  A    between atoms: C_7  and  C_8
REMARK    3  A    between atoms: C_13  and  O_14
REMARK    4  A    between atoms: C_20  and  C_21
REMARK                            x       y       z     vdW  Elec       q    Type
REMARK                         _______ _______ _______ _____ _____    ______ ____
ROOT
ATOM      1  C   UNL     1       6.524   2.990  12.601  0.00  0.00    +0.000 C 
ATOM      2  C   UNL     1       5.965   4.012  13.587  0.00  0.00    +0.000 C 
ATOM      3  C   UNL     1       5.246   3.262  14.708  0.00  0.00    +0.000 C 
ATOM      4  C   UNL     1       4.800   4.179  15.810  0.00  0.00    +0.000 A 
ATOM      5  C   UNL     1       3.843   3.700  16.701  0.00  0.00    +0.000 A 
ATOM      6  C   UNL     1       3.363   4.476  17.769  0.00  0.00    +0.000 A 
ATOM      7  C   UNL     1       2.390   4.013  18.683  0.00  0.00    +0.000 A 
ATOM      8  C   UNL     1       1.999   4.868  19.719  0.00  0.00    +0.000 A 
ATOM      9  C   UNL     1       2.572   6.117  19.797  0.00  0.00    +0.000 A 
ATOM     10  N   UNL     1       3.492   6.576  18.936  0.00  0.00    +0.000 NA
ATOM     11  C   UNL     1       3.889   5.774  17.925  0.00  0.00    +0.000 A 
ATOM     12  C   UNL     1       4.859   6.236  17.023  0.00  0.00    +0.000 A 
ATOM     13  C   UNL     1       5.339   5.455  15.964  0.00  0.00    +0.000 A 
ATOM     14  N   UNL     1       6.302   5.914  15.072  0.00  0.00    +0.000 N 
ATOM     15  C   UNL     1       7.013   4.934  14.241  0.00  0.00    +0.000 C 
ATOM     16  C   UNL     1       7.885   5.653  13.215  0.00  0.00    +0.000 C 
ATOM     17  H   UNL     1       6.674   6.850  15.173  0.00  0.00    +0.000 HD
ENDROOT
BRANCH   7  18
ATOM     18  C   UNL     1       1.722   2.656  18.652  0.00  0.00    +0.000 C 
ATOM     19  F   UNL     1       2.207   1.748  17.769  0.00  0.00    +0.000 F 
ATOM     20  F   UNL     1       1.786   2.040  19.867  0.00  0.00    +0.000 F 
ATOM     21  F   UNL     1       0.393   2.759  18.366  0.00  0.00    +0.000 F 
ENDBRANCH   7  18
BRANCH   9  22
ATOM     22  O   UNL     1       2.225   6.982  20.793  0.00  0.00    +0.000 OA
ATOM     23  H   UNL     1       2.297   7.888  20.456  0.00  0.00    +0.000 HD
ENDBRANCH   9  22
TORSDOF 2
ENDMDL
MODEL 8
REMARK VINA RESULT:      -7.6      4.316      6.819
REMARK  Name = 
REMARK  4 active torsions:
REMARK  status: ('A' for Active; 'I' for Inactive)
REMARK    1  A    between atoms: C_1  and  C_2
REMARK    2  A    between atoms: C_7  and  C_8
REMARK    3  A    between atoms: C_13  and  O_14
REMARK    4  A    between atoms: C_20  and  C_21
REMARK                            x       y       z     vdW  Elec       q    Type
REMARK                         _______ _______ _______ _____ _____    ______ ____
ROOT
ATOM      1  C   UNL     1       2.095   2.122  21.493  0.00  0.00    +0.000 C 
ATOM      2  C   UNL     1       2.094   3.233  20.448  0.00  0.00    +0.000 C 
ATOM      3  C   UNL     1       1.896   4.570  21.161  0.00  0.00    +0.000 C 
ATOM      4  C   UNL     1       2.041   5.738  20.228  0.00  0.00    +0.000 A 
ATOM      5  C   UNL     1       1.546   6.968  20.653  0.00  0.00    +0.000 A 
ATOM      6  C   UNL     1       1.636   8.124  19.858  0.00  0.00    +0.000 A 
ATOM      7  C   UNL     1       1.139   9.381  20.266  0.00  0.00    +0.000 A 
ATOM      8  C   UNL     1       1.299  10.466  19.398  0.00  0.00    +0.000 A 
ATOM      9  C   UNL     1       1.927  10.260  18.190  0.00  0.00    +0.000 A 
ATOM     10  N   UNL     1       2.401   9.073  17.784  0.00  0.00    +0.000 NA
ATOM     11  C   UNL     1       2.259   8.007  18.600  0.00  0.00    +0.000 A 
ATOM     12  C   UNL     1       2.761   6.761  18.193  0.00  0.00    +0.000 A 
ATOM     13  C   UNL     1       2.674   5.614  18.992  0.00  0.00    +0.000 A 
ATOM     14  N   UNL     1       3.172   4.380  18.588  0.00  0.00    +0.000 N 
ATOM     15  C   UNL     1       3.380   3.340  19.604  0.00  0.00    +0.000 C 
ATOM     16  C   UNL     1       3.755   2.022  18.934  0.00  0.00    +0.000 C 
ATOM     17  H   UNL     1       3.611   4.290  17.680  0.00  0.00    +0.000 HD
ENDROOT
BRANCH   7  18
ATOM     18  C   UNL     1       0.439   9.674  21.575  0.00  0.00    +0.000 C 
ATOM     19  F   UNL     1       1.162   9.515  22.711  0.00  0.00    +0.000 F 
ATOM     20  F   UNL     1      -0.018  10.957  21.620  0.00  0.00    +0.000 F 
ATOM     21  F   UNL     1      -0.664   8.889  21.739  0.00  0.00    +0.000 F 
ENDBRANCH   7  18
BRANCH   9  22
ATOM     22  O   UNL     1       2.110  11.290  17.316  0.00  0.00    +0.000 OA
ATOM     23  H   UNL     1       3.060  11.473  17.246  0.00  0.00    +0.000 HD
ENDBRANCH   9  22
TORSDOF 2
ENDMDL
MODEL 9
REMARK VINA RESULT:      -7.2      4.166      6.845
REMARK  Name = 
REMARK  4 active torsions:
REMARK  status: ('A' for Active; 'I' for Inactive)
REMARK    1  A    between atoms: C_1  and  C_2
REMARK    2  A    between atoms: C_7  and  C_8
REMARK    3  A    between atoms: C_13  and  O_14
REMARK    4  A    between atoms: C_20  and  C_21
REMARK                            x       y       z     vdW  Elec       q    Type
REMARK                         _______ _______ _______ _____ _____    ______ ____
ROOT
ATOM      1  C   UNL     1       4.502   6.336  16.585  0.00  0.00    +0.000 C 
ATOM      2  C   UNL     1       3.899   6.779  17.915  0.00  0.00    +0.000 C 
ATOM      3  C   UNL     1       2.851   7.856  17.638  0.00  0.00    +0.000 C 
ATOM      4  C   UNL     1       2.089   8.239  18.874  0.00  0.00    +0.000 A 
ATOM      5  C   UNL     1       1.369   9.431  18.846  0.00  0.00    +0.000 A 
ATOM      6  C   UNL     1       0.620   9.877  19.948  0.00  0.00    +0.000 A 
ATOM      7  C   UNL     1      -0.114  11.083  19.943  0.00  0.00    +0.000 A 
ATOM      8  C   UNL     1      -0.838  11.418  21.093  0.00  0.00    +0.000 A 
ATOM      9  C   UNL     1      -0.797  10.565  22.172  0.00  0.00    +0.000 A 
ATOM     10  N   UNL     1      -0.102   9.418  22.196  0.00  0.00    +0.000 NA
ATOM     11  C   UNL     1       0.608   9.069  21.102  0.00  0.00    +0.000 A 
ATOM     12  C   UNL     1       1.330   7.867  21.108  0.00  0.00    +0.000 A 
ATOM     13  C   UNL     1       2.071   7.424  20.005  0.00  0.00    +0.000 A 
ATOM     14  N   UNL     1       2.786   6.231  20.013  0.00  0.00    +0.000 N 
ATOM     15  C   UNL     1       3.215   5.661  18.729  0.00  0.00    +0.000 C 
ATOM     16  C   UNL     1       4.130   4.464  18.967  0.00  0.00    +0.000 C 
ATOM     17  H   UNL     1       2.788   5.653  20.844  0.00  0.00    +0.000 HD
ENDROOT
BRANCH   7  18
ATOM     18  C   UNL     1      -0.199  12.064  18.794  0.00  0.00    +0.000 C 
ATOM     19  F   UNL     1       0.972  12.503  18.270  0.00  0.00    +0.000 F 
ATOM     20  F   UNL     1      -0.887  11.540  17.740  0.00  0.00    +0.000 F 
ATOM     21  F   UNL     1      -0.878  13.192  19.148  0.00  0.00    +0.000 F 
ENDBRANCH   7  18
BRANCH   9  22
ATOM     22  O   UNL     1      -1.492  10.848  23.311  0.00  0.00    +0.000 OA
ATOM     23  H   UNL     1      -0.918  11.356  23.906  0.00  0.00    +0.000 HD
ENDBRANCH   9  22
TORSDOF 2
ENDMDL
