MODEL 1
REMARK VINA RESULT:      -7.7      0.000      0.000
REMARK  Name = 
REMARK  9 active torsions:
REMARK  status: ('A' for Active; 'I' for Inactive)
REMARK    1  A    between atoms: C_1  and  C_2
REMARK    2  A    between atoms: C_2  and  O_3
REMARK    3  A    between atoms: O_3  and  C_4
REMARK    4  A    between atoms: C_7  and  N_8
REMARK    5  A    between atoms: C_9  and  C_11
REMARK    6  A    between atoms: C_13  and  S_14
REMARK    7  A    between atoms: S_14  and  C_17
REMARK    8  A    between atoms: C_17  and  C_18
REMARK    9  A    between atoms: C_23  and  C_24
REMARK                            x       y       z     vdW  Elec       q    Type
REMARK                         _______ _______ _______ _____ _____    ______ ____
ROOT
ATOM      1  C   UNL     1       3.384   4.960  19.553  0.00  0.00    +0.000 A 
ATOM      2  N   UNL     1       4.646   5.479  19.580  0.00  0.00    +0.000 NA
ATOM      3  C   UNL     1       5.594   4.652  19.102  0.00  0.00    +0.000 A 
ATOM      4  N   UNL     1       5.417   3.413  18.607  0.00  0.00    +0.000 NA
ATOM      5  C   UNL     1       4.141   2.976  18.589  0.00  0.00    +0.000 A 
ATOM      6  C   UNL     1       3.066   3.707  19.050  0.00  0.00    +0.000 A 
ATOM      7 CL   UNL     1       1.487   3.043  18.894  0.00  0.00    +0.000 Cl
ENDROOT
BRANCH   1   9
ATOM      8  N   UNL     1       2.526   7.208  19.863  0.00  0.00    +0.000 N 
ATOM      9  C   UNL     1       2.334   5.859  20.126  0.00  0.00    +0.000 C 
ATOM     10  O   UNL     1       1.425   5.363  20.778  0.00  0.00    +0.000 OA
ATOM     11  H   UNL     1       3.378   7.456  19.369  0.00  0.00    +0.000 HD
BRANCH   8  15
ATOM     12  C   UNL     1      -0.115  10.388  20.765  0.00  0.00    +0.000 A 
ATOM     13  C   UNL     1       0.281   9.511  21.770  0.00  0.00    +0.000 A 
ATOM     14  C   UNL     1       1.157   8.462  21.493  0.00  0.00    +0.000 A 
ATOM     15  C   UNL     1       1.644   8.261  20.201  0.00  0.00    +0.000 A 
ATOM     16  C   UNL     1       1.223   9.130  19.185  0.00  0.00    +0.000 A 
ATOM     17  C   UNL     1       0.342  10.187  19.465  0.00  0.00    +0.000 A 
BRANCH  12  18
ATOM     18  O   UNL     1      -0.963  11.375  21.178  0.00  0.00    +0.000 OA
BRANCH  18  20
ATOM     19  C   UNL     1      -2.238  11.854  23.119  0.00  0.00    +0.000 C 
ATOM     20  C   UNL     1      -0.838  11.796  22.533  0.00  0.00    +0.000 C 
ENDBRANCH  18  20
ENDBRANCH  12  18
ENDBRANCH   8  15
ENDBRANCH   1   9
BRANCH   3  21
ATOM     21  S   UNL     1       7.251   5.342  18.975  0.00  0.00    +0.000 S 
ATOM     22  O   UNL     1       7.548   6.039  20.215  0.00  0.00    +0.000 OA
ATOM     23  O   UNL     1       8.103   4.253  18.512  0.00  0.00    +0.000 OA
BRANCH  21  24
ATOM     24  C   UNL     1       7.044   6.558  17.679  0.00  0.00    +0.000 C 
BRANCH  24  25
ATOM     25  C   UNL     1       6.540   5.899  16.410  0.00  0.00    +0.000 A 
ATOM     26  C   UNL     1       7.401   5.028  15.713  0.00  0.00    +0.000 A 
ATOM     27  C   UNL     1       7.000   4.419  14.523  0.00  0.00    +0.000 A 
ATOM     28  C   UNL     1       5.730   4.658  14.014  0.00  0.00    +0.000 A 
ATOM     29  C   UNL     1       4.860   5.508  14.695  0.00  0.00    +0.000 A 
ATOM     30  C   UNL     1       5.249   6.137  15.891  0.00  0.00    +0.000 A 
ATOM     31  C   UNL     1       4.260   7.046  16.570  0.00  0.00    +0.000 C 
ENDBRANCH  24  25
ENDBRANCH  21  24
ENDBRANCH   3  21
TORSDOF 7
ENDMDL
MODEL 2
REMARK VINA RESULT:      -7.7      1.738      2.343
REMARK  Name = 
REMARK  9 active torsions:
REMARK  status: ('A' for Active; 'I' for Inactive)
REMARK    1  A    between atoms: C_1  and  C_2
REMARK    2  A    between atoms: C_2  and  O_3
REMARK    3  A    between atoms: O_3  and  C_4
REMARK    4  A    between atoms: C_7  and  N_8
REMARK    5  A    between atoms: C_9  and  C_11
REMARK    6  A    between atoms: C_13  and  S_14
REMARK    7  A    between atoms: S_14  and  C_17
REMARK    8  A    between atoms: C_17  and  C_18
REMARK    9  A    between atoms: C_23  and  C_24
REMARK                            x       y       z     vdW  Elec       q    Type
REMARK                         _______ _______ _______ _____ _____    ______ ____
ROOT
ATOM      1  C   UNL     1       3.527   5.436  19.136  0.00  0.00    +0.000 A 
ATOM      2  N   UNL     1       4.201   6.153  18.189  0.00  0.00    +0.000 NA
ATOM      3  C   UNL     1       5.301   5.541  17.713  0.00  0.00    +0.000 A 
ATOM      4  N   UNL     1       5.773   4.330  18.063  0.00  0.00    +0.000 NA
ATOM      5  C   UNL     1       5.043   3.670  18.985  0.00  0.00    +0.000 A 
ATOM      6  C   UNL     1       3.897   4.171  19.568  0.00  0.00    +0.000 A 
ATOM      7 CL   UNL     1       3.034   3.181  20.677  0.00  0.00    +0.000 Cl
ENDROOT
BRANCH   1   9
ATOM      8  N   UNL     1       2.504   7.493  19.916  0.00  0.00    +0.000 N 
ATOM      9  C   UNL     1       2.330   6.132  19.701  0.00  0.00    +0.000 C 
ATOM     10  O   UNL     1       1.326   5.476  19.944  0.00  0.00    +0.000 OA
ATOM     11  H   UNL     1       3.430   7.865  19.732  0.00  0.00    +0.000 HD
BRANCH   8  15
ATOM     12  C   UNL     1      -0.471  10.256  21.106  0.00  0.00    +0.000 A 
ATOM     13  C   UNL     1       0.098   9.405  22.047  0.00  0.00    +0.000 A 
ATOM     14  C   UNL     1       1.086   8.493  21.675  0.00  0.00    +0.000 A 
ATOM     15  C   UNL     1       1.514   8.406  20.350  0.00  0.00    +0.000 A 
ATOM     16  C   UNL     1       0.920   9.246  19.399  0.00  0.00    +0.000 A 
ATOM     17  C   UNL     1      -0.074  10.164  19.774  0.00  0.00    +0.000 A 
BRANCH  12  18
ATOM     18  O   UNL     1      -1.414  11.105  21.609  0.00  0.00    +0.000 OA
BRANCH  18  20
ATOM     19  C   UNL     1      -0.911  13.025  22.906  0.00  0.00    +0.000 C 
ATOM     20  C   UNL     1      -1.227  11.540  22.952  0.00  0.00    +0.000 C 
ENDBRANCH  18  20
ENDBRANCH  12  18
ENDBRANCH   8  15
ENDBRANCH   1   9
BRANCH   3  21
ATOM     21  S   UNL     1       6.140   6.372  16.356  0.00  0.00    +0.000 S 
ATOM     22  O   UNL     1       5.162   6.643  15.316  0.00  0.00    +0.000 OA
ATOM     23  O   UNL     1       6.901   7.458  16.962  0.00  0.00    +0.000 OA
BRANCH  21  24
ATOM     24  C   UNL     1       7.247   5.094  15.770  0.00  0.00    +0.000 C 
BRANCH  24  25
ATOM     25  C   UNL     1       6.823   4.617  14.395  0.00  0.00    +0.000 A 
ATOM     26  C   UNL     1       5.686   3.791  14.286  0.00  0.00    +0.000 A 
ATOM     27  C   UNL     1       5.269   3.298  13.049  0.00  0.00    +0.000 A 
ATOM     28  C   UNL     1       5.972   3.627  11.897  0.00  0.00    +0.000 A 
ATOM     29  C   UNL     1       7.093   4.451  11.983  0.00  0.00    +0.000 A 
ATOM     30  C   UNL     1       7.533   4.952  13.221  0.00  0.00    +0.000 A 
ATOM     31  C   UNL     1       8.754   5.832  13.239  0.00  0.00    +0.000 C 
ENDBRANCH  24  25
ENDBRANCH  21  24
ENDBRANCH   3  21
TORSDOF 7
ENDMDL
MODEL 3
REMARK VINA RESULT:      -7.6      1.398      1.654
REMARK  Name = 
REMARK  9 active torsions:
REMARK  status: ('A' for Active; 'I' for Inactive)
REMARK    1  A    between atoms: C_1  and  C_2
REMARK    2  A    between atoms: C_2  and  O_3
REMARK    3  A    between atoms: O_3  and  C_4
REMARK    4  A    between atoms: C_7  and  N_8
REMARK    5  A    between atoms: C_9  and  C_11
REMARK    6  A    between atoms: C_13  and  S_14
REMARK    7  A    between atoms: S_14  and  C_17
REMARK    8  A    between atoms: C_17  and  C_18
REMARK    9  A    between atoms: C_23  and  C_24
REMARK                            x       y       z     vdW  Elec       q    Type
REMARK                         _______ _______ _______ _____ _____    ______ ____
ROOT
ATOM      1  C   UNL     1       3.430   5.145  19.790  0.00  0.00    +0.000 A 
ATOM      2  N   UNL     1       4.582   5.652  19.260  0.00  0.00    +0.000 NA
ATOM      3  C   UNL     1       5.551   4.737  19.071  0.00  0.00    +0.000 A 
ATOM      4  N   UNL     1       5.487   3.419  19.333  0.00  0.00    +0.000 NA
ATOM      5  C   UNL     1       4.311   2.986  19.831  0.00  0.00    +0.000 A 
ATOM      6  C   UNL     1       3.230   3.805  20.085  0.00  0.00    +0.000 A 
ATOM      7 CL   UNL     1       1.771   3.095  20.653  0.00  0.00    +0.000 Cl
ENDROOT
BRANCH   1   9
ATOM      8  N   UNL     1       2.521   7.348  19.332  0.00  0.00    +0.000 N 
ATOM      9  C   UNL     1       2.367   6.167  20.045  0.00  0.00    +0.000 C 
ATOM     10  O   UNL     1       1.481   5.907  20.849  0.00  0.00    +0.000 OA
ATOM     11  H   UNL     1       3.360   7.427  18.765  0.00  0.00    +0.000 HD
BRANCH   8  15
ATOM     12  C   UNL     1      -0.177  10.602  19.154  0.00  0.00    +0.000 A 
ATOM     13  C   UNL     1       0.185  10.071  20.387  0.00  0.00    +0.000 A 
ATOM     14  C   UNL     1       1.081   9.004  20.466  0.00  0.00    +0.000 A 
ATOM     15  C   UNL     1       1.619   8.437  19.311  0.00  0.00    +0.000 A 
ATOM     16  C   UNL     1       1.231   8.956  18.068  0.00  0.00    +0.000 A 
ATOM     17  C   UNL     1       0.331  10.031  17.989  0.00  0.00    +0.000 A 
BRANCH  12  18
ATOM     18  O   UNL     1      -1.049  11.650  19.224  0.00  0.00    +0.000 OA
BRANCH  18  20
ATOM     19  C   UNL     1      -0.206  13.813  19.707  0.00  0.00    +0.000 C 
ATOM     20  C   UNL     1      -0.637  12.863  18.603  0.00  0.00    +0.000 C 
ENDBRANCH  18  20
ENDBRANCH  12  18
ENDBRANCH   8  15
ENDBRANCH   1   9
BRANCH   3  21
ATOM     21  S   UNL     1       7.034   5.322  18.236  0.00  0.00    +0.000 S 
ATOM     22  O   UNL     1       7.712   6.257  19.118  0.00  0.00    +0.000 OA
ATOM     23  O   UNL     1       7.717   4.129  17.752  0.00  0.00    +0.000 OA
BRANCH  21  24
ATOM     24  C   UNL     1       6.345   6.240  16.863  0.00  0.00    +0.000 C 
BRANCH  24  25
ATOM     25  C   UNL     1       6.371   5.401  15.600  0.00  0.00    +0.000 A 
ATOM     26  C   UNL     1       7.457   5.547  14.713  0.00  0.00    +0.000 A 
ATOM     27  C   UNL     1       7.516   4.822  13.522  0.00  0.00    +0.000 A 
ATOM     28  C   UNL     1       6.500   3.932  13.198  0.00  0.00    +0.000 A 
ATOM     29  C   UNL     1       5.423   3.767  14.068  0.00  0.00    +0.000 A 
ATOM     30  C   UNL     1       5.341   4.493  15.269  0.00  0.00    +0.000 A 
ATOM     31  C   UNL     1       4.148   4.267  16.157  0.00  0.00    +0.000 C 
ENDBRANCH  24  25
ENDBRANCH  21  24
ENDBRANCH   3  21
TORSDOF 7
ENDMDL
MODEL 4
REMARK VINA RESULT:      -7.6      2.596      4.246
REMARK  Name = 
REMARK  9 active torsions:
REMARK  status: ('A' for Active; 'I' for Inactive)
REMARK    1  A    between atoms: C_1  and  C_2
REMARK    2  A    between atoms: C_2  and  O_3
REMARK    3  A    between atoms: O_3  and  C_4
REMARK    4  A    between atoms: C_7  and  N_8
REMARK    5  A    between atoms: C_9  and  C_11
REMARK    6  A    between atoms: C_13  and  S_14
REMARK    7  A    between atoms: S_14  and  C_17
REMARK    8  A    between atoms: C_17  and  C_18
REMARK    9  A    between atoms: C_23  and  C_24
REMARK                            x       y       z     vdW  Elec       q    Type
REMARK                         _______ _______ _______ _____ _____    ______ ____
ROOT
ATOM      1  C   UNL     1       2.726   7.315  19.043  0.00  0.00    +0.000 A 
ATOM      2  N   UNL     1       3.451   6.182  19.279  0.00  0.00    +0.000 NA
ATOM      3  C   UNL     1       4.263   5.826  18.267  0.00  0.00    +0.000 A 
ATOM      4  N   UNL     1       4.429   6.465  17.094  0.00  0.00    +0.000 NA
ATOM      5  C   UNL     1       3.700   7.589  16.941  0.00  0.00    +0.000 A 
ATOM      6  C   UNL     1       2.820   8.075  17.886  0.00  0.00    +0.000 A 
ATOM      7 CL   UNL     1       2.014   9.562  17.577  0.00  0.00    +0.000 Cl
ENDROOT
BRANCH   1   9
ATOM      8  N   UNL     1       1.490   9.044  20.214  0.00  0.00    +0.000 N 
ATOM      9  C   UNL     1       1.788   7.689  20.146  0.00  0.00    +0.000 C 
ATOM     10  O   UNL     1       1.380   6.812  20.897  0.00  0.00    +0.000 OA
ATOM     11  H   UNL     1       1.978   9.647  19.559  0.00  0.00    +0.000 HD
BRANCH   8  15
ATOM     12  C   UNL     1      -1.312  10.937  22.756  0.00  0.00    +0.000 A 
ATOM     13  C   UNL     1      -0.524   9.900  23.245  0.00  0.00    +0.000 A 
ATOM     14  C   UNL     1       0.411   9.270  22.425  0.00  0.00    +0.000 A 
ATOM     15  C   UNL     1       0.566   9.655  21.093  0.00  0.00    +0.000 A 
ATOM     16  C   UNL     1      -0.248  10.682  20.595  0.00  0.00    +0.000 A 
ATOM     17  C   UNL     1      -1.188  11.317  21.422  0.00  0.00    +0.000 A 
BRANCH  12  18
ATOM     18  O   UNL     1      -2.173  11.471  23.670  0.00  0.00    +0.000 OA
BRANCH  18  20
ATOM     19  C   UNL     1      -3.935  12.922  24.316  0.00  0.00    +0.000 C 
ATOM     20  C   UNL     1      -2.846  12.667  23.288  0.00  0.00    +0.000 C 
ENDBRANCH  18  20
ENDBRANCH  12  18
ENDBRANCH   8  15
ENDBRANCH   1   9
BRANCH   3  21
ATOM     21  S   UNL     1       5.351   4.428  18.585  0.00  0.00    +0.000 S 
ATOM     22  O   UNL     1       6.384   4.416  17.563  0.00  0.00    +0.000 OA
ATOM     23  O   UNL     1       5.704   4.511  19.997  0.00  0.00    +0.000 OA
BRANCH  21  24
ATOM     24  C   UNL     1       4.259   3.040  18.301  0.00  0.00    +0.000 C 
BRANCH  24  25
ATOM     25  C   UNL     1       3.156   3.013  19.341  0.00  0.00    +0.000 A 
ATOM     26  C   UNL     1       3.474   2.615  20.655  0.00  0.00    +0.000 A 
ATOM     27  C   UNL     1       2.492   2.543  21.644  0.00  0.00    +0.000 A 
ATOM     28  C   UNL     1       1.177   2.876  21.342  0.00  0.00    +0.000 A 
ATOM     29  C   UNL     1       0.845   3.282  20.051  0.00  0.00    +0.000 A 
ATOM     30  C   UNL     1       1.819   3.354  19.040  0.00  0.00    +0.000 A 
ATOM     31  C   UNL     1       1.388   3.795  17.667  0.00  0.00    +0.000 C 
ENDBRANCH  24  25
ENDBRANCH  21  24
ENDBRANCH   3  21
TORSDOF 7
ENDMDL
MODEL 5
REMARK VINA RESULT:      -7.6      1.251      1.671
REMARK  Name = 
REMARK  9 active torsions:
REMARK  status: ('A' for Active; 'I' for Inactive)
REMARK    1  A    between atoms: C_1  and  C_2
REMARK    2  A    between atoms: C_2  and  O_3
REMARK    3  A    between atoms: O_3  and  C_4
REMARK    4  A    between atoms: C_7  and  N_8
REMARK    5  A    between atoms: C_9  and  C_11
REMARK    6  A    between atoms: C_13  and  S_14
REMARK    7  A    between atoms: S_14  and  C_17
REMARK    8  A    between atoms: C_17  and  C_18
REMARK    9  A    between atoms: C_23  and  C_24
REMARK                            x       y       z     vdW  Elec       q    Type
REMARK                         _______ _______ _______ _____ _____    ______ ____
ROOT
ATOM      1  C   UNL     1       3.525   5.722  19.265  0.00  0.00    +0.000 A 
ATOM      2  N   UNL     1       4.708   6.057  18.672  0.00  0.00    +0.000 NA
ATOM      3  C   UNL     1       5.636   5.083  18.705  0.00  0.00    +0.000 A 
ATOM      4  N   UNL     1       5.506   3.854  19.237  0.00  0.00    +0.000 NA
ATOM      5  C   UNL     1       4.303   3.586  19.784  0.00  0.00    +0.000 A 
ATOM      6  C   UNL     1       3.257   4.485  19.831  0.00  0.00    +0.000 A 
ATOM      7 CL   UNL     1       1.757   3.972  20.497  0.00  0.00    +0.000 Cl
ENDROOT
BRANCH   1   9
ATOM      8  N   UNL     1       2.230   7.340  20.528  0.00  0.00    +0.000 N 
ATOM      9  C   UNL     1       2.506   6.818  19.272  0.00  0.00    +0.000 C 
ATOM     10  O   UNL     1       1.992   7.152  18.212  0.00  0.00    +0.000 OA
ATOM     11  H   UNL     1       2.692   6.893  21.315  0.00  0.00    +0.000 HD
BRANCH   8  15
ATOM     12  C   UNL     1      -0.289  10.601  21.489  0.00  0.00    +0.000 A 
ATOM     13  C   UNL     1       0.083  10.380  20.167  0.00  0.00    +0.000 A 
ATOM     14  C   UNL     1       0.906   9.305  19.830  0.00  0.00    +0.000 A 
ATOM     15  C   UNL     1       1.385   8.438  20.812  0.00  0.00    +0.000 A 
ATOM     16  C   UNL     1       1.031   8.678  22.147  0.00  0.00    +0.000 A 
ATOM     17  C   UNL     1       0.201   9.760  22.485  0.00  0.00    +0.000 A 
BRANCH  12  18
ATOM     18  O   UNL     1      -1.106  11.678  21.673  0.00  0.00    +0.000 OA
BRANCH  18  20
ATOM     19  C   UNL     1      -2.956  12.254  23.040  0.00  0.00    +0.000 C 
ATOM     20  C   UNL     1      -1.461  11.985  23.018  0.00  0.00    +0.000 C 
ENDBRANCH  18  20
ENDBRANCH  12  18
ENDBRANCH   8  15
ENDBRANCH   1   9
BRANCH   3  21
ATOM     21  S   UNL     1       7.159   5.415  17.805  0.00  0.00    +0.000 S 
ATOM     22  O   UNL     1       7.967   6.323  18.601  0.00  0.00    +0.000 OA
ATOM     23  O   UNL     1       7.678   4.114  17.404  0.00  0.00    +0.000 OA
BRANCH  21  24
ATOM     24  C   UNL     1       6.553   6.306  16.375  0.00  0.00    +0.000 C 
BRANCH  24  25
ATOM     25  C   UNL     1       6.535   5.403  15.158  0.00  0.00    +0.000 A 
ATOM     26  C   UNL     1       7.580   5.511  14.219  0.00  0.00    +0.000 A 
ATOM     27  C   UNL     1       7.597   4.726  13.065  0.00  0.00    +0.000 A 
ATOM     28  C   UNL     1       6.578   3.812  12.832  0.00  0.00    +0.000 A 
ATOM     29  C   UNL     1       5.541   3.682  13.755  0.00  0.00    +0.000 A 
ATOM     30  C   UNL     1       5.502   4.469  14.919  0.00  0.00    +0.000 A 
ATOM     31  C   UNL     1       4.350   4.280  15.868  0.00  0.00    +0.000 C 
ENDBRANCH  24  25
ENDBRANCH  21  24
ENDBRANCH   3  21
TORSDOF 7
ENDMDL
MODEL 6
REMARK VINA RESULT:      -7.5      1.212      1.602
REMARK  Name = 
REMARK  9 active torsions:
REMARK  status: ('A' for Active; 'I' for Inactive)
REMARK    1  A    between atoms: C_1  and  C_2
REMARK    2  A    between atoms: C_2  and  O_3
REMARK    3  A    between atoms: O_3  and  C_4
REMARK    4  A    between atoms: C_7  and  N_8
REMARK    5  A    between atoms: C_9  and  C_11
REMARK    6  A    between atoms: C_13  and  S_14
REMARK    7  A    between atoms: S_14  and  C_17
REMARK    8  A    between atoms: C_17  and  C_18
REMARK    9  A    between atoms: C_23  and  C_24
REMARK                            x       y       z     vdW  Elec       q    Type
REMARK                         _______ _______ _______ _____ _____    ______ ____
ROOT
ATOM      1  C   UNL     1       3.384   5.067  19.822  0.00  0.00    +0.000 A 
ATOM      2  N   UNL     1       4.545   5.574  19.313  0.00  0.00    +0.000 NA
ATOM      3  C   UNL     1       5.507   4.655  19.112  0.00  0.00    +0.000 A 
ATOM      4  N   UNL     1       5.429   3.332  19.345  0.00  0.00    +0.000 NA
ATOM      5  C   UNL     1       4.244   2.900  19.824  0.00  0.00    +0.000 A 
ATOM      6  C   UNL     1       3.169   3.723  20.087  0.00  0.00    +0.000 A 
ATOM      7 CL   UNL     1       1.699   3.014  20.628  0.00  0.00    +0.000 Cl
ENDROOT
BRANCH   1   9
ATOM      8  N   UNL     1       2.545   7.317  19.473  0.00  0.00    +0.000 N 
ATOM      9  C   UNL     1       2.328   6.093  20.091  0.00  0.00    +0.000 C 
ATOM     10  O   UNL     1       1.393   5.799  20.824  0.00  0.00    +0.000 OA
ATOM     11  H   UNL     1       3.415   7.416  18.959  0.00  0.00    +0.000 HD
BRANCH   8  15
ATOM     12  C   UNL     1      -0.079  10.633  19.605  0.00  0.00    +0.000 A 
ATOM     13  C   UNL     1       0.364  10.150  18.378  0.00  0.00    +0.000 A 
ATOM     14  C   UNL     1       1.223   9.053  18.314  0.00  0.00    +0.000 A 
ATOM     15  C   UNL     1       1.666   8.426  19.479  0.00  0.00    +0.000 A 
ATOM     16  C   UNL     1       1.239   8.931  20.715  0.00  0.00    +0.000 A 
ATOM     17  C   UNL     1       0.374  10.035  20.778  0.00  0.00    +0.000 A 
BRANCH  12  18
ATOM     18  O   UNL     1      -0.924  11.701  19.519  0.00  0.00    +0.000 OA
BRANCH  18  20
ATOM     19  C   UNL     1      -3.036  12.652  20.033  0.00  0.00    +0.000 C 
ATOM     20  C   UNL     1      -1.861  11.859  20.581  0.00  0.00    +0.000 C 
ENDBRANCH  18  20
ENDBRANCH  12  18
ENDBRANCH   8  15
ENDBRANCH   1   9
BRANCH   3  21
ATOM     21  S   UNL     1       7.002   5.244  18.302  0.00  0.00    +0.000 S 
ATOM     22  O   UNL     1       7.678   6.157  19.207  0.00  0.00    +0.000 OA
ATOM     23  O   UNL     1       7.681   4.054  17.802  0.00  0.00    +0.000 OA
BRANCH  21  24
ATOM     24  C   UNL     1       6.333   6.192  16.939  0.00  0.00    +0.000 C 
BRANCH  24  25
ATOM     25  C   UNL     1       6.360   5.374  15.663  0.00  0.00    +0.000 A 
ATOM     26  C   UNL     1       7.451   5.528  14.784  0.00  0.00    +0.000 A 
ATOM     27  C   UNL     1       7.512   4.823  13.581  0.00  0.00    +0.000 A 
ATOM     28  C   UNL     1       6.492   3.946  13.237  0.00  0.00    +0.000 A 
ATOM     29  C   UNL     1       5.409   3.773  14.098  0.00  0.00    +0.000 A 
ATOM     30  C   UNL     1       5.326   4.479  15.311  0.00  0.00    +0.000 A 
ATOM     31  C   UNL     1       4.126   4.246  16.189  0.00  0.00    +0.000 C 
ENDBRANCH  24  25
ENDBRANCH  21  24
ENDBRANCH   3  21
TORSDOF 7
ENDMDL
MODEL 7
REMARK VINA RESULT:      -7.5      3.768      8.924
REMARK  Name = 
REMARK  9 active torsions:
REMARK  status: ('A' for Active; 'I' for Inactive)
REMARK    1  A    between atoms: C_1  and  C_2
REMARK    2  A    between atoms: C_2  and  O_3
REMARK    3  A    between atoms: O_3  and  C_4
REMARK    4  A    between atoms: C_7  and  N_8
REMARK    5  A    between atoms: C_9  and  C_11
REMARK    6  A    between atoms: C_13  and  S_14
REMARK    7  A    between atoms: S_14  and  C_17
REMARK    8  A    between atoms: C_17  and  C_18
REMARK    9  A    between atoms: C_23  and  C_24
REMARK                            x       y       z     vdW  Elec       q    Type
REMARK                         _______ _______ _______ _____ _____    ______ ____
ROOT
ATOM      1  C   UNL     1       1.667   8.621  19.535  0.00  0.00    +0.000 A 
ATOM      2  N   UNL     1       1.446   9.964  19.426  0.00  0.00    +0.000 NA
ATOM      3  C   UNL     1       0.730  10.489  20.438  0.00  0.00    +0.000 A 
ATOM      4  N   UNL     1       0.243   9.840  21.511  0.00  0.00    +0.000 NA
ATOM      5  C   UNL     1       0.521   8.521  21.563  0.00  0.00    +0.000 A 
ATOM      6  C   UNL     1       1.236   7.842  20.599  0.00  0.00    +0.000 A 
ATOM      7 CL   UNL     1       1.573   6.174  20.841  0.00  0.00    +0.000 Cl
ENDROOT
BRANCH   1   9
ATOM      8  N   UNL     1       3.191   6.918  18.721  0.00  0.00    +0.000 N 
ATOM      9  C   UNL     1       2.422   8.026  18.389  0.00  0.00    +0.000 C 
ATOM     10  O   UNL     1       2.329   8.548  17.286  0.00  0.00    +0.000 OA
ATOM     11  H   UNL     1       3.215   6.662  19.703  0.00  0.00    +0.000 HD
BRANCH   8  15
ATOM     12  C   UNL     1       5.314   4.415  16.050  0.00  0.00    +0.000 A 
ATOM     13  C   UNL     1       5.731   5.727  16.249  0.00  0.00    +0.000 A 
ATOM     14  C   UNL     1       5.049   6.565  17.132  0.00  0.00    +0.000 A 
ATOM     15  C   UNL     1       3.926   6.109  17.823  0.00  0.00    +0.000 A 
ATOM     16  C   UNL     1       3.491   4.796  17.601  0.00  0.00    +0.000 A 
ATOM     17  C   UNL     1       4.179   3.953  16.713  0.00  0.00    +0.000 A 
BRANCH  12  18
ATOM     18  O   UNL     1       6.079   3.706  15.171  0.00  0.00    +0.000 OA
BRANCH  18  20
ATOM     19  C   UNL     1       5.973   3.592  12.805  0.00  0.00    +0.000 C 
ATOM     20  C   UNL     1       6.491   4.388  13.991  0.00  0.00    +0.000 C 
ENDBRANCH  18  20
ENDBRANCH  12  18
ENDBRANCH   8  15
ENDBRANCH   1   9
BRANCH   3  21
ATOM     21  S   UNL     1       0.540  12.279  20.423  0.00  0.00    +0.000 S 
ATOM     22  O   UNL     1      -0.833  12.592  20.783  0.00  0.00    +0.000 OA
ATOM     23  O   UNL     1       1.652  12.805  21.204  0.00  0.00    +0.000 OA
BRANCH  21  24
ATOM     24  C   UNL     1       0.769  12.657  18.689  0.00  0.00    +0.000 C 
BRANCH  24  25
ATOM     25  C   UNL     1       1.704  13.839  18.525  0.00  0.00    +0.000 A 
ATOM     26  C   UNL     1       3.070  13.592  18.279  0.00  0.00    +0.000 A 
ATOM     27  C   UNL     1       3.981  14.642  18.150  0.00  0.00    +0.000 A 
ATOM     28  C   UNL     1       3.544  15.957  18.255  0.00  0.00    +0.000 A 
ATOM     29  C   UNL     1       2.196  16.221  18.488  0.00  0.00    +0.000 A 
ATOM     30  C   UNL     1       1.265  15.177  18.627  0.00  0.00    +0.000 A 
ATOM     31  C   UNL     1      -0.174  15.536  18.882  0.00  0.00    +0.000 C 
ENDBRANCH  24  25
ENDBRANCH  21  24
ENDBRANCH   3  21
TORSDOF 7
ENDMDL
MODEL 8
REMARK VINA RESULT:      -7.5      1.371      1.866
REMARK  Name = 
REMARK  9 active torsions:
REMARK  status: ('A' for Active; 'I' for Inactive)
REMARK    1  A    between atoms: C_1  and  C_2
REMARK    2  A    between atoms: C_2  and  O_3
REMARK    3  A    between atoms: O_3  and  C_4
REMARK    4  A    between atoms: C_7  and  N_8
REMARK    5  A    between atoms: C_9  and  C_11
REMARK    6  A    between atoms: C_13  and  S_14
REMARK    7  A    between atoms: S_14  and  C_17
REMARK    8  A    between atoms: C_17  and  C_18
REMARK    9  A    between atoms: C_23  and  C_24
REMARK                            x       y       z     vdW  Elec       q    Type
REMARK                         _______ _______ _______ _____ _____    ______ ____
ROOT
ATOM      1  C   UNL     1       3.602   5.237  19.081  0.00  0.00    +0.000 A 
ATOM      2  N   UNL     1       4.727   5.727  18.483  0.00  0.00    +0.000 NA
ATOM      3  C   UNL     1       5.782   4.891  18.524  0.00  0.00    +0.000 A 
ATOM      4  N   UNL     1       5.823   3.661  19.066  0.00  0.00    +0.000 NA
ATOM      5  C   UNL     1       4.668   3.234  19.617  0.00  0.00    +0.000 A 
ATOM      6  C   UNL     1       3.508   3.979  19.657  0.00  0.00    +0.000 A 
ATOM      7 CL   UNL     1       2.093   3.270  20.329  0.00  0.00    +0.000 Cl
ENDROOT
BRANCH   1   9
ATOM      8  N   UNL     1       2.469   7.130  20.093  0.00  0.00    +0.000 N 
ATOM      9  C   UNL     1       2.441   6.182  19.079  0.00  0.00    +0.000 C 
ATOM     10  O   UNL     1       1.571   6.045  18.229  0.00  0.00    +0.000 OA
ATOM     11  H   UNL     1       3.229   7.053  20.763  0.00  0.00    +0.000 HD
BRANCH   8  15
ATOM     12  C   UNL     1      -0.290  10.274  20.723  0.00  0.00    +0.000 A 
ATOM     13  C   UNL     1       0.481  10.253  19.566  0.00  0.00    +0.000 A 
ATOM     14  C   UNL     1       1.390   9.220  19.337  0.00  0.00    +0.000 A 
ATOM     15  C   UNL     1       1.555   8.195  20.269  0.00  0.00    +0.000 A 
ATOM     16  C   UNL     1       0.796   8.233  21.446  0.00  0.00    +0.000 A 
ATOM     17  C   UNL     1      -0.119   9.273  21.676  0.00  0.00    +0.000 A 
BRANCH  12  18
ATOM     18  O   UNL     1      -1.146  11.334  20.812  0.00  0.00    +0.000 OA
BRANCH  18  20
ATOM     19  C   UNL     1      -1.159  13.421  19.686  0.00  0.00    +0.000 C 
ATOM     20  C   UNL     1      -1.525  11.950  19.585  0.00  0.00    +0.000 C 
ENDBRANCH  18  20
ENDBRANCH  12  18
ENDBRANCH   8  15
ENDBRANCH   1   9
BRANCH   3  21
ATOM     21  S   UNL     1       7.244   5.424  17.620  0.00  0.00    +0.000 S 
ATOM     22  O   UNL     1       7.946   6.404  18.430  0.00  0.00    +0.000 OA
ATOM     23  O   UNL     1       7.911   4.203  17.185  0.00  0.00    +0.000 OA
BRANCH  21  24
ATOM     24  C   UNL     1       6.521   6.267  16.216  0.00  0.00    +0.000 C 
BRANCH  24  25
ATOM     25  C   UNL     1       6.575   5.385  14.984  0.00  0.00    +0.000 A 
ATOM     26  C   UNL     1       7.619   5.581  14.057  0.00  0.00    +0.000 A 
ATOM     27  C   UNL     1       7.700   4.818  12.891  0.00  0.00    +0.000 A 
ATOM     28  C   UNL     1       6.748   3.840  12.634  0.00  0.00    +0.000 A 
ATOM     29  C   UNL     1       5.715   3.624  13.544  0.00  0.00    +0.000 A 
ATOM     30  C   UNL     1       5.612   4.387  14.720  0.00  0.00    +0.000 A 
ATOM     31  C   UNL     1       4.467   4.102  15.655  0.00  0.00    +0.000 C 
ENDBRANCH  24  25
ENDBRANCH  21  24
ENDBRANCH   3  21
TORSDOF 7
ENDMDL
MODEL 9
REMARK VINA RESULT:      -7.5      1.983      2.559
REMARK  Name = 
REMARK  9 active torsions:
REMARK  status: ('A' for Active; 'I' for Inactive)
REMARK    1  A    between atoms: C_1  and  C_2
REMARK    2  A    between atoms: C_2  and  O_3
REMARK    3  A    between atoms: O_3  and  C_4
REMARK    4  A    between atoms: C_7  and  N_8
REMARK    5  A    between atoms: C_9  and  C_11
REMARK    6  A    between atoms: C_13  and  S_14
REMARK    7  A    between atoms: S_14  and  C_17
REMARK    8  A    between atoms: C_17  and  C_18
REMARK    9  A    between atoms: C_23  and  C_24
REMARK                            x       y       z     vdW  Elec       q    Type
REMARK                         _______ _______ _______ _____ _____    ______ ____
ROOT
ATOM      1  C   UNL     1       3.399   5.764  19.037  0.00  0.00    +0.000 A 
ATOM      2  N   UNL     1       4.179   6.399  18.113  0.00  0.00    +0.000 NA
ATOM      3  C   UNL     1       5.151   5.630  17.589  0.00  0.00    +0.000 A 
ATOM      4  N   UNL     1       5.408   4.340  17.872  0.00  0.00    +0.000 NA
ATOM      5  C   UNL     1       4.583   3.771  18.774  0.00  0.00    +0.000 A 
ATOM      6  C   UNL     1       3.547   4.433  19.401  0.00  0.00    +0.000 A 
ATOM      7 CL   UNL     1       2.534   3.554  20.476  0.00  0.00    +0.000 Cl
ENDROOT
BRANCH   1   9
ATOM      8  N   UNL     1       2.268   7.908  19.124  0.00  0.00    +0.000 N 
ATOM      9  C   UNL     1       2.346   6.628  19.655  0.00  0.00    +0.000 C 
ATOM     10  O   UNL     1       1.667   6.170  20.565  0.00  0.00    +0.000 OA
ATOM     11  H   UNL     1       2.962   8.150  18.423  0.00  0.00    +0.000 HD
BRANCH   8  15
ATOM     12  C   UNL     1      -0.621  10.873  19.999  0.00  0.00    +0.000 A 
ATOM     13  C   UNL     1       0.011  10.195  21.036  0.00  0.00    +0.000 A 
ATOM     14  C   UNL     1       0.973   9.221  20.767  0.00  0.00    +0.000 A 
ATOM     15  C   UNL     1       1.309   8.895  19.453  0.00  0.00    +0.000 A 
ATOM     16  C   UNL     1       0.651   9.559  18.410  0.00  0.00    +0.000 A 
ATOM     17  C   UNL     1      -0.315  10.541  18.681  0.00  0.00    +0.000 A 
BRANCH  12  18
ATOM     18  O   UNL     1      -1.529  11.808  20.405  0.00  0.00    +0.000 OA
BRANCH  18  20
ATOM     19  C   UNL     1      -3.731  12.666  20.211  0.00  0.00    +0.000 C 
ATOM     20  C   UNL     1      -2.500  12.211  19.445  0.00  0.00    +0.000 C 
ENDBRANCH  18  20
ENDBRANCH  12  18
ENDBRANCH   8  15
ENDBRANCH   1   9
BRANCH   3  21
ATOM     21  S   UNL     1       6.110   6.371  16.259  0.00  0.00    +0.000 S 
ATOM     22  O   UNL     1       5.202   6.698  15.173  0.00  0.00    +0.000 OA
ATOM     23  O   UNL     1       6.927   7.404  16.883  0.00  0.00    +0.000 OA
BRANCH  21  24
ATOM     24  C   UNL     1       7.139   5.001  15.740  0.00  0.00    +0.000 C 
BRANCH  24  25
ATOM     25  C   UNL     1       6.737   4.532  14.356  0.00  0.00    +0.000 A 
ATOM     26  C   UNL     1       5.592   3.720  14.222  0.00  0.00    +0.000 A 
ATOM     27  C   UNL     1       5.195   3.236  12.975  0.00  0.00    +0.000 A 
ATOM     28  C   UNL     1       5.925   3.560  11.838  0.00  0.00    +0.000 A 
ATOM     29  C   UNL     1       7.053   4.370  11.949  0.00  0.00    +0.000 A 
ATOM     30  C   UNL     1       7.474   4.862  13.197  0.00  0.00    +0.000 A 
ATOM     31  C   UNL     1       8.705   5.727  13.243  0.00  0.00    +0.000 C 
ENDBRANCH  24  25
ENDBRANCH  21  24
ENDBRANCH   3  21
TORSDOF 7
ENDMDL
