MODEL 1
REMARK VINA RESULT:      -7.7      0.000      0.000
REMARK  Name = 
REMARK  1 active torsions:
REMARK  status: ('A' for Active; 'I' for Inactive)
REMARK    1  A    between atoms: C_8  and  C_9
REMARK                            x       y       z     vdW  Elec       q    Type
REMARK                         _______ _______ _______ _____ _____    ______ ____
ROOT
ATOM      1  O   UNL     1       5.435   8.171  17.231  0.00  0.00    +0.000 OA
ATOM      2  C   UNL     1       6.088   7.182  17.540  0.00  0.00    +0.000 C 
ATOM      3  C   UNL     1       7.579   7.134  17.330  0.00  0.00    +0.000 C 
ATOM      4  C   UNL     1       8.219   6.809  18.665  0.00  0.00    +0.000 C 
ATOM      5  C   UNL     1       7.719   5.466  19.202  0.00  0.00    +0.000 C 
ATOM      6  C   UNL     1       6.255   5.180  18.926  0.00  0.00    +0.000 C 
ATOM      7  C   UNL     1       5.469   5.971  18.151  0.00  0.00    +0.000 C 
ATOM      8  C   UNL     1       3.997   5.641  17.868  0.00  0.00    +0.000 C 
ATOM      9  C   UNL     1       3.603   4.356  18.539  0.00  0.00    +0.000 C 
ATOM     10  C   UNL     1       4.425   3.643  19.321  0.00  0.00    +0.000 C 
ATOM     11  C   UNL     1       3.860   2.404  19.951  0.00  0.00    +0.000 C 
ATOM     12  C   UNL     1       2.366   2.378  19.640  0.00  0.00    +0.000 C 
ATOM     13  S   UNL     1       2.104   3.556  18.306  0.00  0.00    +0.000 S 
ATOM     14  O   UNL     1       0.987   4.390  18.673  0.00  0.00    +0.000 OA
ATOM     15  O   UNL     1       2.141   2.828  17.058  0.00  0.00    +0.000 OA
ATOM     16  N   UNL     1       5.724   4.042  19.521  0.00  0.00    +0.000 N 
ATOM     17  H   UNL     1       6.355   3.426  20.029  0.00  0.00    +0.000 HD
ENDROOT
BRANCH   8  18
ATOM     18  C   UNL     1       3.058   6.778  18.247  0.00  0.00    +0.000 A 
ATOM     19  C   UNL     1       2.537   7.616  17.246  0.00  0.00    +0.000 A 
ATOM     20  C   UNL     1       1.721   8.697  17.578  0.00  0.00    +0.000 A 
ATOM     21  C   UNL     1       1.359   8.915  18.906  0.00  0.00    +0.000 A 
ATOM     22  C   UNL     1       1.830   8.059  19.899  0.00  0.00    +0.000 A 
ATOM     23 BR   UNL     1       1.256   8.285  21.686  0.00  0.00    +0.000 Br
ATOM     24  C   UNL     1       2.703   7.018  19.585  0.00  0.00    +0.000 A 
ENDBRANCH   8  18
TORSDOF 1
ENDMDL
MODEL 2
REMARK VINA RESULT:      -7.4      2.644      5.392
REMARK  Name = 
REMARK  1 active torsions:
REMARK  status: ('A' for Active; 'I' for Inactive)
REMARK    1  A    between atoms: C_8  and  C_9
REMARK                            x       y       z     vdW  Elec       q    Type
REMARK                         _______ _______ _______ _____ _____    ______ ____
ROOT
ATOM      1  O   UNL     1       3.565   2.924  17.813  0.00  0.00    +0.000 OA
ATOM      2  C   UNL     1       2.713   3.132  18.669  0.00  0.00    +0.000 C 
ATOM      3  C   UNL     1       1.929   2.001  19.280  0.00  0.00    +0.000 C 
ATOM      4  C   UNL     1       2.106   2.081  20.784  0.00  0.00    +0.000 C 
ATOM      5  C   UNL     1       1.605   3.423  21.325  0.00  0.00    +0.000 C 
ATOM      6  C   UNL     1       1.879   4.610  20.422  0.00  0.00    +0.000 C 
ATOM      7  C   UNL     1       2.400   4.500  19.173  0.00  0.00    +0.000 C 
ATOM      8  C   UNL     1       2.641   5.720  18.273  0.00  0.00    +0.000 C 
ATOM      9  C   UNL     1       2.207   6.982  18.961  0.00  0.00    +0.000 C 
ATOM     10  C   UNL     1       1.732   7.020  20.215  0.00  0.00    +0.000 C 
ATOM     11  C   UNL     1       1.385   8.369  20.770  0.00  0.00    +0.000 C 
ATOM     12  C   UNL     1       1.846   9.410  19.753  0.00  0.00    +0.000 C 
ATOM     13  S   UNL     1       2.138   8.524  18.215  0.00  0.00    +0.000 S 
ATOM     14  O   UNL     1       3.425   8.935  17.712  0.00  0.00    +0.000 OA
ATOM     15  O   UNL     1       0.937   8.613  17.416  0.00  0.00    +0.000 OA
ATOM     16  N   UNL     1       1.574   5.863  20.940  0.00  0.00    +0.000 N 
ATOM     17  H   UNL     1       1.110   5.911  21.844  0.00  0.00    +0.000 HD
ENDROOT
BRANCH   8  18
ATOM     18  C   UNL     1       4.081   5.815  17.789  0.00  0.00    +0.000 A 
ATOM     19  C   UNL     1       4.348   6.000  16.422  0.00  0.00    +0.000 A 
ATOM     20  C   UNL     1       5.660   6.034  15.951  0.00  0.00    +0.000 A 
ATOM     21  C   UNL     1       6.724   5.952  16.848  0.00  0.00    +0.000 A 
ATOM     22  C   UNL     1       6.469   5.820  18.211  0.00  0.00    +0.000 A 
ATOM     23 BR   UNL     1       7.904   5.819  19.441  0.00  0.00    +0.000 Br
ATOM     24  C   UNL     1       5.161   5.715  18.682  0.00  0.00    +0.000 A 
ENDBRANCH   8  18
TORSDOF 1
ENDMDL
MODEL 3
REMARK VINA RESULT:      -7.4      2.142      4.576
REMARK  Name = 
REMARK  1 active torsions:
REMARK  status: ('A' for Active; 'I' for Inactive)
REMARK    1  A    between atoms: C_8  and  C_9
REMARK                            x       y       z     vdW  Elec       q    Type
REMARK                         _______ _______ _______ _____ _____    ______ ____
ROOT
ATOM      1  O   UNL     1       1.013   5.027  20.575  0.00  0.00    +0.000 OA
ATOM      2  C   UNL     1       1.527   4.054  20.037  0.00  0.00    +0.000 C 
ATOM      3  C   UNL     1       1.069   2.654  20.353  0.00  0.00    +0.000 C 
ATOM      4  C   UNL     1       0.687   1.991  19.044  0.00  0.00    +0.000 C 
ATOM      5  C   UNL     1       1.875   1.952  18.080  0.00  0.00    +0.000 C 
ATOM      6  C   UNL     1       2.766   3.178  18.126  0.00  0.00    +0.000 C 
ATOM      7  C   UNL     1       2.622   4.178  19.032  0.00  0.00    +0.000 C 
ATOM      8  C   UNL     1       3.557   5.395  19.069  0.00  0.00    +0.000 C 
ATOM      9  C   UNL     1       4.613   5.286  18.006  0.00  0.00    +0.000 C 
ATOM     10  C   UNL     1       4.673   4.283  17.118  0.00  0.00    +0.000 C 
ATOM     11  C   UNL     1       5.766   4.347  16.093  0.00  0.00    +0.000 C 
ATOM     12  C   UNL     1       6.453   5.701  16.247  0.00  0.00    +0.000 C 
ATOM     13  S   UNL     1       5.950   6.346  17.849  0.00  0.00    +0.000 S 
ATOM     14  O   UNL     1       5.533   7.713  17.658  0.00  0.00    +0.000 OA
ATOM     15  O   UNL     1       6.964   5.981  18.813  0.00  0.00    +0.000 OA
ATOM     16  N   UNL     1       3.769   3.249  17.166  0.00  0.00    +0.000 N 
ATOM     17  H   UNL     1       3.905   2.449  16.552  0.00  0.00    +0.000 HD
ENDROOT
BRANCH   8  18
ATOM     18  C   UNL     1       2.805   6.715  18.975  0.00  0.00    +0.000 A 
ATOM     19  C   UNL     1       2.563   7.293  17.716  0.00  0.00    +0.000 A 
ATOM     20  C   UNL     1       1.925   8.528  17.612  0.00  0.00    +0.000 A 
ATOM     21  C   UNL     1       1.460   9.171  18.757  0.00  0.00    +0.000 A 
ATOM     22  C   UNL     1       1.650   8.582  20.006  0.00  0.00    +0.000 A 
ATOM     23 BR   UNL     1       0.927   9.395  21.551  0.00  0.00    +0.000 Br
ATOM     24  C   UNL     1       2.349   7.381  20.125  0.00  0.00    +0.000 A 
ENDBRANCH   8  18
TORSDOF 1
ENDMDL
MODEL 4
REMARK VINA RESULT:      -7.2      2.885      5.654
REMARK  Name = 
REMARK  1 active torsions:
REMARK  status: ('A' for Active; 'I' for Inactive)
REMARK    1  A    between atoms: C_8  and  C_9
REMARK                            x       y       z     vdW  Elec       q    Type
REMARK                         _______ _______ _______ _____ _____    ______ ____
ROOT
ATOM      1  O   UNL     1       3.668   2.583  18.171  0.00  0.00    +0.000 OA
ATOM      2  C   UNL     1       2.797   2.869  18.983  0.00  0.00    +0.000 C 
ATOM      3  C   UNL     1       1.975   1.801  19.655  0.00  0.00    +0.000 C 
ATOM      4  C   UNL     1       2.111   1.993  21.153  0.00  0.00    +0.000 C 
ATOM      5  C   UNL     1       1.621   3.379  21.576  0.00  0.00    +0.000 C 
ATOM      6  C   UNL     1       1.942   4.490  20.594  0.00  0.00    +0.000 C 
ATOM      7  C   UNL     1       2.495   4.276  19.373  0.00  0.00    +0.000 C 
ATOM      8  C   UNL     1       2.784   5.420  18.390  0.00  0.00    +0.000 C 
ATOM      9  C   UNL     1       2.354   6.738  18.968  0.00  0.00    +0.000 C 
ATOM     10  C   UNL     1       1.845   6.878  20.200  0.00  0.00    +0.000 C 
ATOM     11  C   UNL     1       1.507   8.272  20.641  0.00  0.00    +0.000 C 
ATOM     12  C   UNL     1       2.016   9.225  19.562  0.00  0.00    +0.000 C 
ATOM     13  S   UNL     1       2.334   8.219  18.105  0.00  0.00    +0.000 S 
ATOM     14  O   UNL     1       3.642   8.570  17.610  0.00  0.00    +0.000 OA
ATOM     15  O   UNL     1       1.158   8.267  17.267  0.00  0.00    +0.000 OA
ATOM     16  N   UNL     1       1.646   5.784  21.006  0.00  0.00    +0.000 N 
ATOM     17  H   UNL     1       1.158   5.908  21.890  0.00  0.00    +0.000 HD
ENDROOT
BRANCH   8  18
ATOM     18  C   UNL     1       4.238   5.454  17.943  0.00  0.00    +0.000 A 
ATOM     19  C   UNL     1       5.252   5.708  18.884  0.00  0.00    +0.000 A 
ATOM     20  C   UNL     1       6.585   5.799  18.485  0.00  0.00    +0.000 A 
ATOM     21  C   UNL     1       6.932   5.571  17.155  0.00  0.00    +0.000 A 
ATOM     22  C   UNL     1       5.939   5.269  16.225  0.00  0.00    +0.000 A 
ATOM     23 BR   UNL     1       6.414   4.852  14.443  0.00  0.00    +0.000 Br
ATOM     24  C   UNL     1       4.597   5.245  16.601  0.00  0.00    +0.000 A 
ENDBRANCH   8  18
TORSDOF 1
ENDMDL
MODEL 5
REMARK VINA RESULT:      -7.2      1.196      1.251
REMARK  Name = 
REMARK  1 active torsions:
REMARK  status: ('A' for Active; 'I' for Inactive)
REMARK    1  A    between atoms: C_8  and  C_9
REMARK                            x       y       z     vdW  Elec       q    Type
REMARK                         _______ _______ _______ _____ _____    ______ ____
ROOT
ATOM      1  O   UNL     1       4.471   7.219  16.399  0.00  0.00    +0.000 OA
ATOM      2  C   UNL     1       5.090   6.208  16.707  0.00  0.00    +0.000 C 
ATOM      3  C   UNL     1       6.387   5.850  16.030  0.00  0.00    +0.000 C 
ATOM      4  C   UNL     1       7.437   5.682  17.110  0.00  0.00    +0.000 C 
ATOM      5  C   UNL     1       7.038   4.584  18.099  0.00  0.00    +0.000 C 
ATOM      6  C   UNL     1       5.554   4.520  18.407  0.00  0.00    +0.000 C 
ATOM      7  C   UNL     1       4.621   5.273  17.769  0.00  0.00    +0.000 C 
ATOM      8  C   UNL     1       3.122   5.167  18.086  0.00  0.00    +0.000 C 
ATOM      9  C   UNL     1       2.876   4.131  19.146  0.00  0.00    +0.000 C 
ATOM     10  C   UNL     1       3.853   3.448  19.759  0.00  0.00    +0.000 C 
ATOM     11  C   UNL     1       3.438   2.480  20.827  0.00  0.00    +0.000 C 
ATOM     12  C   UNL     1       1.940   2.666  21.050  0.00  0.00    +0.000 C 
ATOM     13  S   UNL     1       1.325   3.587  19.633  0.00  0.00    +0.000 S 
ATOM     14  O   UNL     1       0.510   4.666  20.133  0.00  0.00    +0.000 OA
ATOM     15  O   UNL     1       0.829   2.634  18.666  0.00  0.00    +0.000 OA
ATOM     16  N   UNL     1       5.168   3.637  19.408  0.00  0.00    +0.000 N 
ATOM     17  H   UNL     1       5.876   3.027  19.812  0.00  0.00    +0.000 HD
ENDROOT
BRANCH   8  18
ATOM     18  C   UNL     1       2.507   6.507  18.462  0.00  0.00    +0.000 A 
ATOM     19  C   UNL     1       2.044   7.370  17.454  0.00  0.00    +0.000 A 
ATOM     20  C   UNL     1       1.528   8.626  17.775  0.00  0.00    +0.000 A 
ATOM     21  C   UNL     1       1.405   9.009  19.109  0.00  0.00    +0.000 A 
ATOM     22  C   UNL     1       1.815   8.139  20.117  0.00  0.00    +0.000 A 
ATOM     23 BR   UNL     1       1.551   8.607  21.929  0.00  0.00    +0.000 Br
ATOM     24  C   UNL     1       2.396   6.911  19.803  0.00  0.00    +0.000 A 
ENDBRANCH   8  18
TORSDOF 1
ENDMDL
MODEL 6
REMARK VINA RESULT:      -7.0      5.881      9.490
REMARK  Name = 
REMARK  1 active torsions:
REMARK  status: ('A' for Active; 'I' for Inactive)
REMARK    1  A    between atoms: C_8  and  C_9
REMARK                            x       y       z     vdW  Elec       q    Type
REMARK                         _______ _______ _______ _____ _____    ______ ____
ROOT
ATOM      1  O   UNL     1      -1.694   9.547  17.331  0.00  0.00    +0.000 OA
ATOM      2  C   UNL     1      -2.411  10.510  17.578  0.00  0.00    +0.000 C 
ATOM      3  C   UNL     1      -3.704  10.730  16.839  0.00  0.00    +0.000 C 
ATOM      4  C   UNL     1      -4.809  10.841  17.872  0.00  0.00    +0.000 C 
ATOM      5  C   UNL     1      -4.547  12.002  18.834  0.00  0.00    +0.000 C 
ATOM      6  C   UNL     1      -3.088  12.206  19.196  0.00  0.00    +0.000 C 
ATOM      7  C   UNL     1      -2.069  11.517  18.623  0.00  0.00    +0.000 C 
ATOM      8  C   UNL     1      -0.599  11.765  18.993  0.00  0.00    +0.000 C 
ATOM      9  C   UNL     1      -0.487  12.853  20.022  0.00  0.00    +0.000 C 
ATOM     10  C   UNL     1      -1.544  13.467  20.572  0.00  0.00    +0.000 C 
ATOM     11  C   UNL     1      -1.258  14.503  21.619  0.00  0.00    +0.000 C 
ATOM     12  C   UNL     1       0.240  14.457  21.906  0.00  0.00    +0.000 C 
ATOM     13  S   UNL     1       0.990  13.547  20.548  0.00  0.00    +0.000 S 
ATOM     14  O   UNL     1       1.874  12.561  21.119  0.00  0.00    +0.000 OA
ATOM     15  O   UNL     1       1.441  14.507  19.566  0.00  0.00    +0.000 OA
ATOM     16  N   UNL     1      -2.822  13.152  20.178  0.00  0.00    +0.000 N 
ATOM     17  H   UNL     1      -3.596  13.710  20.532  0.00  0.00    +0.000 HD
ENDROOT
BRANCH   8  18
ATOM     18  C   UNL     1       0.114  10.497  19.441  0.00  0.00    +0.000 A 
ATOM     19  C   UNL     1      -0.205   9.918  20.682  0.00  0.00    +0.000 A 
ATOM     20  C   UNL     1       0.475   8.789  21.136  0.00  0.00    +0.000 A 
ATOM     21  C   UNL     1       1.436   8.182  20.328  0.00  0.00    +0.000 A 
ATOM     22  C   UNL     1       1.722   8.720  19.075  0.00  0.00    +0.000 A 
ATOM     23 BR   UNL     1       2.944   7.841  17.931  0.00  0.00    +0.000 Br
ATOM     24  C   UNL     1       1.097   9.889  18.643  0.00  0.00    +0.000 A 
ENDBRANCH   8  18
TORSDOF 1
ENDMDL
MODEL 7
REMARK VINA RESULT:      -6.9      1.123      1.539
REMARK  Name = 
REMARK  1 active torsions:
REMARK  status: ('A' for Active; 'I' for Inactive)
REMARK    1  A    between atoms: C_8  and  C_9
REMARK                            x       y       z     vdW  Elec       q    Type
REMARK                         _______ _______ _______ _____ _____    ______ ____
ROOT
ATOM      1  O   UNL     1       4.820   8.047  17.472  0.00  0.00    +0.000 OA
ATOM      2  C   UNL     1       5.512   7.037  17.505  0.00  0.00    +0.000 C 
ATOM      3  C   UNL     1       6.901   7.023  16.923  0.00  0.00    +0.000 C 
ATOM      4  C   UNL     1       7.851   6.568  18.014  0.00  0.00    +0.000 C 
ATOM      5  C   UNL     1       7.478   5.173  18.521  0.00  0.00    +0.000 C 
ATOM      6  C   UNL     1       5.986   4.906  18.594  0.00  0.00    +0.000 C 
ATOM      7  C   UNL     1       5.045   5.765  18.126  0.00  0.00    +0.000 C 
ATOM      8  C   UNL     1       3.543   5.453  18.192  0.00  0.00    +0.000 C 
ATOM      9  C   UNL     1       3.307   4.103  18.806  0.00  0.00    +0.000 C 
ATOM     10  C   UNL     1       4.287   3.321  19.280  0.00  0.00    +0.000 C 
ATOM     11  C   UNL     1       3.876   2.019  19.903  0.00  0.00    +0.000 C 
ATOM     12  C   UNL     1       2.352   2.013  19.977  0.00  0.00    +0.000 C 
ATOM     13  S   UNL     1       1.784   3.319  18.878  0.00  0.00    +0.000 S 
ATOM     14  O   UNL     1       0.810   4.102  19.597  0.00  0.00    +0.000 OA
ATOM     15  O   UNL     1       1.494   2.723  17.594  0.00  0.00    +0.000 OA
ATOM     16  N   UNL     1       5.602   3.709  19.186  0.00  0.00    +0.000 N 
ATOM     17  H   UNL     1       6.328   3.048  19.454  0.00  0.00    +0.000 HD
ENDROOT
BRANCH   8  18
ATOM     18  C   UNL     1       2.750   6.538  18.907  0.00  0.00    +0.000 A 
ATOM     19  C   UNL     1       2.598   6.485  20.304  0.00  0.00    +0.000 A 
ATOM     20  C   UNL     1       1.829   7.437  20.972  0.00  0.00    +0.000 A 
ATOM     21  C   UNL     1       1.259   8.494  20.264  0.00  0.00    +0.000 A 
ATOM     22  C   UNL     1       1.448   8.583  18.886  0.00  0.00    +0.000 A 
ATOM     23 BR   UNL     1       0.769  10.070  17.938  0.00  0.00    +0.000 Br
ATOM     24  C   UNL     1       2.156   7.597  18.201  0.00  0.00    +0.000 A 
ENDBRANCH   8  18
TORSDOF 1
ENDMDL
MODEL 8
REMARK VINA RESULT:      -6.6      5.403      7.629
REMARK  Name = 
REMARK  1 active torsions:
REMARK  status: ('A' for Active; 'I' for Inactive)
REMARK    1  A    between atoms: C_8  and  C_9
REMARK                            x       y       z     vdW  Elec       q    Type
REMARK                         _______ _______ _______ _____ _____    ______ ____
ROOT
ATOM      1  O   UNL     1       2.260  10.713  17.592  0.00  0.00    +0.000 OA
ATOM      2  C   UNL     1       1.764   9.816  18.264  0.00  0.00    +0.000 C 
ATOM      3  C   UNL     1       1.914   8.371  17.867  0.00  0.00    +0.000 C 
ATOM      4  C   UNL     1       2.519   7.633  19.045  0.00  0.00    +0.000 C 
ATOM      5  C   UNL     1       1.628   7.750  20.284  0.00  0.00    +0.000 C 
ATOM      6  C   UNL     1       0.945   9.095  20.446  0.00  0.00    +0.000 C 
ATOM      7  C   UNL     1       0.996  10.080  19.513  0.00  0.00    +0.000 C 
ATOM      8  C   UNL     1       0.272  11.422  19.695  0.00  0.00    +0.000 C 
ATOM      9  C   UNL     1      -0.478  11.448  20.996  0.00  0.00    +0.000 C 
ATOM     10  C   UNL     1      -0.454  10.448  21.889  0.00  0.00    +0.000 C 
ATOM     11  C   UNL     1      -1.224  10.652  23.160  0.00  0.00    +0.000 C 
ATOM     12  C   UNL     1      -1.722  12.095  23.162  0.00  0.00    +0.000 C 
ATOM     13  S   UNL     1      -1.559  12.691  21.472  0.00  0.00    +0.000 S 
ATOM     14  O   UNL     1      -0.911  13.977  21.523  0.00  0.00    +0.000 OA
ATOM     15  O   UNL     1      -2.829  12.497  20.809  0.00  0.00    +0.000 OA
ATOM     16  N   UNL     1       0.245   9.294  21.630  0.00  0.00    +0.000 N 
ATOM     17  H   UNL     1       0.155   8.511  22.274  0.00  0.00    +0.000 HD
ENDROOT
BRANCH   8  18
ATOM     18  C   UNL     1       1.208  12.615  19.567  0.00  0.00    +0.000 A 
ATOM     19  C   UNL     1       1.069  13.498  18.482  0.00  0.00    +0.000 A 
ATOM     20  C   UNL     1       1.952  14.565  18.316  0.00  0.00    +0.000 A 
ATOM     21  C   UNL     1       2.943  14.804  19.266  0.00  0.00    +0.000 A 
ATOM     22  C   UNL     1       3.056  13.963  20.372  0.00  0.00    +0.000 A 
ATOM     23 BR   UNL     1       4.326  14.345  21.719  0.00  0.00    +0.000 Br
ATOM     24  C   UNL     1       2.222  12.854  20.509  0.00  0.00    +0.000 A 
ENDBRANCH   8  18
TORSDOF 1
ENDMDL
MODEL 9
REMARK VINA RESULT:      -6.5      2.791      4.651
REMARK  Name = 
REMARK  1 active torsions:
REMARK  status: ('A' for Active; 'I' for Inactive)
REMARK    1  A    between atoms: C_8  and  C_9
REMARK                            x       y       z     vdW  Elec       q    Type
REMARK                         _______ _______ _______ _____ _____    ______ ____
ROOT
ATOM      1  O   UNL     1       4.959   3.722  18.772  0.00  0.00    +0.000 OA
ATOM      2  C   UNL     1       5.223   4.793  18.240  0.00  0.00    +0.000 C 
ATOM      3  C   UNL     1       6.524   5.003  17.512  0.00  0.00    +0.000 C 
ATOM      4  C   UNL     1       6.193   5.463  16.105  0.00  0.00    +0.000 C 
ATOM      5  C   UNL     1       5.386   6.763  16.128  0.00  0.00    +0.000 C 
ATOM      6  C   UNL     1       4.383   6.864  17.261  0.00  0.00    +0.000 C 
ATOM      7  C   UNL     1       4.286   5.952  18.262  0.00  0.00    +0.000 C 
ATOM      8  C   UNL     1       3.276   6.096  19.410  0.00  0.00    +0.000 C 
ATOM      9  C   UNL     1       2.475   7.357  19.258  0.00  0.00    +0.000 C 
ATOM     10  C   UNL     1       2.601   8.197  18.220  0.00  0.00    +0.000 C 
ATOM     11  C   UNL     1       1.693   9.391  18.198  0.00  0.00    +0.000 C 
ATOM     12  C   UNL     1       0.702   9.229  19.348  0.00  0.00    +0.000 C 
ATOM     13  S   UNL     1       1.385   7.967  20.432  0.00  0.00    +0.000 S 
ATOM     14  O   UNL     1       0.332   7.027  20.726  0.00  0.00    +0.000 OA
ATOM     15  O   UNL     1       2.132   8.634  21.475  0.00  0.00    +0.000 OA
ATOM     16  N   UNL     1       3.528   7.960  17.234  0.00  0.00    +0.000 N 
ATOM     17  H   UNL     1       3.677   8.669  16.520  0.00  0.00    +0.000 HD
ENDROOT
BRANCH   8  18
ATOM     18  C   UNL     1       2.376   4.877  19.554  0.00  0.00    +0.000 A 
ATOM     19  C   UNL     1       1.689   4.380  18.433  0.00  0.00    +0.000 A 
ATOM     20  C   UNL     1       0.816   3.299  18.555  0.00  0.00    +0.000 A 
ATOM     21  C   UNL     1       0.669   2.658  19.784  0.00  0.00    +0.000 A 
ATOM     22  C   UNL     1       1.385   3.112  20.890  0.00  0.00    +0.000 A 
ATOM     23 BR   UNL     1       1.273   2.182  22.531  0.00  0.00    +0.000 Br
ATOM     24  C   UNL     1       2.206   4.235  20.792  0.00  0.00    +0.000 A 
ENDBRANCH   8  18
TORSDOF 1
ENDMDL
