MODEL 1
REMARK VINA RESULT:      -6.1      0.000      0.000
REMARK  Name = 
REMARK  10 active torsions:
REMARK  status: ('A' for Active; 'I' for Inactive)
REMARK    1  A    between atoms: C_1  and  C_2
REMARK    2  A    between atoms: C_2  and  C_3
REMARK    3  A    between atoms: C_2  and  C_7
REMARK    4  A    between atoms: C_3  and  C_4
REMARK    5  A    between atoms: C_4  and  C_5
REMARK    6  A    between atoms: C_5  and  O_6
REMARK    7  A    between atoms: C_12  and  O_13
REMARK    8  A    between atoms: C_17  and  O_18
REMARK    9  A    between atoms: C_21  and  C_22
REMARK   10  A    between atoms: C_26  and  C_27
REMARK                            x       y       z     vdW  Elec       q    Type
REMARK                         _______ _______ _______ _____ _____    ______ ____
ROOT
ATOM      1  C   UNL     1       0.522  10.559  18.898  0.00  0.00    +0.000 C 
ATOM      2  C   UNL     1      -0.871  10.523  19.584  0.00  0.00    +0.000 C 
ATOM      3  C   UNL     1      -1.296  11.979  19.835  0.00  0.00    +0.000 C 
ATOM      4  C   UNL     1      -0.264  12.825  19.099  0.00  0.00    +0.000 C 
ATOM      5  C   UNL     1      -0.058  14.293  19.530  0.00  0.00    +0.000 C 
ATOM      6  C   UNL     1      -1.311  15.181  19.410  0.00  0.00    +0.000 C 
ATOM      7  C   UNL     1      -1.027  16.616  19.874  0.00  0.00    +0.000 C 
ATOM      8  C   UNL     1       0.181  17.275  19.182  0.00  0.00    +0.000 C 
ATOM      9  C   UNL     1      -0.195  17.689  17.744  0.00  0.00    +0.000 C 
ATOM     10  C   UNL     1       0.973  18.320  16.992  0.00  0.00    +0.000 C 
ATOM     11  C   UNL     1       2.194  17.410  16.992  0.00  0.00    +0.000 C 
ATOM     12  C   UNL     1       2.595  17.059  18.417  0.00  0.00    +0.000 C 
ATOM     13  C   UNL     1       1.462  16.380  19.240  0.00  0.00    +0.000 C 
ATOM     14  C   UNL     1       1.981  16.320  20.703  0.00  0.00    +0.000 C 
ATOM     15  C   UNL     1       1.103  14.942  18.704  0.00  0.00    +0.000 C 
ATOM     16  C   UNL     1       2.346  14.040  18.520  0.00  0.00    +0.000 C 
ATOM     17  C   UNL     1       2.019  12.580  18.216  0.00  0.00    +0.000 C 
ATOM     18  C   UNL     1       1.038  11.992  19.239  0.00  0.00    +0.000 C 
ATOM     19  C   UNL     1       1.632  12.038  20.675  0.00  0.00    +0.000 C 
ENDROOT
BRANCH   1  21
ATOM     20  C   UNL     1       1.852   8.510  18.083  0.00  0.00    +0.000 C 
ATOM     21  C   UNL     1       1.422   9.345  19.297  0.00  0.00    +0.000 C 
BRANCH  21  22
ATOM     22  C   UNL     1       0.723   8.432  20.339  0.00  0.00    +0.000 C 
BRANCH  22  23
ATOM     23  C   UNL     1       1.106   8.697  21.804  0.00  0.00    +0.000 C 
BRANCH  23  24
ATOM     24  C   UNL     1      -0.073   9.105  22.683  0.00  0.00    +0.000 C 
BRANCH  24  25
ATOM     25  O   UNL     1       0.400   9.764  23.853  0.00  0.00    +0.000 OA
ATOM     26  H   UNL     1      -0.242  10.456  24.083  0.00  0.00    +0.000 HD
ENDBRANCH  24  25
ENDBRANCH  23  24
ENDBRANCH  22  23
ENDBRANCH  21  22
ENDBRANCH   1  21
BRANCH   6  27
ATOM     27  O   UNL     1      -2.381  14.674  20.198  0.00  0.00    +0.000 OA
ATOM     28  H   UNL     1      -2.354  15.113  21.065  0.00  0.00    +0.000 HD
ENDBRANCH   6  27
BRANCH  10  29
ATOM     29  O   UNL     1       0.585  18.595  15.651  0.00  0.00    +0.000 OA
ATOM     30  H   UNL     1      -0.284  19.032  15.672  0.00  0.00    +0.000 HD
ENDBRANCH  10  29
TORSDOF 7
ENDMDL
MODEL 2
REMARK VINA RESULT:      -5.9      4.101      9.442
REMARK  Name = 
REMARK  10 active torsions:
REMARK  status: ('A' for Active; 'I' for Inactive)
REMARK    1  A    between atoms: C_1  and  C_2
REMARK    2  A    between atoms: C_2  and  C_3
REMARK    3  A    between atoms: C_2  and  C_7
REMARK    4  A    between atoms: C_3  and  C_4
REMARK    5  A    between atoms: C_4  and  C_5
REMARK    6  A    between atoms: C_5  and  O_6
REMARK    7  A    between atoms: C_12  and  O_13
REMARK    8  A    between atoms: C_17  and  O_18
REMARK    9  A    between atoms: C_21  and  C_22
REMARK   10  A    between atoms: C_26  and  C_27
REMARK                            x       y       z     vdW  Elec       q    Type
REMARK                         _______ _______ _______ _____ _____    ______ ____
ROOT
ATOM      1  C   UNL     1       1.257   9.862  19.423  0.00  0.00    +0.000 C 
ATOM      2  C   UNL     1       0.593   9.245  20.683  0.00  0.00    +0.000 C 
ATOM      3  C   UNL     1       1.112   7.805  20.817  0.00  0.00    +0.000 C 
ATOM      4  C   UNL     1       2.223   7.687  19.780  0.00  0.00    +0.000 C 
ATOM      5  C   UNL     1       2.622   6.286  19.270  0.00  0.00    +0.000 C 
ATOM      6  C   UNL     1       3.130   5.324  20.360  0.00  0.00    +0.000 C 
ATOM      7  C   UNL     1       3.487   3.952  19.774  0.00  0.00    +0.000 C 
ATOM      8  C   UNL     1       4.470   4.007  18.591  0.00  0.00    +0.000 C 
ATOM      9  C   UNL     1       5.898   4.291  19.104  0.00  0.00    +0.000 C 
ATOM     10  C   UNL     1       6.917   4.392  17.973  0.00  0.00    +0.000 C 
ATOM     11  C   UNL     1       6.499   5.425  16.935  0.00  0.00    +0.000 C 
ATOM     12  C   UNL     1       5.116   5.101  16.389  0.00  0.00    +0.000 C 
ATOM     13  C   UNL     1       4.013   5.013  17.484  0.00  0.00    +0.000 C 
ATOM     14  C   UNL     1       2.753   4.451  16.768  0.00  0.00    +0.000 C 
ATOM     15  C   UNL     1       3.713   6.407  18.153  0.00  0.00    +0.000 C 
ATOM     16  C   UNL     1       3.458   7.529  17.121  0.00  0.00    +0.000 C 
ATOM     17  C   UNL     1       2.949   8.835  17.729  0.00  0.00    +0.000 C 
ATOM     18  C   UNL     1       1.729   8.604  18.630  0.00  0.00    +0.000 C 
ATOM     19  C   UNL     1       0.550   7.983  17.828  0.00  0.00    +0.000 C 
ENDROOT
BRANCH   1  21
ATOM     20  C   UNL     1       0.823  12.329  18.823  0.00  0.00    +0.000 C 
ATOM     21  C   UNL     1       0.328  10.882  18.689  0.00  0.00    +0.000 C 
BRANCH  21  22
ATOM     22  C   UNL     1      -1.138  10.783  19.188  0.00  0.00    +0.000 C 
BRANCH  22  23
ATOM     23  C   UNL     1      -2.157  10.310  18.138  0.00  0.00    +0.000 C 
BRANCH  23  24
ATOM     24  C   UNL     1      -2.851  11.450  17.399  0.00  0.00    +0.000 C 
BRANCH  24  25
ATOM     25  O   UNL     1      -2.316  11.573  16.084  0.00  0.00    +0.000 OA
ATOM     26  H   UNL     1      -2.872  12.201  15.595  0.00  0.00    +0.000 HD
ENDBRANCH  24  25
ENDBRANCH  23  24
ENDBRANCH  22  23
ENDBRANCH  21  22
ENDBRANCH   1  21
BRANCH   6  27
ATOM     27  O   UNL     1       2.148   5.123  21.369  0.00  0.00    +0.000 OA
ATOM     28  H   UNL     1       1.901   4.182  21.371  0.00  0.00    +0.000 HD
ENDBRANCH   6  27
BRANCH  10  29
ATOM     29  O   UNL     1       8.189   4.741  18.506  0.00  0.00    +0.000 OA
ATOM     30  H   UNL     1       8.508   5.530  18.036  0.00  0.00    +0.000 HD
ENDBRANCH  10  29
TORSDOF 7
ENDMDL
MODEL 3
REMARK VINA RESULT:      -5.7      1.261      1.398
REMARK  Name = 
REMARK  10 active torsions:
REMARK  status: ('A' for Active; 'I' for Inactive)
REMARK    1  A    between atoms: C_1  and  C_2
REMARK    2  A    between atoms: C_2  and  C_3
REMARK    3  A    between atoms: C_2  and  C_7
REMARK    4  A    between atoms: C_3  and  C_4
REMARK    5  A    between atoms: C_4  and  C_5
REMARK    6  A    between atoms: C_5  and  O_6
REMARK    7  A    between atoms: C_12  and  O_13
REMARK    8  A    between atoms: C_17  and  O_18
REMARK    9  A    between atoms: C_21  and  C_22
REMARK   10  A    between atoms: C_26  and  C_27
REMARK                            x       y       z     vdW  Elec       q    Type
REMARK                         _______ _______ _______ _____ _____    ______ ____
ROOT
ATOM      1  C   UNL     1       0.642  10.539  18.752  0.00  0.00    +0.000 C 
ATOM      2  C   UNL     1      -0.743  10.483  19.451  0.00  0.00    +0.000 C 
ATOM      3  C   UNL     1      -1.174  11.931  19.732  0.00  0.00    +0.000 C 
ATOM      4  C   UNL     1      -0.155  12.796  19.000  0.00  0.00    +0.000 C 
ATOM      5  C   UNL     1       0.047  14.257  19.455  0.00  0.00    +0.000 C 
ATOM      6  C   UNL     1      -1.213  15.140  19.363  0.00  0.00    +0.000 C 
ATOM      7  C   UNL     1      -0.932  16.568  19.849  0.00  0.00    +0.000 C 
ATOM      8  C   UNL     1       0.264  17.247  19.158  0.00  0.00    +0.000 C 
ATOM      9  C   UNL     1      -0.129  17.683  17.731  0.00  0.00    +0.000 C 
ATOM     10  C   UNL     1       1.028  18.334  16.978  0.00  0.00    +0.000 C 
ATOM     11  C   UNL     1       2.255  17.432  16.950  0.00  0.00    +0.000 C 
ATOM     12  C   UNL     1       2.672  17.059  18.364  0.00  0.00    +0.000 C 
ATOM     13  C   UNL     1       1.551  16.358  19.186  0.00  0.00    +0.000 C 
ATOM     14  C   UNL     1       2.086  16.276  20.643  0.00  0.00    +0.000 C 
ATOM     15  C   UNL     1       1.196  14.928  18.629  0.00  0.00    +0.000 C 
ATOM     16  C   UNL     1       2.441  14.037  18.416  0.00  0.00    +0.000 C 
ATOM     17  C   UNL     1       2.120  12.580  18.090  0.00  0.00    +0.000 C 
ATOM     18  C   UNL     1       1.153  11.969  19.112  0.00  0.00    +0.000 C 
ATOM     19  C   UNL     1       1.761  11.994  20.543  0.00  0.00    +0.000 C 
ENDROOT
BRANCH   1  21
ATOM     20  C   UNL     1       1.946   8.491  17.892  0.00  0.00    +0.000 C 
ATOM     21  C   UNL     1       1.553   9.324  19.120  0.00  0.00    +0.000 C 
BRANCH  21  22
ATOM     22  C   UNL     1       0.887   8.408  20.181  0.00  0.00    +0.000 C 
BRANCH  22  23
ATOM     23  C   UNL     1       1.841   7.449  20.911  0.00  0.00    +0.000 C 
BRANCH  23  24
ATOM     24  C   UNL     1       1.652   5.985  20.528  0.00  0.00    +0.000 C 
BRANCH  24  25
ATOM     25  O   UNL     1       2.503   5.162  21.320  0.00  0.00    +0.000 OA
ATOM     26  H   UNL     1       2.595   4.308  20.868  0.00  0.00    +0.000 HD
ENDBRANCH  24  25
ENDBRANCH  23  24
ENDBRANCH  22  23
ENDBRANCH  21  22
ENDBRANCH   1  21
BRANCH   6  27
ATOM     27  O   UNL     1      -2.271  14.613  20.153  0.00  0.00    +0.000 OA
ATOM     28  H   UNL     1      -2.011  14.671  21.088  0.00  0.00    +0.000 HD
ENDBRANCH   6  27
BRANCH  10  29
ATOM     29  O   UNL     1       0.624  18.631  15.646  0.00  0.00    +0.000 OA
ATOM     30  H   UNL     1       0.664  17.809  15.128  0.00  0.00    +0.000 HD
ENDBRANCH  10  29
TORSDOF 7
ENDMDL
MODEL 4
REMARK VINA RESULT:      -5.5      8.082     10.997
REMARK  Name = 
REMARK  10 active torsions:
REMARK  status: ('A' for Active; 'I' for Inactive)
REMARK    1  A    between atoms: C_1  and  C_2
REMARK    2  A    between atoms: C_2  and  C_3
REMARK    3  A    between atoms: C_2  and  C_7
REMARK    4  A    between atoms: C_3  and  C_4
REMARK    5  A    between atoms: C_4  and  C_5
REMARK    6  A    between atoms: C_5  and  O_6
REMARK    7  A    between atoms: C_12  and  O_13
REMARK    8  A    between atoms: C_17  and  O_18
REMARK    9  A    between atoms: C_21  and  C_22
REMARK   10  A    between atoms: C_26  and  C_27
REMARK                            x       y       z     vdW  Elec       q    Type
REMARK                         _______ _______ _______ _____ _____    ______ ____
ROOT
ATOM      1  C   UNL     1      10.713  13.427  20.522  0.00  0.00    +0.000 C 
ATOM      2  C   UNL     1      11.161  14.904  20.690  0.00  0.00    +0.000 C 
ATOM      3  C   UNL     1      10.397  15.480  21.893  0.00  0.00    +0.000 C 
ATOM      4  C   UNL     1       9.700  14.283  22.529  0.00  0.00    +0.000 C 
ATOM      5  C   UNL     1       8.463  14.528  23.420  0.00  0.00    +0.000 C 
ATOM      6  C   UNL     1       8.723  15.412  24.655  0.00  0.00    +0.000 C 
ATOM      7  C   UNL     1       7.443  15.619  25.474  0.00  0.00    +0.000 C 
ATOM      8  C   UNL     1       6.731  14.314  25.875  0.00  0.00    +0.000 C 
ATOM      9  C   UNL     1       7.497  13.627  27.025  0.00  0.00    +0.000 C 
ATOM     10  C   UNL     1       6.859  12.306  27.446  0.00  0.00    +0.000 C 
ATOM     11  C   UNL     1       6.696  11.362  26.263  0.00  0.00    +0.000 C 
ATOM     12  C   UNL     1       5.886  12.026  25.160  0.00  0.00    +0.000 C 
ATOM     13  C   UNL     1       6.494  13.367  24.653  0.00  0.00    +0.000 C 
ATOM     14  C   UNL     1       5.420  13.991  23.720  0.00  0.00    +0.000 C 
ATOM     15  C   UNL     1       7.859  13.163  23.893  0.00  0.00    +0.000 C 
ATOM     16  C   UNL     1       7.781  12.077  22.796  0.00  0.00    +0.000 C 
ATOM     17  C   UNL     1       9.014  12.008  21.896  0.00  0.00    +0.000 C 
ATOM     18  C   UNL     1       9.368  13.382  21.311  0.00  0.00    +0.000 C 
ATOM     19  C   UNL     1       8.202  13.940  20.448  0.00  0.00    +0.000 C 
ENDROOT
BRANCH   1  21
ATOM     20  C   UNL     1      11.423  11.631  18.817  0.00  0.00    +0.000 C 
ATOM     21  C   UNL     1      10.699  12.968  19.027  0.00  0.00    +0.000 C 
BRANCH  21  22
ATOM     22  C   UNL     1      11.307  14.046  18.091  0.00  0.00    +0.000 C 
BRANCH  22  23
ATOM     23  C   UNL     1      10.316  15.105  17.581  0.00  0.00    +0.000 C 
BRANCH  23  24
ATOM     24  C   UNL     1      10.972  16.218  16.770  0.00  0.00    +0.000 C 
BRANCH  24  25
ATOM     25  O   UNL     1      10.589  16.112  15.402  0.00  0.00    +0.000 OA
ATOM     26  H   UNL     1      10.038  15.317  15.309  0.00  0.00    +0.000 HD
ENDBRANCH  24  25
ENDBRANCH  23  24
ENDBRANCH  22  23
ENDBRANCH  21  22
ENDBRANCH   1  21
BRANCH   6  27
ATOM     27  O   UNL     1       9.210  16.694  24.278  0.00  0.00    +0.000 OA
ATOM     28  H   UNL     1       9.709  16.598  23.449  0.00  0.00    +0.000 HD
ENDBRANCH   6  27
BRANCH  10  29
ATOM     29  O   UNL     1       7.660  11.686  28.445  0.00  0.00    +0.000 OA
ATOM     30  H   UNL     1       7.082  11.441  29.187  0.00  0.00    +0.000 HD
ENDBRANCH  10  29
TORSDOF 7
ENDMDL
MODEL 5
REMARK VINA RESULT:      -5.5      3.799      5.245
REMARK  Name = 
REMARK  10 active torsions:
REMARK  status: ('A' for Active; 'I' for Inactive)
REMARK    1  A    between atoms: C_1  and  C_2
REMARK    2  A    between atoms: C_2  and  C_3
REMARK    3  A    between atoms: C_2  and  C_7
REMARK    4  A    between atoms: C_3  and  C_4
REMARK    5  A    between atoms: C_4  and  C_5
REMARK    6  A    between atoms: C_5  and  O_6
REMARK    7  A    between atoms: C_12  and  O_13
REMARK    8  A    between atoms: C_17  and  O_18
REMARK    9  A    between atoms: C_21  and  C_22
REMARK   10  A    between atoms: C_26  and  C_27
REMARK                            x       y       z     vdW  Elec       q    Type
REMARK                         _______ _______ _______ _____ _____    ______ ____
ROOT
ATOM      1  C   UNL     1      -0.063  11.388  18.574  0.00  0.00    +0.000 C 
ATOM      2  C   UNL     1      -1.160  10.611  17.797  0.00  0.00    +0.000 C 
ATOM      3  C   UNL     1      -2.508  10.936  18.459  0.00  0.00    +0.000 C 
ATOM      4  C   UNL     1      -2.204  12.054  19.449  0.00  0.00    +0.000 C 
ATOM      5  C   UNL     1      -3.166  12.284  20.634  0.00  0.00    +0.000 C 
ATOM      6  C   UNL     1      -4.613  12.630  20.230  0.00  0.00    +0.000 C 
ATOM      7  C   UNL     1      -5.505  12.825  21.463  0.00  0.00    +0.000 C 
ATOM      8  C   UNL     1      -4.962  13.844  22.481  0.00  0.00    +0.000 C 
ATOM      9  C   UNL     1      -5.172  15.280  21.956  0.00  0.00    +0.000 C 
ATOM     10  C   UNL     1      -4.622  16.338  22.907  0.00  0.00    +0.000 C 
ATOM     11  C   UNL     1      -3.155  16.089  23.232  0.00  0.00    +0.000 C 
ATOM     12  C   UNL     1      -2.968  14.693  23.809  0.00  0.00    +0.000 C 
ATOM     13  C   UNL     1      -3.477  13.555  22.878  0.00  0.00    +0.000 C 
ATOM     14  C   UNL     1      -3.417  12.256  23.728  0.00  0.00    +0.000 C 
ATOM     15  C   UNL     1      -2.617  13.417  21.566  0.00  0.00    +0.000 C 
ATOM     16  C   UNL     1      -1.098  13.340  21.846  0.00  0.00    +0.000 C 
ATOM     17  C   UNL     1      -0.253  12.985  20.624  0.00  0.00    +0.000 C 
ATOM     18  C   UNL     1      -0.766  11.718  19.927  0.00  0.00    +0.000 C 
ATOM     19  C   UNL     1      -0.721  10.495  20.886  0.00  0.00    +0.000 C 
ENDROOT
BRANCH   1  21
ATOM     20  C   UNL     1       2.459  11.446  18.056  0.00  0.00    +0.000 C 
ATOM     21  C   UNL     1       1.298  10.621  18.626  0.00  0.00    +0.000 C 
BRANCH  21  22
ATOM     22  C   UNL     1       1.215   9.257  17.890  0.00  0.00    +0.000 C 
BRANCH  22  23
ATOM     23  C   UNL     1       2.532   8.467  17.825  0.00  0.00    +0.000 C 
BRANCH  23  24
ATOM     24  C   UNL     1       2.423   7.045  18.366  0.00  0.00    +0.000 C 
BRANCH  24  25
ATOM     25  O   UNL     1       2.584   7.051  19.781  0.00  0.00    +0.000 OA
ATOM     26  H   UNL     1       3.331   6.469  19.997  0.00  0.00    +0.000 HD
ENDBRANCH  24  25
ENDBRANCH  23  24
ENDBRANCH  22  23
ENDBRANCH  21  22
ENDBRANCH   1  21
BRANCH   6  27
ATOM     27  O   UNL     1      -5.187  11.600  19.436  0.00  0.00    +0.000 OA
ATOM     28  H   UNL     1      -5.218  10.787  19.969  0.00  0.00    +0.000 HD
ENDBRANCH   6  27
BRANCH  10  29
ATOM     29  O   UNL     1      -4.768  17.627  22.324  0.00  0.00    +0.000 OA
ATOM     30  H   UNL     1      -3.880  17.971  22.125  0.00  0.00    +0.000 HD
ENDBRANCH  10  29
TORSDOF 7
ENDMDL
MODEL 6
REMARK VINA RESULT:      -5.4      3.474      5.150
REMARK  Name = 
REMARK  10 active torsions:
REMARK  status: ('A' for Active; 'I' for Inactive)
REMARK    1  A    between atoms: C_1  and  C_2
REMARK    2  A    between atoms: C_2  and  C_3
REMARK    3  A    between atoms: C_2  and  C_7
REMARK    4  A    between atoms: C_3  and  C_4
REMARK    5  A    between atoms: C_4  and  C_5
REMARK    6  A    between atoms: C_5  and  O_6
REMARK    7  A    between atoms: C_12  and  O_13
REMARK    8  A    between atoms: C_17  and  O_18
REMARK    9  A    between atoms: C_21  and  C_22
REMARK   10  A    between atoms: C_26  and  C_27
REMARK                            x       y       z     vdW  Elec       q    Type
REMARK                         _______ _______ _______ _____ _____    ______ ____
ROOT
ATOM      1  C   UNL     1      -0.255  11.334  18.329  0.00  0.00    +0.000 C 
ATOM      2  C   UNL     1      -1.150  10.223  17.715  0.00  0.00    +0.000 C 
ATOM      3  C   UNL     1      -2.591  10.486  18.180  0.00  0.00    +0.000 C 
ATOM      4  C   UNL     1      -2.545  11.850  18.859  0.00  0.00    +0.000 C 
ATOM      5  C   UNL     1      -3.646  12.214  19.877  0.00  0.00    +0.000 C 
ATOM      6  C   UNL     1      -5.077  12.215  19.304  0.00  0.00    +0.000 C 
ATOM      7  C   UNL     1      -6.111  12.568  20.382  0.00  0.00    +0.000 C 
ATOM      8  C   UNL     1      -5.819  13.882  21.130  0.00  0.00    +0.000 C 
ATOM      9  C   UNL     1      -6.167  15.089  20.233  0.00  0.00    +0.000 C 
ATOM     10  C   UNL     1      -5.867  16.425  20.906  0.00  0.00    +0.000 C 
ATOM     11  C   UNL     1      -4.422  16.500  21.379  0.00  0.00    +0.000 C 
ATOM     12  C   UNL     1      -4.107  15.341  22.313  0.00  0.00    +0.000 C 
ATOM     13  C   UNL     1      -4.357  13.940  21.683  0.00  0.00    +0.000 C 
ATOM     14  C   UNL     1      -4.208  12.922  22.847  0.00  0.00    +0.000 C 
ATOM     15  C   UNL     1      -3.355  13.616  20.512  0.00  0.00    +0.000 C 
ATOM     16  C   UNL     1      -1.878  13.853  20.899  0.00  0.00    +0.000 C 
ATOM     17  C   UNL     1      -0.871  13.342  19.870  0.00  0.00    +0.000 C 
ATOM     18  C   UNL     1      -1.132  11.876  19.500  0.00  0.00    +0.000 C 
ATOM     19  C   UNL     1      -1.019  10.955  20.747  0.00  0.00    +0.000 C 
ENDROOT
BRANCH   1  21
ATOM     20  C   UNL     1       2.256  11.899  18.419  0.00  0.00    +0.000 C 
ATOM     21  C   UNL     1       1.185  10.829  18.668  0.00  0.00    +0.000 C 
BRANCH  21  22
ATOM     22  C   UNL     1       1.541   9.540  17.881  0.00  0.00    +0.000 C 
BRANCH  22  23
ATOM     23  C   UNL     1       1.982   8.346  18.744  0.00  0.00    +0.000 C 
BRANCH  23  24
ATOM     24  C   UNL     1       1.522   8.435  20.196  0.00  0.00    +0.000 C 
BRANCH  24  25
ATOM     25  O   UNL     1       1.956   7.284  20.914  0.00  0.00    +0.000 OA
ATOM     26  H   UNL     1       1.984   7.515  21.857  0.00  0.00    +0.000 HD
ENDBRANCH  24  25
ENDBRANCH  23  24
ENDBRANCH  22  23
ENDBRANCH  21  22
ENDBRANCH   1  21
BRANCH   6  27
ATOM     27  O   UNL     1      -5.421  10.941  18.774  0.00  0.00    +0.000 OA
ATOM     28  H   UNL     1      -4.792  10.727  18.065  0.00  0.00    +0.000 HD
ENDBRANCH   6  27
BRANCH  10  29
ATOM     29  O   UNL     1      -6.126  17.487  19.996  0.00  0.00    +0.000 OA
ATOM     30  H   UNL     1      -6.068  17.132  19.093  0.00  0.00    +0.000 HD
ENDBRANCH  10  29
TORSDOF 7
ENDMDL
MODEL 7
REMARK VINA RESULT:      -5.4      3.664      5.691
REMARK  Name = 
REMARK  10 active torsions:
REMARK  status: ('A' for Active; 'I' for Inactive)
REMARK    1  A    between atoms: C_1  and  C_2
REMARK    2  A    between atoms: C_2  and  C_3
REMARK    3  A    between atoms: C_2  and  C_7
REMARK    4  A    between atoms: C_3  and  C_4
REMARK    5  A    between atoms: C_4  and  C_5
REMARK    6  A    between atoms: C_5  and  O_6
REMARK    7  A    between atoms: C_12  and  O_13
REMARK    8  A    between atoms: C_17  and  O_18
REMARK    9  A    between atoms: C_21  and  C_22
REMARK   10  A    between atoms: C_26  and  C_27
REMARK                            x       y       z     vdW  Elec       q    Type
REMARK                         _______ _______ _______ _____ _____    ______ ____
ROOT
ATOM      1  C   UNL     1      -0.049  11.875  20.010  0.00  0.00    +0.000 C 
ATOM      2  C   UNL     1       0.031  12.840  18.797  0.00  0.00    +0.000 C 
ATOM      3  C   UNL     1      -0.426  14.225  19.281  0.00  0.00    +0.000 C 
ATOM      4  C   UNL     1      -0.545  14.095  20.796  0.00  0.00    +0.000 C 
ATOM      5  C   UNL     1      -1.447  15.086  21.561  0.00  0.00    +0.000 C 
ATOM      6  C   UNL     1      -1.041  16.566  21.421  0.00  0.00    +0.000 C 
ATOM      7  C   UNL     1      -1.996  17.484  22.195  0.00  0.00    +0.000 C 
ATOM      8  C   UNL     1      -2.176  17.103  23.676  0.00  0.00    +0.000 C 
ATOM      9  C   UNL     1      -0.930  17.521  24.484  0.00  0.00    +0.000 C 
ATOM     10  C   UNL     1      -1.032  17.139  25.958  0.00  0.00    +0.000 C 
ATOM     11  C   UNL     1      -1.317  15.653  26.132  0.00  0.00    +0.000 C 
ATOM     12  C   UNL     1      -2.583  15.264  25.383  0.00  0.00    +0.000 C 
ATOM     13  C   UNL     1      -2.540  15.593  23.862  0.00  0.00    +0.000 C 
ATOM     14  C   UNL     1      -3.981  15.344  23.337  0.00  0.00    +0.000 C 
ATOM     15  C   UNL     1      -1.490  14.716  23.082  0.00  0.00    +0.000 C 
ATOM     16  C   UNL     1      -1.633  13.204  23.373  0.00  0.00    +0.000 C 
ATOM     17  C   UNL     1      -0.784  12.310  22.472  0.00  0.00    +0.000 C 
ATOM     18  C   UNL     1      -1.007  12.625  20.986  0.00  0.00    +0.000 C 
ATOM     19  C   UNL     1      -2.492  12.403  20.583  0.00  0.00    +0.000 C 
ENDROOT
BRANCH   1  21
ATOM     20  C   UNL     1       0.672   9.403  19.953  0.00  0.00    +0.000 C 
ATOM     21  C   UNL     1      -0.425  10.415  19.596  0.00  0.00    +0.000 C 
BRANCH  21  22
ATOM     22  C   UNL     1      -0.756  10.316  18.083  0.00  0.00    +0.000 C 
BRANCH  22  23
ATOM     23  C   UNL     1      -2.235  10.058  17.752  0.00  0.00    +0.000 C 
BRANCH  23  24
ATOM     24  C   UNL     1      -2.927  11.235  17.072  0.00  0.00    +0.000 C 
BRANCH  24  25
ATOM     25  O   UNL     1      -2.471  11.357  15.728  0.00  0.00    +0.000 OA
ATOM     26  H   UNL     1      -3.229  11.616  15.180  0.00  0.00    +0.000 HD
ENDBRANCH  24  25
ENDBRANCH  23  24
ENDBRANCH  22  23
ENDBRANCH  21  22
ENDBRANCH   1  21
BRANCH   6  27
ATOM     27  O   UNL     1      -1.052  16.977  20.060  0.00  0.00    +0.000 OA
ATOM     28  H   UNL     1      -1.050  16.181  19.501  0.00  0.00    +0.000 HD
ENDBRANCH   6  27
BRANCH  10  29
ATOM     29  O   UNL     1       0.181  17.473  26.623  0.00  0.00    +0.000 OA
ATOM     30  H   UNL     1      -0.003  18.206  27.235  0.00  0.00    +0.000 HD
ENDBRANCH  10  29
TORSDOF 7
ENDMDL
MODEL 8
REMARK VINA RESULT:      -5.4      3.924      5.874
REMARK  Name = 
REMARK  10 active torsions:
REMARK  status: ('A' for Active; 'I' for Inactive)
REMARK    1  A    between atoms: C_1  and  C_2
REMARK    2  A    between atoms: C_2  and  C_3
REMARK    3  A    between atoms: C_2  and  C_7
REMARK    4  A    between atoms: C_3  and  C_4
REMARK    5  A    between atoms: C_4  and  C_5
REMARK    6  A    between atoms: C_5  and  O_6
REMARK    7  A    between atoms: C_12  and  O_13
REMARK    8  A    between atoms: C_17  and  O_18
REMARK    9  A    between atoms: C_21  and  C_22
REMARK   10  A    between atoms: C_26  and  C_27
REMARK                            x       y       z     vdW  Elec       q    Type
REMARK                         _______ _______ _______ _____ _____    ______ ____
ROOT
ATOM      1  C   UNL     1      -0.443  12.458  19.592  0.00  0.00    +0.000 C 
ATOM      2  C   UNL     1      -1.506  11.821  18.656  0.00  0.00    +0.000 C 
ATOM      3  C   UNL     1      -2.880  12.036  19.310  0.00  0.00    +0.000 C 
ATOM      4  C   UNL     1      -2.618  12.976  20.481  0.00  0.00    +0.000 C 
ATOM      5  C   UNL     1      -3.626  13.011  21.650  0.00  0.00    +0.000 C 
ATOM      6  C   UNL     1      -5.058  13.422  21.253  0.00  0.00    +0.000 C 
ATOM      7  C   UNL     1      -5.998  13.414  22.465  0.00  0.00    +0.000 C 
ATOM      8  C   UNL     1      -5.499  14.251  23.657  0.00  0.00    +0.000 C 
ATOM      9  C   UNL     1      -5.693  15.754  23.366  0.00  0.00    +0.000 C 
ATOM     10  C   UNL     1      -5.185  16.640  24.499  0.00  0.00    +0.000 C 
ATOM     11  C   UNL     1      -3.731  16.338  24.835  0.00  0.00    +0.000 C 
ATOM     12  C   UNL     1      -3.561  14.867  25.182  0.00  0.00    +0.000 C 
ATOM     13  C   UNL     1      -4.029  13.897  24.058  0.00  0.00    +0.000 C 
ATOM     14  C   UNL     1      -3.996  12.476  24.686  0.00  0.00    +0.000 C 
ATOM     15  C   UNL     1      -3.118  13.974  22.775  0.00  0.00    +0.000 C 
ATOM     16  C   UNL     1      -1.611  13.849  23.097  0.00  0.00    +0.000 C 
ATOM     17  C   UNL     1      -0.718  13.697  21.867  0.00  0.00    +0.000 C 
ATOM     18  C   UNL     1      -1.199  12.562  20.953  0.00  0.00    +0.000 C 
ATOM     19  C   UNL     1      -1.185  11.199  21.699  0.00  0.00    +0.000 C 
ENDROOT
BRANCH   1  21
ATOM     20  C   UNL     1       2.116  12.624  19.360  0.00  0.00    +0.000 C 
ATOM     21  C   UNL     1       0.918  11.689  19.570  0.00  0.00    +0.000 C 
BRANCH  21  22
ATOM     22  C   UNL     1       0.929  10.574  18.490  0.00  0.00    +0.000 C 
BRANCH  22  23
ATOM     23  C   UNL     1       1.425   9.201  18.972  0.00  0.00    +0.000 C 
BRANCH  23  24
ATOM     24  C   UNL     1       1.139   8.927  20.445  0.00  0.00    +0.000 C 
BRANCH  24  25
ATOM     25  O   UNL     1       1.933   7.834  20.898  0.00  0.00    +0.000 OA
ATOM     26  H   UNL     1       1.400   7.026  20.815  0.00  0.00    +0.000 HD
ENDBRANCH  24  25
ENDBRANCH  23  24
ENDBRANCH  22  23
ENDBRANCH  21  22
ENDBRANCH   1  21
BRANCH   6  27
ATOM     27  O   UNL     1      -5.597  12.537  20.279  0.00  0.00    +0.000 OA
ATOM     28  H   UNL     1      -5.342  11.630  20.518  0.00  0.00    +0.000 HD
ENDBRANCH   6  27
BRANCH  10  29
ATOM     29  O   UNL     1      -5.314  18.009  24.129  0.00  0.00    +0.000 OA
ATOM     30  H   UNL     1      -4.926  18.550  24.838  0.00  0.00    +0.000 HD
ENDBRANCH  10  29
TORSDOF 7
ENDMDL
MODEL 9
REMARK VINA RESULT:      -5.3      7.820      9.335
REMARK  Name = 
REMARK  10 active torsions:
REMARK  status: ('A' for Active; 'I' for Inactive)
REMARK    1  A    between atoms: C_1  and  C_2
REMARK    2  A    between atoms: C_2  and  C_3
REMARK    3  A    between atoms: C_2  and  C_7
REMARK    4  A    between atoms: C_3  and  C_4
REMARK    5  A    between atoms: C_4  and  C_5
REMARK    6  A    between atoms: C_5  and  O_6
REMARK    7  A    between atoms: C_12  and  O_13
REMARK    8  A    between atoms: C_17  and  O_18
REMARK    9  A    between atoms: C_21  and  C_22
REMARK   10  A    between atoms: C_26  and  C_27
REMARK                            x       y       z     vdW  Elec       q    Type
REMARK                         _______ _______ _______ _____ _____    ______ ____
ROOT
ATOM      1  C   UNL     1       6.584  12.977  23.002  0.00  0.00    +0.000 C 
ATOM      2  C   UNL     1       5.543  14.077  22.659  0.00  0.00    +0.000 C 
ATOM      3  C   UNL     1       6.176  14.992  21.598  0.00  0.00    +0.000 C 
ATOM      4  C   UNL     1       7.463  14.288  21.185  0.00  0.00    +0.000 C 
ATOM      5  C   UNL     1       8.595  15.118  20.543  0.00  0.00    +0.000 C 
ATOM      6  C   UNL     1       8.209  15.826  19.230  0.00  0.00    +0.000 C 
ATOM      7  C   UNL     1       9.380  16.642  18.668  0.00  0.00    +0.000 C 
ATOM      8  C   UNL     1      10.683  15.839  18.495  0.00  0.00    +0.000 C 
ATOM      9  C   UNL     1      10.577  14.920  17.261  0.00  0.00    +0.000 C 
ATOM     10  C   UNL     1      11.827  14.070  17.054  0.00  0.00    +0.000 C 
ATOM     11  C   UNL     1      12.168  13.265  18.301  0.00  0.00    +0.000 C 
ATOM     12  C   UNL     1      12.332  14.187  19.500  0.00  0.00    +0.000 C 
ATOM     13  C   UNL     1      11.082  15.065  19.794  0.00  0.00    +0.000 C 
ATOM     14  C   UNL     1      11.527  16.082  20.882  0.00  0.00    +0.000 C 
ATOM     15  C   UNL     1       9.847  14.216  20.281  0.00  0.00    +0.000 C 
ATOM     16  C   UNL     1      10.198  13.250  21.436  0.00  0.00    +0.000 C 
ATOM     17  C   UNL     1       8.987  12.576  22.078  0.00  0.00    +0.000 C 
ATOM     18  C   UNL     1       7.923  13.599  22.497  0.00  0.00    +0.000 C 
ATOM     19  C   UNL     1       8.492  14.604  23.538  0.00  0.00    +0.000 C 
ENDROOT
BRANCH   1  21
ATOM     20  C   UNL     1       5.932  11.105  24.646  0.00  0.00    +0.000 C 
ATOM     21  C   UNL     1       6.508  12.519  24.494  0.00  0.00    +0.000 C 
BRANCH  21  22
ATOM     22  C   UNL     1       5.687  13.513  25.358  0.00  0.00    +0.000 C 
BRANCH  22  23
ATOM     23  C   UNL     1       6.012  13.499  26.860  0.00  0.00    +0.000 C 
BRANCH  23  24
ATOM     24  C   UNL     1       7.507  13.511  27.165  0.00  0.00    +0.000 C 
BRANCH  24  25
ATOM     25  O   UNL     1       7.825  12.459  28.071  0.00  0.00    +0.000 OA
ATOM     26  H   UNL     1       6.996  12.019  28.318  0.00  0.00    +0.000 HD
ENDBRANCH  24  25
ENDBRANCH  23  24
ENDBRANCH  22  23
ENDBRANCH  21  22
ENDBRANCH   1  21
BRANCH   6  27
ATOM     27  O   UNL     1       7.115  16.714  19.425  0.00  0.00    +0.000 OA
ATOM     28  H   UNL     1       6.944  16.781  20.380  0.00  0.00    +0.000 HD
ENDBRANCH   6  27
BRANCH  10  29
ATOM     29  O   UNL     1      11.628  13.186  15.956  0.00  0.00    +0.000 OA
ATOM     30  H   UNL     1      10.797  13.434  15.516  0.00  0.00    +0.000 HD
ENDBRANCH  10  29
TORSDOF 7
ENDMDL
