MODEL 1
REMARK VINA RESULT:      -8.0      0.000      0.000
REMARK  Name = 
REMARK  8 active torsions:
REMARK  status: ('A' for Active; 'I' for Inactive)
REMARK    1  A    between atoms: C_1  and  C_2
REMARK    2  A    between atoms: C_5  and  C_6
REMARK    3  A    between atoms: C_7  and  C_8
REMARK    4  A    between atoms: C_8  and  N_9
REMARK    5  A    between atoms: N_9  and  C_10
REMARK    6  A    between atoms: C_12  and  S_13
REMARK    7  A    between atoms: S_13  and  N_16
REMARK    8  A    between atoms: C_24  and  N_25
REMARK                            x       y       z     vdW  Elec       q    Type
REMARK                         _______ _______ _______ _____ _____    ______ ____
ROOT
ATOM      1  C   UNL     1       2.372   6.932  19.508  0.00  0.00    +0.000 A 
ATOM      2  C   UNL     1       3.383   6.547  18.611  0.00  0.00    +0.000 A 
ATOM      3  C   UNL     1       3.823   7.389  17.596  0.00  0.00    +0.000 A 
ATOM      4  C   UNL     1       3.274   8.649  17.455  0.00  0.00    +0.000 A 
ATOM      5  C   UNL     1       2.269   9.064  18.343  0.00  0.00    +0.000 A 
ATOM      6  C   UNL     1       1.804   8.235  19.387  0.00  0.00    +0.000 A 
ENDROOT
BRANCH   6   7
ATOM      7  N   UNL     1       0.872   8.693  20.329  0.00  0.00    +0.000 N 
ATOM      8  C   UNL     1       1.247   8.770  21.742  0.00  0.00    +0.000 C 
ATOM      9  C   UNL     1      -0.045   9.264  22.374  0.00  0.00    +0.000 C 
ATOM     10  C   UNL     1      -0.588  10.258  21.350  0.00  0.00    +0.000 C 
ATOM     11  C   UNL     1       0.116   9.915  20.022  0.00  0.00    +0.000 C 
ENDBRANCH   6   7
BRANCH   3  12
ATOM     12  S   UNL     1       5.215   6.866  16.616  0.00  0.00    +0.000 S 
ATOM     13  O   UNL     1       4.832   7.010  15.225  0.00  0.00    +0.000 OA
ATOM     14  O   UNL     1       6.386   7.530  17.149  0.00  0.00    +0.000 OA
BRANCH  12  15
ATOM     15  N   UNL     1       5.331   5.192  16.965  0.00  0.00    +0.000 NA
ATOM     16  C   UNL     1       6.166   4.802  18.149  0.00  0.00    +0.000 C 
ATOM     17  C   UNL     1       7.667   4.827  17.808  0.00  0.00    +0.000 C 
ATOM     18  O   UNL     1       7.966   4.027  16.654  0.00  0.00    +0.000 OA
ATOM     19  C   UNL     1       7.195   4.433  15.512  0.00  0.00    +0.000 C 
ATOM     20  C   UNL     1       5.695   4.320  15.807  0.00  0.00    +0.000 C 
ENDBRANCH  12  15
ENDBRANCH   3  12
BRANCH   1  21
ATOM     21  N   UNL     1       2.089   6.129  20.632  0.00  0.00    +0.000 N 
ATOM     22  H   UNL     1       2.134   6.668  21.492  0.00  0.00    +0.000 HD
BRANCH  21  23
ATOM     23  C   UNL     1       1.048   5.114  20.558  0.00  0.00    +0.000 C 
BRANCH  23  30
ATOM     24  C   UNL     1       1.120   4.284  17.431  0.00  0.00    +0.000 C 
ATOM     25  C   UNL     1       1.451   3.440  18.606  0.00  0.00    +0.000 A 
ATOM     26  N   UNL     1       1.765   2.149  18.449  0.00  0.00    +0.000 NA
ATOM     27  O   UNL     1       1.929   1.643  19.724  0.00  0.00    +0.000 OA
ATOM     28  C   UNL     1       1.710   2.627  20.635  0.00  0.00    +0.000 A 
ATOM     29  C   UNL     1       1.757   2.236  22.056  0.00  0.00    +0.000 C 
ATOM     30  C   UNL     1       1.429   3.804  19.979  0.00  0.00    +0.000 A 
ENDBRANCH  23  30
ENDBRANCH  21  23
ENDBRANCH   1  21
TORSDOF 6
ENDMDL
MODEL 2
REMARK VINA RESULT:      -8.0      0.406      1.508
REMARK  Name = 
REMARK  8 active torsions:
REMARK  status: ('A' for Active; 'I' for Inactive)
REMARK    1  A    between atoms: C_1  and  C_2
REMARK    2  A    between atoms: C_5  and  C_6
REMARK    3  A    between atoms: C_7  and  C_8
REMARK    4  A    between atoms: C_8  and  N_9
REMARK    5  A    between atoms: N_9  and  C_10
REMARK    6  A    between atoms: C_12  and  S_13
REMARK    7  A    between atoms: S_13  and  N_16
REMARK    8  A    between atoms: C_24  and  N_25
REMARK                            x       y       z     vdW  Elec       q    Type
REMARK                         _______ _______ _______ _____ _____    ______ ____
ROOT
ATOM      1  C   UNL     1       2.349   6.877  19.550  0.00  0.00    +0.000 A 
ATOM      2  C   UNL     1       3.347   6.505  18.633  0.00  0.00    +0.000 A 
ATOM      3  C   UNL     1       3.790   7.371  17.639  0.00  0.00    +0.000 A 
ATOM      4  C   UNL     1       3.257   8.641  17.540  0.00  0.00    +0.000 A 
ATOM      5  C   UNL     1       2.265   9.044  18.447  0.00  0.00    +0.000 A 
ATOM      6  C   UNL     1       1.797   8.191  19.471  0.00  0.00    +0.000 A 
ENDROOT
BRANCH   6   7
ATOM      7  N   UNL     1       0.879   8.634  20.433  0.00  0.00    +0.000 N 
ATOM      8  C   UNL     1       1.314   8.821  21.819  0.00  0.00    +0.000 C 
ATOM      9  C   UNL     1       0.020   9.255  22.489  0.00  0.00    +0.000 C 
ATOM     10  C   UNL     1      -0.644  10.146  21.442  0.00  0.00    +0.000 C 
ATOM     11  C   UNL     1       0.019   9.778  20.100  0.00  0.00    +0.000 C 
ENDBRANCH   6   7
BRANCH   3  12
ATOM     12  S   UNL     1       5.167   6.857  16.634  0.00  0.00    +0.000 S 
ATOM     13  O   UNL     1       4.760   7.006  15.250  0.00  0.00    +0.000 OA
ATOM     14  O   UNL     1       6.344   7.523  17.149  0.00  0.00    +0.000 OA
BRANCH  12  15
ATOM     15  N   UNL     1       5.296   5.182  16.972  0.00  0.00    +0.000 NA
ATOM     16  C   UNL     1       6.141   4.791  18.148  0.00  0.00    +0.000 C 
ATOM     17  C   UNL     1       7.640   4.826  17.796  0.00  0.00    +0.000 C 
ATOM     18  O   UNL     1       7.935   4.034  16.636  0.00  0.00    +0.000 OA
ATOM     19  C   UNL     1       7.153   4.442  15.501  0.00  0.00    +0.000 C 
ATOM     20  C   UNL     1       5.656   4.319  15.807  0.00  0.00    +0.000 C 
ENDBRANCH  12  15
ENDBRANCH   3  12
BRANCH   1  21
ATOM     21  N   UNL     1       2.064   6.047  20.652  0.00  0.00    +0.000 N 
ATOM     22  H   UNL     1       2.086   6.569  21.524  0.00  0.00    +0.000 HD
BRANCH  21  23
ATOM     23  C   UNL     1       1.044   5.014  20.542  0.00  0.00    +0.000 C 
BRANCH  23  30
ATOM     24  C   UNL     1       2.347   2.366  21.869  0.00  0.00    +0.000 C 
ATOM     25  C   UNL     1       2.013   2.600  20.443  0.00  0.00    +0.000 A 
ATOM     26  N   UNL     1       2.314   1.684  19.514  0.00  0.00    +0.000 NA
ATOM     27  O   UNL     1       1.954   2.243  18.303  0.00  0.00    +0.000 OA
ATOM     28  C   UNL     1       1.447   3.486  18.508  0.00  0.00    +0.000 A 
ATOM     29  C   UNL     1       1.095   4.264  17.307  0.00  0.00    +0.000 C 
ATOM     30  C   UNL     1       1.433   3.758  19.858  0.00  0.00    +0.000 A 
ENDBRANCH  23  30
ENDBRANCH  21  23
ENDBRANCH   1  21
TORSDOF 6
ENDMDL
MODEL 3
REMARK VINA RESULT:      -8.0      3.374      7.308
REMARK  Name = 
REMARK  8 active torsions:
REMARK  status: ('A' for Active; 'I' for Inactive)
REMARK    1  A    between atoms: C_1  and  C_2
REMARK    2  A    between atoms: C_5  and  C_6
REMARK    3  A    between atoms: C_7  and  C_8
REMARK    4  A    between atoms: C_8  and  N_9
REMARK    5  A    between atoms: N_9  and  C_10
REMARK    6  A    between atoms: C_12  and  S_13
REMARK    7  A    between atoms: S_13  and  N_16
REMARK    8  A    between atoms: C_24  and  N_25
REMARK                            x       y       z     vdW  Elec       q    Type
REMARK                         _______ _______ _______ _____ _____    ______ ____
ROOT
ATOM      1  C   UNL     1       2.718   6.466  18.943  0.00  0.00    +0.000 A 
ATOM      2  C   UNL     1       2.201   7.647  19.504  0.00  0.00    +0.000 A 
ATOM      3  C   UNL     1       1.322   7.624  20.581  0.00  0.00    +0.000 A 
ATOM      4  C   UNL     1       0.943   6.419  21.140  0.00  0.00    +0.000 A 
ATOM      5  C   UNL     1       1.450   5.224  20.606  0.00  0.00    +0.000 A 
ATOM      6  C   UNL     1       2.348   5.213  19.516  0.00  0.00    +0.000 A 
ENDROOT
BRANCH   6   7
ATOM      7  N   UNL     1       2.926   4.023  19.054  0.00  0.00    +0.000 N 
ATOM      8  C   UNL     1       3.401   3.026  20.016  0.00  0.00    +0.000 C 
ATOM      9  C   UNL     1       3.968   1.958  19.094  0.00  0.00    +0.000 C 
ATOM     10  C   UNL     1       2.989   1.940  17.922  0.00  0.00    +0.000 C 
ATOM     11  C   UNL     1       2.242   3.287  17.982  0.00  0.00    +0.000 C 
ENDBRANCH   6   7
BRANCH   3  12
ATOM     12  S   UNL     1       0.853   9.178  21.314  0.00  0.00    +0.000 S 
ATOM     13  O   UNL     1      -0.561   9.091  21.622  0.00  0.00    +0.000 OA
ATOM     14  O   UNL     1       1.832   9.480  22.337  0.00  0.00    +0.000 OA
BRANCH  12  15
ATOM     15  N   UNL     1       1.050  10.292  20.027  0.00  0.00    +0.000 NA
ATOM     16  C   UNL     1       1.185  11.740  20.397  0.00  0.00    +0.000 C 
ATOM     17  C   UNL     1      -0.185  12.365  20.719  0.00  0.00    +0.000 C 
ATOM     18  O   UNL     1      -1.125  12.170  19.651  0.00  0.00    +0.000 OA
ATOM     19  C   UNL     1      -1.282  10.778  19.330  0.00  0.00    +0.000 C 
ATOM     20  C   UNL     1       0.060  10.167  18.914  0.00  0.00    +0.000 C 
ENDBRANCH  12  15
ENDBRANCH   3  12
BRANCH   1  21
ATOM     21  N   UNL     1       3.745   6.538  17.982  0.00  0.00    +0.000 N 
ATOM     22  H   UNL     1       3.669   7.382  17.422  0.00  0.00    +0.000 HD
BRANCH  21  23
ATOM     23  C   UNL     1       5.094   6.107  18.323  0.00  0.00    +0.000 C 
BRANCH  23  30
ATOM     24  C   UNL     1       5.277   4.057  15.826  0.00  0.00    +0.000 C 
ATOM     25  C   UNL     1       6.175   5.196  16.137  0.00  0.00    +0.000 A 
ATOM     26  N   UNL     1       7.255   5.437  15.384  0.00  0.00    +0.000 NA
ATOM     27  O   UNL     1       7.908   6.494  15.989  0.00  0.00    +0.000 OA
ATOM     28  C   UNL     1       7.224   6.877  17.097  0.00  0.00    +0.000 A 
ATOM     29  C   UNL     1       7.833   7.941  17.917  0.00  0.00    +0.000 C 
ATOM     30  C   UNL     1       6.092   6.103  17.228  0.00  0.00    +0.000 A 
ENDBRANCH  23  30
ENDBRANCH  21  23
ENDBRANCH   1  21
TORSDOF 6
ENDMDL
MODEL 4
REMARK VINA RESULT:      -7.9      3.341      6.621
REMARK  Name = 
REMARK  8 active torsions:
REMARK  status: ('A' for Active; 'I' for Inactive)
REMARK    1  A    between atoms: C_1  and  C_2
REMARK    2  A    between atoms: C_5  and  C_6
REMARK    3  A    between atoms: C_7  and  C_8
REMARK    4  A    between atoms: C_8  and  N_9
REMARK    5  A    between atoms: N_9  and  C_10
REMARK    6  A    between atoms: C_12  and  S_13
REMARK    7  A    between atoms: S_13  and  N_16
REMARK    8  A    between atoms: C_24  and  N_25
REMARK                            x       y       z     vdW  Elec       q    Type
REMARK                         _______ _______ _______ _____ _____    ______ ____
ROOT
ATOM      1  C   UNL     1       2.691   6.795  19.729  0.00  0.00    +0.000 A 
ATOM      2  C   UNL     1       1.747   7.809  19.969  0.00  0.00    +0.000 A 
ATOM      3  C   UNL     1       1.509   8.823  19.048  0.00  0.00    +0.000 A 
ATOM      4  C   UNL     1       2.200   8.848  17.851  0.00  0.00    +0.000 A 
ATOM      5  C   UNL     1       3.142   7.843  17.581  0.00  0.00    +0.000 A 
ATOM      6  C   UNL     1       3.403   6.796  18.493  0.00  0.00    +0.000 A 
ENDROOT
BRANCH   6   7
ATOM      7  N   UNL     1       4.272   5.744  18.173  0.00  0.00    +0.000 N 
ATOM      8  C   UNL     1       4.576   5.456  16.770  0.00  0.00    +0.000 C 
ATOM      9  C   UNL     1       5.494   4.251  16.898  0.00  0.00    +0.000 C 
ATOM     10  C   UNL     1       6.330   4.567  18.137  0.00  0.00    +0.000 C 
ATOM     11  C   UNL     1       5.536   5.636  18.913  0.00  0.00    +0.000 C 
ENDBRANCH   6   7
BRANCH   3  12
ATOM     12  S   UNL     1       0.183   9.964  19.380  0.00  0.00    +0.000 S 
ATOM     13  O   UNL     1      -0.660   9.987  18.201  0.00  0.00    +0.000 OA
ATOM     14  O   UNL     1      -0.351   9.630  20.683  0.00  0.00    +0.000 OA
BRANCH  12  15
ATOM     15  N   UNL     1       0.985  11.475  19.490  0.00  0.00    +0.000 NA
ATOM     16  C   UNL     1       1.230  12.014  20.868  0.00  0.00    +0.000 C 
ATOM     17  C   UNL     1      -0.041  12.656  21.452  0.00  0.00    +0.000 C 
ATOM     18  O   UNL     1      -0.588  13.653  20.576  0.00  0.00    +0.000 OA
ATOM     19  C   UNL     1      -0.861  13.120  19.269  0.00  0.00    +0.000 C 
ATOM     20  C   UNL     1       0.420  12.564  18.637  0.00  0.00    +0.000 C 
ENDBRANCH  12  15
ENDBRANCH   3  12
BRANCH   1  21
ATOM     21  N   UNL     1       2.766   5.688  20.597  0.00  0.00    +0.000 N 
ATOM     22  H   UNL     1       2.957   5.978  21.551  0.00  0.00    +0.000 HD
BRANCH  21  23
ATOM     23  C   UNL     1       1.847   4.570  20.433  0.00  0.00    +0.000 C 
BRANCH  23  30
ATOM     24  C   UNL     1       4.011   2.198  20.839  0.00  0.00    +0.000 C 
ATOM     25  C   UNL     1       3.191   2.487  19.637  0.00  0.00    +0.000 A 
ATOM     26  N   UNL     1       3.348   1.770  18.518  0.00  0.00    +0.000 NA
ATOM     27  O   UNL     1       2.509   2.344  17.582  0.00  0.00    +0.000 OA
ATOM     28  C   UNL     1       1.860   3.400  18.139  0.00  0.00    +0.000 A 
ATOM     29  C   UNL     1       0.988   4.186  17.248  0.00  0.00    +0.000 C 
ATOM     30  C   UNL     1       2.234   3.522  19.459  0.00  0.00    +0.000 A 
ENDBRANCH  23  30
ENDBRANCH  21  23
ENDBRANCH   1  21
TORSDOF 6
ENDMDL
MODEL 5
REMARK VINA RESULT:      -7.8      3.300      7.252
REMARK  Name = 
REMARK  8 active torsions:
REMARK  status: ('A' for Active; 'I' for Inactive)
REMARK    1  A    between atoms: C_1  and  C_2
REMARK    2  A    between atoms: C_5  and  C_6
REMARK    3  A    between atoms: C_7  and  C_8
REMARK    4  A    between atoms: C_8  and  N_9
REMARK    5  A    between atoms: N_9  and  C_10
REMARK    6  A    between atoms: C_12  and  S_13
REMARK    7  A    between atoms: S_13  and  N_16
REMARK    8  A    between atoms: C_24  and  N_25
REMARK                            x       y       z     vdW  Elec       q    Type
REMARK                         _______ _______ _______ _____ _____    ______ ____
ROOT
ATOM      1  C   UNL     1       2.815   6.469  18.618  0.00  0.00    +0.000 A 
ATOM      2  C   UNL     1       2.258   7.633  19.176  0.00  0.00    +0.000 A 
ATOM      3  C   UNL     1       1.492   7.597  20.336  0.00  0.00    +0.000 A 
ATOM      4  C   UNL     1       1.269   6.396  20.981  0.00  0.00    +0.000 A 
ATOM      5  C   UNL     1       1.819   5.219  20.452  0.00  0.00    +0.000 A 
ATOM      6  C   UNL     1       2.607   5.222  19.279  0.00  0.00    +0.000 A 
ENDROOT
BRANCH   6   7
ATOM      7  N   UNL     1       3.234   4.058  18.813  0.00  0.00    +0.000 N 
ATOM      8  C   UNL     1       4.228   3.385  19.652  0.00  0.00    +0.000 C 
ATOM      9  C   UNL     1       4.656   2.234  18.755  0.00  0.00    +0.000 C 
ATOM     10  C   UNL     1       3.356   1.808  18.075  0.00  0.00    +0.000 C 
ATOM     11  C   UNL     1       2.398   3.007  18.218  0.00  0.00    +0.000 C 
ENDBRANCH   6   7
BRANCH   3  12
ATOM     12  S   UNL     1       0.969   9.145  21.044  0.00  0.00    +0.000 S 
ATOM     13  O   UNL     1      -0.424   8.992  21.415  0.00  0.00    +0.000 OA
ATOM     14  O   UNL     1       1.971   9.530  22.015  0.00  0.00    +0.000 OA
BRANCH  12  15
ATOM     15  N   UNL     1       1.050  10.228  19.718  0.00  0.00    +0.000 NA
ATOM     16  C   UNL     1       1.439  11.645  20.022  0.00  0.00    +0.000 C 
ATOM     17  C   UNL     1       0.251  12.442  20.590  0.00  0.00    +0.000 C 
ATOM     18  O   UNL     1      -0.898  12.374  19.731  0.00  0.00    +0.000 OA
ATOM     19  C   UNL     1      -1.291  11.015  19.477  0.00  0.00    +0.000 C 
ATOM     20  C   UNL     1      -0.146  10.236  18.822  0.00  0.00    +0.000 C 
ENDBRANCH  12  15
ENDBRANCH   3  12
BRANCH   1  21
ATOM     21  N   UNL     1       3.736   6.571  17.557  0.00  0.00    +0.000 N 
ATOM     22  H   UNL     1       3.328   7.050  16.759  0.00  0.00    +0.000 HD
BRANCH  21  23
ATOM     23  C   UNL     1       5.138   6.850  17.833  0.00  0.00    +0.000 C 
BRANCH  23  30
ATOM     24  C   UNL     1       7.639   5.688  19.525  0.00  0.00    +0.000 C 
ATOM     25  C   UNL     1       7.224   5.325  18.148  0.00  0.00    +0.000 A 
ATOM     26  N   UNL     1       7.953   4.470  17.421  0.00  0.00    +0.000 NA
ATOM     27  O   UNL     1       7.347   4.420  16.179  0.00  0.00    +0.000 OA
ATOM     28  C   UNL     1       6.267   5.244  16.167  0.00  0.00    +0.000 A 
ATOM     29  C   UNL     1       5.553   5.380  14.884  0.00  0.00    +0.000 C 
ATOM     30  C   UNL     1       6.121   5.827  17.406  0.00  0.00    +0.000 A 
ENDBRANCH  23  30
ENDBRANCH  21  23
ENDBRANCH   1  21
TORSDOF 6
ENDMDL
MODEL 6
REMARK VINA RESULT:      -7.8      3.472      6.496
REMARK  Name = 
REMARK  8 active torsions:
REMARK  status: ('A' for Active; 'I' for Inactive)
REMARK    1  A    between atoms: C_1  and  C_2
REMARK    2  A    between atoms: C_5  and  C_6
REMARK    3  A    between atoms: C_7  and  C_8
REMARK    4  A    between atoms: C_8  and  N_9
REMARK    5  A    between atoms: N_9  and  C_10
REMARK    6  A    between atoms: C_12  and  S_13
REMARK    7  A    between atoms: S_13  and  N_16
REMARK    8  A    between atoms: C_24  and  N_25
REMARK                            x       y       z     vdW  Elec       q    Type
REMARK                         _______ _______ _______ _____ _____    ______ ____
ROOT
ATOM      1  C   UNL     1       2.288   7.214  19.783  0.00  0.00    +0.000 A 
ATOM      2  C   UNL     1       1.455   8.325  19.999  0.00  0.00    +0.000 A 
ATOM      3  C   UNL     1       1.364   9.364  19.078  0.00  0.00    +0.000 A 
ATOM      4  C   UNL     1       2.096   9.316  17.907  0.00  0.00    +0.000 A 
ATOM      5  C   UNL     1       2.930   8.215  17.662  0.00  0.00    +0.000 A 
ATOM      6  C   UNL     1       3.040   7.141  18.573  0.00  0.00    +0.000 A 
ENDROOT
BRANCH   6   7
ATOM      7  N   UNL     1       3.797   6.000  18.275  0.00  0.00    +0.000 N 
ATOM      8  C   UNL     1       4.414   5.864  16.953  0.00  0.00    +0.000 C 
ATOM      9  C   UNL     1       5.078   4.501  17.066  0.00  0.00    +0.000 C 
ATOM     10  C   UNL     1       5.596   4.471  18.502  0.00  0.00    +0.000 C 
ATOM     11  C   UNL     1       4.792   5.548  19.257  0.00  0.00    +0.000 C 
ENDBRANCH   6   7
BRANCH   3  12
ATOM     12  S   UNL     1       0.162  10.643  19.374  0.00  0.00    +0.000 S 
ATOM     13  O   UNL     1      -0.671  10.723  18.190  0.00  0.00    +0.000 OA
ATOM     14  O   UNL     1      -0.407  10.401  20.682  0.00  0.00    +0.000 OA
BRANCH  12  15
ATOM     15  N   UNL     1       1.115  12.066  19.450  0.00  0.00    +0.000 NA
ATOM     16  C   UNL     1       1.320  12.673  20.806  0.00  0.00    +0.000 C 
ATOM     17  C   UNL     1       0.089  13.485  21.247  0.00  0.00    +0.000 C 
ATOM     18  O   UNL     1      -0.281  14.469  20.269  0.00  0.00    +0.000 OA
ATOM     19  C   UNL     1      -0.518  13.875  18.982  0.00  0.00    +0.000 C 
ATOM     20  C   UNL     1       0.735  13.144  18.487  0.00  0.00    +0.000 C 
ENDBRANCH  12  15
ENDBRANCH   3  12
BRANCH   1  21
ATOM     21  N   UNL     1       2.209   6.101  20.644  0.00  0.00    +0.000 N 
ATOM     22  H   UNL     1       2.469   6.349  21.594  0.00  0.00    +0.000 HD
BRANCH  21  23
ATOM     23  C   UNL     1       1.120   5.144  20.500  0.00  0.00    +0.000 C 
BRANCH  23  30
ATOM     24  C   UNL     1       1.130   4.295  17.377  0.00  0.00    +0.000 C 
ATOM     25  C   UNL     1       1.457   3.450  18.552  0.00  0.00    +0.000 A 
ATOM     26  N   UNL     1       1.737   2.150  18.399  0.00  0.00    +0.000 NA
ATOM     27  O   UNL     1       1.906   1.648  19.676  0.00  0.00    +0.000 OA
ATOM     28  C   UNL     1       1.723   2.642  20.583  0.00  0.00    +0.000 A 
ATOM     29  C   UNL     1       1.779   2.258  22.005  0.00  0.00    +0.000 C 
ATOM     30  C   UNL     1       1.462   3.822  19.923  0.00  0.00    +0.000 A 
ENDBRANCH  23  30
ENDBRANCH  21  23
ENDBRANCH   1  21
TORSDOF 6
ENDMDL
MODEL 7
REMARK VINA RESULT:      -7.8      3.240      6.634
REMARK  Name = 
REMARK  8 active torsions:
REMARK  status: ('A' for Active; 'I' for Inactive)
REMARK    1  A    between atoms: C_1  and  C_2
REMARK    2  A    between atoms: C_5  and  C_6
REMARK    3  A    between atoms: C_7  and  C_8
REMARK    4  A    between atoms: C_8  and  N_9
REMARK    5  A    between atoms: N_9  and  C_10
REMARK    6  A    between atoms: C_12  and  S_13
REMARK    7  A    between atoms: S_13  and  N_16
REMARK    8  A    between atoms: C_24  and  N_25
REMARK                            x       y       z     vdW  Elec       q    Type
REMARK                         _______ _______ _______ _____ _____    ______ ____
ROOT
ATOM      1  C   UNL     1       2.865   6.656  19.751  0.00  0.00    +0.000 A 
ATOM      2  C   UNL     1       1.924   7.638  20.105  0.00  0.00    +0.000 A 
ATOM      3  C   UNL     1       1.610   8.694  19.256  0.00  0.00    +0.000 A 
ATOM      4  C   UNL     1       2.219   8.793  18.020  0.00  0.00    +0.000 A 
ATOM      5  C   UNL     1       3.157   7.822  17.636  0.00  0.00    +0.000 A 
ATOM      6  C   UNL     1       3.494   6.734  18.473  0.00  0.00    +0.000 A 
ENDROOT
BRANCH   6   7
ATOM      7  N   UNL     1       4.356   5.717  18.042  0.00  0.00    +0.000 N 
ATOM      8  C   UNL     1       4.529   5.471  16.609  0.00  0.00    +0.000 C 
ATOM      9  C   UNL     1       5.488   4.292  16.615  0.00  0.00    +0.000 C 
ATOM     10  C   UNL     1       6.432   4.604  17.774  0.00  0.00    +0.000 C 
ATOM     11  C   UNL     1       5.689   5.629  18.653  0.00  0.00    +0.000 C 
ENDBRANCH   6   7
BRANCH   3  12
ATOM     12  S   UNL     1       0.290   9.790  19.734  0.00  0.00    +0.000 S 
ATOM     13  O   UNL     1       0.124  10.747  18.657  0.00  0.00    +0.000 OA
ATOM     14  O   UNL     1      -0.809   8.964  20.186  0.00  0.00    +0.000 OA
BRANCH  12  15
ATOM     15  N   UNL     1       0.941  10.619  21.086  0.00  0.00    +0.000 NA
ATOM     16  C   UNL     1       0.972   9.874  22.388  0.00  0.00    +0.000 C 
ATOM     17  C   UNL     1      -0.411   9.873  23.064  0.00  0.00    +0.000 C 
ATOM     18  O   UNL     1      -0.932  11.202  23.219  0.00  0.00    +0.000 OA
ATOM     19  C   UNL     1      -0.999  11.896  21.962  0.00  0.00    +0.000 C 
ATOM     20  C   UNL     1       0.391  11.988  21.323  0.00  0.00    +0.000 C 
ENDBRANCH  12  15
ENDBRANCH   3  12
BRANCH   1  21
ATOM     21  N   UNL     1       3.015   5.507  20.553  0.00  0.00    +0.000 N 
ATOM     22  H   UNL     1       3.269   5.752  21.505  0.00  0.00    +0.000 HD
BRANCH  21  23
ATOM     23  C   UNL     1       2.101   4.385  20.395  0.00  0.00    +0.000 C 
BRANCH  23  30
ATOM     24  C   UNL     1       4.353   2.066  20.551  0.00  0.00    +0.000 C 
ATOM     25  C   UNL     1       3.437   2.372  19.424  0.00  0.00    +0.000 A 
ATOM     26  N   UNL     1       3.530   1.701  18.270  0.00  0.00    +0.000 NA
ATOM     27  O   UNL     1       2.608   2.283  17.421  0.00  0.00    +0.000 OA
ATOM     28  C   UNL     1       1.974   3.298  18.064  0.00  0.00    +0.000 A 
ATOM     29  C   UNL     1       1.016   4.089  17.270  0.00  0.00    +0.000 C 
ATOM     30  C   UNL     1       2.442   3.384  19.356  0.00  0.00    +0.000 A 
ENDBRANCH  23  30
ENDBRANCH  21  23
ENDBRANCH   1  21
TORSDOF 6
ENDMDL
MODEL 8
REMARK VINA RESULT:      -7.8      3.351      6.605
REMARK  Name = 
REMARK  8 active torsions:
REMARK  status: ('A' for Active; 'I' for Inactive)
REMARK    1  A    between atoms: C_1  and  C_2
REMARK    2  A    between atoms: C_5  and  C_6
REMARK    3  A    between atoms: C_7  and  C_8
REMARK    4  A    between atoms: C_8  and  N_9
REMARK    5  A    between atoms: N_9  and  C_10
REMARK    6  A    between atoms: C_12  and  S_13
REMARK    7  A    between atoms: S_13  and  N_16
REMARK    8  A    between atoms: C_24  and  N_25
REMARK                            x       y       z     vdW  Elec       q    Type
REMARK                         _______ _______ _______ _____ _____    ______ ____
ROOT
ATOM      1  C   UNL     1       2.286   7.249  19.777  0.00  0.00    +0.000 A 
ATOM      2  C   UNL     1       1.457   8.362  19.997  0.00  0.00    +0.000 A 
ATOM      3  C   UNL     1       1.373   9.407  19.083  0.00  0.00    +0.000 A 
ATOM      4  C   UNL     1       2.107   9.364  17.913  0.00  0.00    +0.000 A 
ATOM      5  C   UNL     1       2.937   8.261  17.663  0.00  0.00    +0.000 A 
ATOM      6  C   UNL     1       3.041   7.181  18.568  0.00  0.00    +0.000 A 
ENDROOT
BRANCH   6   7
ATOM      7  N   UNL     1       3.794   6.039  18.265  0.00  0.00    +0.000 N 
ATOM      8  C   UNL     1       4.435   5.920  16.953  0.00  0.00    +0.000 C 
ATOM      9  C   UNL     1       5.086   4.549  17.055  0.00  0.00    +0.000 C 
ATOM     10  C   UNL     1       5.576   4.492  18.500  0.00  0.00    +0.000 C 
ATOM     11  C   UNL     1       4.767   5.562  19.258  0.00  0.00    +0.000 C 
ENDBRANCH   6   7
BRANCH   3  12
ATOM     12  S   UNL     1       0.175  10.690  19.382  0.00  0.00    +0.000 S 
ATOM     13  O   UNL     1       0.426  11.738  18.414  0.00  0.00    +0.000 OA
ATOM     14  O   UNL     1      -1.120  10.050  19.484  0.00  0.00    +0.000 OA
BRANCH  12  15
ATOM     15  N   UNL     1       0.613  11.280  20.931  0.00  0.00    +0.000 NA
ATOM     16  C   UNL     1      -0.305  10.946  22.069  0.00  0.00    +0.000 C 
ATOM     17  C   UNL     1      -1.541  11.864  22.078  0.00  0.00    +0.000 C 
ATOM     18  O   UNL     1      -1.176  13.253  22.073  0.00  0.00    +0.000 OA
ATOM     19  C   UNL     1      -0.331  13.575  20.957  0.00  0.00    +0.000 C 
ATOM     20  C   UNL     1       0.950  12.735  20.990  0.00  0.00    +0.000 C 
ENDBRANCH  12  15
ENDBRANCH   3  12
BRANCH   1  21
ATOM     21  N   UNL     1       2.199   6.131  20.630  0.00  0.00    +0.000 N 
ATOM     22  H   UNL     1       2.464   6.371  21.581  0.00  0.00    +0.000 HD
BRANCH  21  23
ATOM     23  C   UNL     1       1.103   5.185  20.483  0.00  0.00    +0.000 C 
BRANCH  23  30
ATOM     24  C   UNL     1       1.166   4.304  17.370  0.00  0.00    +0.000 C 
ATOM     25  C   UNL     1       1.457   3.466  18.559  0.00  0.00    +0.000 A 
ATOM     26  N   UNL     1       1.722   2.161  18.424  0.00  0.00    +0.000 NA
ATOM     27  O   UNL     1       1.857   1.670  19.709  0.00  0.00    +0.000 OA
ATOM     28  C   UNL     1       1.669   2.675  20.603  0.00  0.00    +0.000 A 
ATOM     29  C   UNL     1       1.690   2.305  22.030  0.00  0.00    +0.000 C 
ATOM     30  C   UNL     1       1.438   3.852  19.926  0.00  0.00    +0.000 A 
ENDBRANCH  23  30
ENDBRANCH  21  23
ENDBRANCH   1  21
TORSDOF 6
ENDMDL
MODEL 9
REMARK VINA RESULT:      -7.8      3.124      7.333
REMARK  Name = 
REMARK  8 active torsions:
REMARK  status: ('A' for Active; 'I' for Inactive)
REMARK    1  A    between atoms: C_1  and  C_2
REMARK    2  A    between atoms: C_5  and  C_6
REMARK    3  A    between atoms: C_7  and  C_8
REMARK    4  A    between atoms: C_8  and  N_9
REMARK    5  A    between atoms: N_9  and  C_10
REMARK    6  A    between atoms: C_12  and  S_13
REMARK    7  A    between atoms: S_13  and  N_16
REMARK    8  A    between atoms: C_24  and  N_25
REMARK                            x       y       z     vdW  Elec       q    Type
REMARK                         _______ _______ _______ _____ _____    ______ ____
ROOT
ATOM      1  C   UNL     1       2.977   6.607  18.213  0.00  0.00    +0.000 A 
ATOM      2  C   UNL     1       2.478   7.907  18.399  0.00  0.00    +0.000 A 
ATOM      3  C   UNL     1       1.699   8.245  19.500  0.00  0.00    +0.000 A 
ATOM      4  C   UNL     1       1.406   7.293  20.458  0.00  0.00    +0.000 A 
ATOM      5  C   UNL     1       1.898   5.988  20.303  0.00  0.00    +0.000 A 
ATOM      6  C   UNL     1       2.696   5.614  19.199  0.00  0.00    +0.000 A 
ENDROOT
BRANCH   6   7
ATOM      7  N   UNL     1       3.265   4.337  19.103  0.00  0.00    +0.000 N 
ATOM      8  C   UNL     1       3.590   3.595  20.324  0.00  0.00    +0.000 C 
ATOM      9  C   UNL     1       4.202   2.325  19.754  0.00  0.00    +0.000 C 
ATOM     10  C   UNL     1       3.352   2.041  18.517  0.00  0.00    +0.000 C 
ATOM     11  C   UNL     1       2.665   3.376  18.168  0.00  0.00    +0.000 C 
ENDBRANCH   6   7
BRANCH   3  12
ATOM     12  S   UNL     1       1.253   9.954  19.720  0.00  0.00    +0.000 S 
ATOM     13  O   UNL     1       1.662  10.330  21.059  0.00  0.00    +0.000 OA
ATOM     14  O   UNL     1       1.727  10.672  18.556  0.00  0.00    +0.000 OA
BRANCH  12  15
ATOM     15  N   UNL     1      -0.461   9.920  19.678  0.00  0.00    +0.000 NA
ATOM     16  C   UNL     1      -1.116  10.327  18.391  0.00  0.00    +0.000 C 
ATOM     17  C   UNL     1      -1.152  11.859  18.242  0.00  0.00    +0.000 C 
ATOM     18  O   UNL     1      -1.760  12.492  19.378  0.00  0.00    +0.000 OA
ATOM     19  C   UNL     1      -1.101  12.132  20.603  0.00  0.00    +0.000 C 
ATOM     20  C   UNL     1      -1.144  10.614  20.811  0.00  0.00    +0.000 C 
ENDBRANCH  12  15
ENDBRANCH   3  12
BRANCH   1  21
ATOM     21  N   UNL     1       3.913   6.354  17.191  0.00  0.00    +0.000 N 
ATOM     22  H   UNL     1       3.510   6.518  16.272  0.00  0.00    +0.000 HD
BRANCH  21  23
ATOM     23  C   UNL     1       5.305   6.741  17.365  0.00  0.00    +0.000 C 
BRANCH  23  30
ATOM     24  C   UNL     1       7.482   5.704  19.524  0.00  0.00    +0.000 C 
ATOM     25  C   UNL     1       7.284   5.232  18.131  0.00  0.00    +0.000 A 
ATOM     26  N   UNL     1       8.102   4.316  17.600  0.00  0.00    +0.000 NA
ATOM     27  O   UNL     1       7.700   4.168  16.286  0.00  0.00    +0.000 OA
ATOM     28  C   UNL     1       6.653   4.996  16.035  0.00  0.00    +0.000 A 
ATOM     29  C   UNL     1       6.155   5.031  14.648  0.00  0.00    +0.000 C 
ATOM     30  C   UNL     1       6.324   5.680  17.184  0.00  0.00    +0.000 A 
ENDBRANCH  23  30
ENDBRANCH  21  23
ENDBRANCH   1  21
TORSDOF 6
ENDMDL
