MODEL 1
REMARK VINA RESULT:      -7.7      0.000      0.000
REMARK  Name = 
REMARK  4 active torsions:
REMARK  status: ('A' for Active; 'I' for Inactive)
REMARK    1  A    between atoms: C_1  and  C_2
REMARK    2  A    between atoms: N_4  and  N_5
REMARK    3  A    between atoms: C_9  and  C_10
REMARK    4  A    between atoms: C_10  and  O_11
REMARK                            x       y       z     vdW  Elec       q    Type
REMARK                         _______ _______ _______ _____ _____    ______ ____
ROOT
ATOM      1  C   UNL     1       5.766   4.323  14.465  0.00  0.00    +0.000 C 
ATOM      2  C   UNL     1       5.576   4.177  15.934  0.00  0.00    +0.000 A 
ATOM      3  C   UNL     1       4.392   3.941  16.504  0.00  0.00    +0.000 A 
ATOM      4  N   UNL     1       4.221   3.849  17.863  0.00  0.00    +0.000 N 
ATOM      5  C   UNL     1       5.298   3.993  18.761  0.00  0.00    +0.000 A 
ATOM      6  O   UNL     1       5.220   3.977  19.988  0.00  0.00    +0.000 OA
ATOM      7  N   UNL     1       6.526   4.167  18.158  0.00  0.00    +0.000 N 
ATOM      8  C   UNL     1       6.759   4.316  16.817  0.00  0.00    +0.000 A 
ATOM      9  O   UNL     1       7.873   4.557  16.371  0.00  0.00    +0.000 OA
ATOM     10  H   UNL     1       7.316   4.274  18.772  0.00  0.00    +0.000 HD
ENDROOT
BRANCH   4  11
ATOM     11  N   UNL     1       2.884   3.679  18.274  0.00  0.00    +0.000 N 
ATOM     12  C   UNL     1       2.197   4.923  18.641  0.00  0.00    +0.000 C 
ATOM     13  C   UNL     1       1.502   4.669  19.965  0.00  0.00    +0.000 C 
ATOM     14  F   UNL     1       2.234   5.229  20.965  0.00  0.00    +0.000 F 
ATOM     15  C   UNL     1       1.471   3.159  20.116  0.00  0.00    +0.000 C 
ATOM     16  C   UNL     1       2.640   2.648  19.282  0.00  0.00    +0.000 C 
BRANCH  15  17
ATOM     17  C   UNL     1       1.549   2.708  21.566  0.00  0.00    +0.000 C 
BRANCH  17  18
ATOM     18  O   UNL     1       2.899   2.428  21.915  0.00  0.00    +0.000 OA
ATOM     19  H   UNL     1       2.926   1.489  22.181  0.00  0.00    +0.000 HD
ENDBRANCH  17  18
ENDBRANCH  15  17
ENDBRANCH   4  11
TORSDOF 3
ENDMDL
MODEL 2
REMARK VINA RESULT:      -7.5      2.137      2.474
REMARK  Name = 
REMARK  4 active torsions:
REMARK  status: ('A' for Active; 'I' for Inactive)
REMARK    1  A    between atoms: C_1  and  C_2
REMARK    2  A    between atoms: N_4  and  N_5
REMARK    3  A    between atoms: C_9  and  C_10
REMARK    4  A    between atoms: C_10  and  O_11
REMARK                            x       y       z     vdW  Elec       q    Type
REMARK                         _______ _______ _______ _____ _____    ______ ____
ROOT
ATOM      1  C   UNL     1       5.224   4.334  14.229  0.00  0.00    +0.000 C 
ATOM      2  C   UNL     1       5.739   4.508  15.615  0.00  0.00    +0.000 A 
ATOM      3  C   UNL     1       5.021   4.235  16.707  0.00  0.00    +0.000 A 
ATOM      4  N   UNL     1       5.491   4.439  17.980  0.00  0.00    +0.000 N 
ATOM      5  C   UNL     1       6.781   4.950  18.226  0.00  0.00    +0.000 A 
ATOM      6  O   UNL     1       7.255   5.210  19.330  0.00  0.00    +0.000 OA
ATOM      7  N   UNL     1       7.538   5.163  17.092  0.00  0.00    +0.000 N 
ATOM      8  C   UNL     1       7.115   5.028  15.796  0.00  0.00    +0.000 A 
ATOM      9  O   UNL     1       7.825   5.324  14.845  0.00  0.00    +0.000 OA
ATOM     10  H   UNL     1       8.464   5.529  17.233  0.00  0.00    +0.000 HD
ENDROOT
BRANCH   4  11
ATOM     11  N   UNL     1       4.556   4.169  18.999  0.00  0.00    +0.000 N 
ATOM     12  C   UNL     1       4.604   2.798  19.521  0.00  0.00    +0.000 C 
ATOM     13  C   UNL     1       3.174   2.293  19.564  0.00  0.00    +0.000 C 
ATOM     14  F   UNL     1       2.962   1.471  18.501  0.00  0.00    +0.000 F 
ATOM     15  C   UNL     1       2.308   3.534  19.452  0.00  0.00    +0.000 C 
ATOM     16  C   UNL     1       3.172   4.562  18.733  0.00  0.00    +0.000 C 
BRANCH  15  17
ATOM     17  C   UNL     1       0.993   3.275  18.734  0.00  0.00    +0.000 C 
BRANCH  17  18
ATOM     18  O   UNL     1       1.037   3.828  17.425  0.00  0.00    +0.000 OA
ATOM     19  H   UNL     1       0.136   3.746  17.059  0.00  0.00    +0.000 HD
ENDBRANCH  17  18
ENDBRANCH  15  17
ENDBRANCH   4  11
TORSDOF 3
ENDMDL
MODEL 3
REMARK VINA RESULT:      -7.2      1.995      2.291
REMARK  Name = 
REMARK  4 active torsions:
REMARK  status: ('A' for Active; 'I' for Inactive)
REMARK    1  A    between atoms: C_1  and  C_2
REMARK    2  A    between atoms: N_4  and  N_5
REMARK    3  A    between atoms: C_9  and  C_10
REMARK    4  A    between atoms: C_10  and  O_11
REMARK                            x       y       z     vdW  Elec       q    Type
REMARK                         _______ _______ _______ _____ _____    ______ ____
ROOT
ATOM      1  C   UNL     1       5.301   4.183  13.919  0.00  0.00    +0.000 C 
ATOM      2  C   UNL     1       5.804   4.335  15.312  0.00  0.00    +0.000 A 
ATOM      3  C   UNL     1       5.118   3.945  16.390  0.00  0.00    +0.000 A 
ATOM      4  N   UNL     1       5.573   4.128  17.671  0.00  0.00    +0.000 N 
ATOM      5  C   UNL     1       6.813   4.739  17.942  0.00  0.00    +0.000 A 
ATOM      6  O   UNL     1       7.268   4.986  19.058  0.00  0.00    +0.000 OA
ATOM      7  N   UNL     1       7.543   5.074  16.820  0.00  0.00    +0.000 N 
ATOM      8  C   UNL     1       7.129   4.965  15.519  0.00  0.00    +0.000 A 
ATOM      9  O   UNL     1       7.806   5.369  14.584  0.00  0.00    +0.000 OA
ATOM     10  H   UNL     1       8.434   5.513  16.979  0.00  0.00    +0.000 HD
ENDROOT
BRANCH   4  11
ATOM     11  N   UNL     1       4.670   3.726  18.675  0.00  0.00    +0.000 N 
ATOM     12  C   UNL     1       3.529   2.942  18.189  0.00  0.00    +0.000 C 
ATOM     13  C   UNL     1       2.284   3.537  18.819  0.00  0.00    +0.000 C 
ATOM     14  F   UNL     1       1.650   4.314  17.900  0.00  0.00    +0.000 F 
ATOM     15  C   UNL     1       2.787   4.388  19.971  0.00  0.00    +0.000 C 
ATOM     16  C   UNL     1       4.214   4.768  19.595  0.00  0.00    +0.000 C 
BRANCH  15  17
ATOM     17  C   UNL     1       1.912   5.602  20.235  0.00  0.00    +0.000 C 
BRANCH  17  18
ATOM     18  O   UNL     1       2.657   6.794  20.020  0.00  0.00    +0.000 OA
ATOM     19  H   UNL     1       2.410   7.117  19.132  0.00  0.00    +0.000 HD
ENDBRANCH  17  18
ENDBRANCH  15  17
ENDBRANCH   4  11
TORSDOF 3
ENDMDL
MODEL 4
REMARK VINA RESULT:      -7.2      1.082      1.082
REMARK  Name = 
REMARK  4 active torsions:
REMARK  status: ('A' for Active; 'I' for Inactive)
REMARK    1  A    between atoms: C_1  and  C_2
REMARK    2  A    between atoms: N_4  and  N_5
REMARK    3  A    between atoms: C_9  and  C_10
REMARK    4  A    between atoms: C_10  and  O_11
REMARK                            x       y       z     vdW  Elec       q    Type
REMARK                         _______ _______ _______ _____ _____    ______ ____
ROOT
ATOM      1  C   UNL     1       6.383   4.437  14.668  0.00  0.00    +0.000 C 
ATOM      2  C   UNL     1       5.830   4.661  16.031  0.00  0.00    +0.000 A 
ATOM      3  C   UNL     1       4.790   3.985  16.525  0.00  0.00    +0.000 A 
ATOM      4  N   UNL     1       4.261   4.228  17.767  0.00  0.00    +0.000 N 
ATOM      5  C   UNL     1       4.790   5.216  18.622  0.00  0.00    +0.000 A 
ATOM      6  O   UNL     1       4.344   5.531  19.723  0.00  0.00    +0.000 OA
ATOM      7  N   UNL     1       5.907   5.860  18.130  0.00  0.00    +0.000 N 
ATOM      8  C   UNL     1       6.453   5.701  16.884  0.00  0.00    +0.000 A 
ATOM      9  O   UNL     1       7.394   6.379  16.494  0.00  0.00    +0.000 OA
ATOM     10  H   UNL     1       6.308   6.573  18.715  0.00  0.00    +0.000 HD
ENDROOT
BRANCH   4  11
ATOM     11  N   UNL     1       3.115   3.469  18.075  0.00  0.00    +0.000 N 
ATOM     12  C   UNL     1       1.854   4.218  18.015  0.00  0.00    +0.000 C 
ATOM     13  C   UNL     1       1.087   3.891  19.282  0.00  0.00    +0.000 C 
ATOM     14  F   UNL     1       1.215   4.924  20.158  0.00  0.00    +0.000 F 
ATOM     15  C   UNL     1       1.748   2.643  19.839  0.00  0.00    +0.000 C 
ATOM     16  C   UNL     1       3.172   2.669  19.298  0.00  0.00    +0.000 C 
BRANCH  15  17
ATOM     17  C   UNL     1       1.703   2.577  21.357  0.00  0.00    +0.000 C 
BRANCH  17  18
ATOM     18  O   UNL     1       3.024   2.550  21.881  0.00  0.00    +0.000 OA
ATOM     19  H   UNL     1       3.273   1.610  21.956  0.00  0.00    +0.000 HD
ENDBRANCH  17  18
ENDBRANCH  15  17
ENDBRANCH   4  11
TORSDOF 3
ENDMDL
MODEL 5
REMARK VINA RESULT:      -7.1      2.228      2.732
REMARK  Name = 
REMARK  4 active torsions:
REMARK  status: ('A' for Active; 'I' for Inactive)
REMARK    1  A    between atoms: C_1  and  C_2
REMARK    2  A    between atoms: N_4  and  N_5
REMARK    3  A    between atoms: C_9  and  C_10
REMARK    4  A    between atoms: C_10  and  O_11
REMARK                            x       y       z     vdW  Elec       q    Type
REMARK                         _______ _______ _______ _____ _____    ______ ____
ROOT
ATOM      1  C   UNL     1       5.588   3.741  13.557  0.00  0.00    +0.000 C 
ATOM      2  C   UNL     1       5.967   4.433  14.819  0.00  0.00    +0.000 A 
ATOM      3  C   UNL     1       5.254   4.353  15.946  0.00  0.00    +0.000 A 
ATOM      4  N   UNL     1       5.589   5.028  17.092  0.00  0.00    +0.000 N 
ATOM      5  C   UNL     1       6.727   5.857  17.163  0.00  0.00    +0.000 A 
ATOM      6  O   UNL     1       7.066   6.535  18.131  0.00  0.00    +0.000 OA
ATOM      7  N   UNL     1       7.493   5.877  16.016  0.00  0.00    +0.000 N 
ATOM      8  C   UNL     1       7.190   5.269  14.827  0.00  0.00    +0.000 A 
ATOM      9  O   UNL     1       7.883   5.411  13.828  0.00  0.00    +0.000 OA
ATOM     10  H   UNL     1       8.312   6.460  16.034  0.00  0.00    +0.000 HD
ENDROOT
BRANCH   4  11
ATOM     11  N   UNL     1       4.668   4.882  18.148  0.00  0.00    +0.000 N 
ATOM     12  C   UNL     1       4.941   3.751  19.041  0.00  0.00    +0.000 C 
ATOM     13  C   UNL     1       3.629   3.013  19.232  0.00  0.00    +0.000 C 
ATOM     14  F   UNL     1       3.629   1.899  18.450  0.00  0.00    +0.000 F 
ATOM     15  C   UNL     1       2.556   3.981  18.771  0.00  0.00    +0.000 C 
ATOM     16  C   UNL     1       3.251   4.911  17.784  0.00  0.00    +0.000 C 
BRANCH  15  17
ATOM     17  C   UNL     1       1.351   3.282  18.161  0.00  0.00    +0.000 C 
BRANCH  17  18
ATOM     18  O   UNL     1       0.631   2.586  19.169  0.00  0.00    +0.000 OA
ATOM     19  H   UNL     1      -0.313   2.649  18.929  0.00  0.00    +0.000 HD
ENDBRANCH  17  18
ENDBRANCH  15  17
ENDBRANCH   4  11
TORSDOF 3
ENDMDL
MODEL 6
REMARK VINA RESULT:      -6.9      1.897      2.391
REMARK  Name = 
REMARK  4 active torsions:
REMARK  status: ('A' for Active; 'I' for Inactive)
REMARK    1  A    between atoms: C_1  and  C_2
REMARK    2  A    between atoms: N_4  and  N_5
REMARK    3  A    between atoms: C_9  and  C_10
REMARK    4  A    between atoms: C_10  and  O_11
REMARK                            x       y       z     vdW  Elec       q    Type
REMARK                         _______ _______ _______ _____ _____    ______ ____
ROOT
ATOM      1  C   UNL     1       6.269   3.647  12.671  0.00  0.00    +0.000 C 
ATOM      2  C   UNL     1       6.218   4.231  14.039  0.00  0.00    +0.000 A 
ATOM      3  C   UNL     1       5.252   3.959  14.921  0.00  0.00    +0.000 A 
ATOM      4  N   UNL     1       5.192   4.536  16.165  0.00  0.00    +0.000 N 
ATOM      5  C   UNL     1       6.160   5.461  16.605  0.00  0.00    +0.000 A 
ATOM      6  O   UNL     1       6.149   6.060  17.679  0.00  0.00    +0.000 OA
ATOM      7  N   UNL     1       7.189   5.681  15.713  0.00  0.00    +0.000 N 
ATOM      8  C   UNL     1       7.284   5.179  14.442  0.00  0.00    +0.000 A 
ATOM      9  O   UNL     1       8.188   5.496  13.682  0.00  0.00    +0.000 OA
ATOM     10  H   UNL     1       7.897   6.338  15.997  0.00  0.00    +0.000 HD
ENDROOT
BRANCH   4  11
ATOM     11  N   UNL     1       4.054   4.186  16.917  0.00  0.00    +0.000 N 
ATOM     12  C   UNL     1       3.464   5.292  17.679  0.00  0.00    +0.000 C 
ATOM     13  C   UNL     1       3.219   4.778  19.085  0.00  0.00    +0.000 C 
ATOM     14  F   UNL     1       4.199   5.244  19.905  0.00  0.00    +0.000 F 
ATOM     15  C   UNL     1       3.296   3.266  18.977  0.00  0.00    +0.000 C 
ATOM     16  C   UNL     1       4.172   2.996  17.760  0.00  0.00    +0.000 C 
BRANCH  15  17
ATOM     17  C   UNL     1       3.834   2.609  20.238  0.00  0.00    +0.000 C 
BRANCH  17  18
ATOM     18  O   UNL     1       5.148   2.120  20.008  0.00  0.00    +0.000 OA
ATOM     19  H   UNL     1       5.327   1.466  20.711  0.00  0.00    +0.000 HD
ENDBRANCH  17  18
ENDBRANCH  15  17
ENDBRANCH   4  11
TORSDOF 3
ENDMDL
MODEL 7
REMARK VINA RESULT:      -6.9      1.855      1.997
REMARK  Name = 
REMARK  4 active torsions:
REMARK  status: ('A' for Active; 'I' for Inactive)
REMARK    1  A    between atoms: C_1  and  C_2
REMARK    2  A    between atoms: N_4  and  N_5
REMARK    3  A    between atoms: C_9  and  C_10
REMARK    4  A    between atoms: C_10  and  O_11
REMARK                            x       y       z     vdW  Elec       q    Type
REMARK                         _______ _______ _______ _____ _____    ______ ____
ROOT
ATOM      1  C   UNL     1       6.030   4.112  14.642  0.00  0.00    +0.000 C 
ATOM      2  C   UNL     1       5.217   4.550  15.810  0.00  0.00    +0.000 A 
ATOM      3  C   UNL     1       4.622   3.702  16.653  0.00  0.00    +0.000 A 
ATOM      4  N   UNL     1       3.840   4.117  17.701  0.00  0.00    +0.000 N 
ATOM      5  C   UNL     1       3.613   5.482  17.968  0.00  0.00    +0.000 A 
ATOM      6  O   UNL     1       2.886   5.933  18.851  0.00  0.00    +0.000 OA
ATOM      7  N   UNL     1       4.288   6.348  17.133  0.00  0.00    +0.000 N 
ATOM      8  C   UNL     1       5.041   6.003  16.042  0.00  0.00    +0.000 A 
ATOM      9  O   UNL     1       5.535   6.841  15.300  0.00  0.00    +0.000 OA
ATOM     10  H   UNL     1       4.147   7.331  17.296  0.00  0.00    +0.000 HD
ENDROOT
BRANCH   4  11
ATOM     11  N   UNL     1       3.233   3.073  18.426  0.00  0.00    +0.000 N 
ATOM     12  C   UNL     1       1.796   2.912  18.175  0.00  0.00    +0.000 C 
ATOM     13  C   UNL     1       1.122   2.791  19.528  0.00  0.00    +0.000 C 
ATOM     14  F   UNL     1       0.543   3.981  19.844  0.00  0.00    +0.000 F 
ATOM     15  C   UNL     1       2.240   2.473  20.504  0.00  0.00    +0.000 C 
ATOM     16  C   UNL     1       3.503   3.035  19.863  0.00  0.00    +0.000 C 
BRANCH  15  17
ATOM     17  C   UNL     1       1.991   3.038  21.893  0.00  0.00    +0.000 C 
BRANCH  17  18
ATOM     18  O   UNL     1       0.895   2.368  22.502  0.00  0.00    +0.000 OA
ATOM     19  H   UNL     1       1.259   1.559  22.911  0.00  0.00    +0.000 HD
ENDBRANCH  17  18
ENDBRANCH  15  17
ENDBRANCH   4  11
TORSDOF 3
ENDMDL
MODEL 8
REMARK VINA RESULT:      -6.8      2.828      5.562
REMARK  Name = 
REMARK  4 active torsions:
REMARK  status: ('A' for Active; 'I' for Inactive)
REMARK    1  A    between atoms: C_1  and  C_2
REMARK    2  A    between atoms: N_4  and  N_5
REMARK    3  A    between atoms: C_9  and  C_10
REMARK    4  A    between atoms: C_10  and  O_11
REMARK                            x       y       z     vdW  Elec       q    Type
REMARK                         _______ _______ _______ _____ _____    ______ ____
ROOT
ATOM      1  C   UNL     1       2.652   8.436  17.727  0.00  0.00    +0.000 C 
ATOM      2  C   UNL     1       3.012   7.163  18.410  0.00  0.00    +0.000 A 
ATOM      3  C   UNL     1       3.860   6.267  17.900  0.00  0.00    +0.000 A 
ATOM      4  N   UNL     1       4.153   5.077  18.518  0.00  0.00    +0.000 N 
ATOM      5  C   UNL     1       3.576   4.718  19.753  0.00  0.00    +0.000 A 
ATOM      6  O   UNL     1       3.743   3.653  20.344  0.00  0.00    +0.000 OA
ATOM      7  N   UNL     1       2.755   5.681  20.303  0.00  0.00    +0.000 N 
ATOM      8  C   UNL     1       2.384   6.862  19.719  0.00  0.00    +0.000 A 
ATOM      9  O   UNL     1       1.578   7.622  20.239  0.00  0.00    +0.000 OA
ATOM     10  H   UNL     1       2.326   5.454  21.185  0.00  0.00    +0.000 HD
ENDROOT
BRANCH   4  11
ATOM     11  N   UNL     1       5.005   4.230  17.784  0.00  0.00    +0.000 N 
ATOM     12  C   UNL     1       6.432   4.557  17.896  0.00  0.00    +0.000 C 
ATOM     13  C   UNL     1       6.996   4.556  16.488  0.00  0.00    +0.000 C 
ATOM     14  F   UNL     1       7.129   5.840  16.061  0.00  0.00    +0.000 F 
ATOM     15  C   UNL     1       5.967   3.824  15.646  0.00  0.00    +0.000 C 
ATOM     16  C   UNL     1       4.646   4.000  16.385  0.00  0.00    +0.000 C 
BRANCH  15  17
ATOM     17  C   UNL     1       5.905   4.332  14.214  0.00  0.00    +0.000 C 
BRANCH  17  18
ATOM     18  O   UNL     1       6.330   3.314  13.318  0.00  0.00    +0.000 OA
ATOM     19  H   UNL     1       6.015   2.469  13.690  0.00  0.00    +0.000 HD
ENDBRANCH  17  18
ENDBRANCH  15  17
ENDBRANCH   4  11
TORSDOF 3
ENDMDL
MODEL 9
REMARK VINA RESULT:      -6.8      2.907      5.212
REMARK  Name = 
REMARK  4 active torsions:
REMARK  status: ('A' for Active; 'I' for Inactive)
REMARK    1  A    between atoms: C_1  and  C_2
REMARK    2  A    between atoms: N_4  and  N_5
REMARK    3  A    between atoms: C_9  and  C_10
REMARK    4  A    between atoms: C_10  and  O_11
REMARK                            x       y       z     vdW  Elec       q    Type
REMARK                         _______ _______ _______ _____ _____    ______ ____
ROOT
ATOM      1  C   UNL     1       3.525   1.269  18.372  0.00  0.00    +0.000 C 
ATOM      2  C   UNL     1       3.217   2.717  18.216  0.00  0.00    +0.000 A 
ATOM      3  C   UNL     1       4.155   3.662  18.110  0.00  0.00    +0.000 A 
ATOM      4  N   UNL     1       3.862   4.998  18.009  0.00  0.00    +0.000 N 
ATOM      5  C   UNL     1       2.534   5.471  18.003  0.00  0.00    +0.000 A 
ATOM      6  O   UNL     1       2.189   6.651  17.969  0.00  0.00    +0.000 OA
ATOM      7  N   UNL     1       1.574   4.482  18.043  0.00  0.00    +0.000 N 
ATOM      8  C   UNL     1       1.797   3.139  18.194  0.00  0.00    +0.000 A 
ATOM      9  O   UNL     1       0.882   2.335  18.309  0.00  0.00    +0.000 OA
ATOM     10  H   UNL     1       0.615   4.787  18.041  0.00  0.00    +0.000 HD
ENDROOT
BRANCH   4  11
ATOM     11  N   UNL     1       4.988   5.845  17.991  0.00  0.00    +0.000 N 
ATOM     12  C   UNL     1       5.753   5.812  16.739  0.00  0.00    +0.000 C 
ATOM     13  C   UNL     1       7.215   5.669  17.119  0.00  0.00    +0.000 C 
ATOM     14  F   UNL     1       7.596   4.376  16.938  0.00  0.00    +0.000 F 
ATOM     15  C   UNL     1       7.282   6.037  18.590  0.00  0.00    +0.000 C 
ATOM     16  C   UNL     1       5.889   5.754  19.139  0.00  0.00    +0.000 C 
BRANCH  15  17
ATOM     17  C   UNL     1       8.368   5.281  19.340  0.00  0.00    +0.000 C 
BRANCH  17  18
ATOM     18  O   UNL     1       8.160   5.395  20.741  0.00  0.00    +0.000 OA
ATOM     19  H   UNL     1       8.767   6.093  21.054  0.00  0.00    +0.000 HD
ENDBRANCH  17  18
ENDBRANCH  15  17
ENDBRANCH   4  11
TORSDOF 3
ENDMDL
