MODEL 1
REMARK VINA RESULT:      -6.4      0.000      0.000
REMARK  Name = 
REMARK  5 active torsions:
REMARK  status: ('A' for Active; 'I' for Inactive)
REMARK    1  A    between atoms: C_1  and  O_2
REMARK    2  A    between atoms: O_2  and  C_3
REMARK    3  A    between atoms: C_8  and  C_9
REMARK    4  A    between atoms: C_9  and  N_10
REMARK    5  A    between atoms: C_18  and  C_20
REMARK                            x       y       z     vdW  Elec       q    Type
REMARK                         _______ _______ _______ _____ _____    ______ ____
ROOT
ATOM      1  N   UNL     1       7.188  15.001  20.381  0.00  0.00    +0.000 NA
ATOM      2  C   UNL     1       6.541  15.061  19.077  0.00  0.00    +0.000 C 
ATOM      3  C   UNL     1       7.734  15.275  18.155  0.00  0.00    +0.000 C 
ATOM      4  C   UNL     1       8.835  15.925  19.037  0.00  0.00    +0.000 C 
ATOM      5  C   UNL     1       9.416  17.198  18.395  0.00  0.00    +0.000 C 
ATOM      6  C   UNL     1      10.143  16.867  17.078  0.00  0.00    +0.000 C 
ATOM      7  C   UNL     1      11.202  15.772  17.241  0.00  0.00    +0.000 C 
ATOM      8  N   UNL     1      10.678  14.631  17.981  0.00  0.00    +0.000 N 
ATOM      9  C   UNL     1      10.993  13.319  17.552  0.00  0.00    +0.000 C 
ATOM     10  O   UNL     1      11.758  13.157  16.588  0.00  0.00    +0.000 OA
ATOM     11  C   UNL     1      10.045  14.980  19.256  0.00  0.00    +0.000 C 
ATOM     12  C   UNL     1       8.082  16.167  20.368  0.00  0.00    +0.000 C 
ENDROOT
BRANCH   9  13
ATOM     13  C   UNL     1      10.435  12.174  18.265  0.00  0.00    +0.000 A 
ATOM     14  C   UNL     1      10.835  11.586  19.450  0.00  0.00    +0.000 A 
ATOM     15  C   UNL     1       9.909  10.551  19.729  0.00  0.00    +0.000 A 
ATOM     16  C   UNL     1       9.050  10.517  18.664  0.00  0.00    +0.000 A 
ATOM     17  O   UNL     1       9.392  11.451  17.748  0.00  0.00    +0.000 OA
ENDBRANCH   9  13
BRANCH   1  18
ATOM     18  C   UNL     1       6.260  14.785  21.495  0.00  0.00    +0.000 C 
BRANCH  18  24
ATOM     19  C   UNL     1       6.150  13.379  23.687  0.00  0.00    +0.000 A 
ATOM     20  C   UNL     1       6.617  12.314  24.479  0.00  0.00    +0.000 A 
ATOM     21  C   UNL     1       7.726  11.570  24.086  0.00  0.00    +0.000 A 
ATOM     22  C   UNL     1       8.362  11.881  22.894  0.00  0.00    +0.000 A 
ATOM     23  C   UNL     1       7.885  12.931  22.086  0.00  0.00    +0.000 A 
ATOM     24  C   UNL     1       6.759  13.686  22.457  0.00  0.00    +0.000 A 
BRANCH  19  26
ATOM     25  C   UNL     1       5.365  14.791  25.347  0.00  0.00    +0.000 C 
ATOM     26  O   UNL     1       5.044  13.990  24.221  0.00  0.00    +0.000 OA
ENDBRANCH  19  26
ENDBRANCH  18  24
ENDBRANCH   1  18
TORSDOF 4
ENDMDL
MODEL 2
REMARK VINA RESULT:      -6.0      8.664     11.670
REMARK  Name = 
REMARK  5 active torsions:
REMARK  status: ('A' for Active; 'I' for Inactive)
REMARK    1  A    between atoms: C_1  and  O_2
REMARK    2  A    between atoms: O_2  and  C_3
REMARK    3  A    between atoms: C_8  and  C_9
REMARK    4  A    between atoms: C_9  and  N_10
REMARK    5  A    between atoms: C_18  and  C_20
REMARK                            x       y       z     vdW  Elec       q    Type
REMARK                         _______ _______ _______ _____ _____    ______ ____
ROOT
ATOM      1  N   UNL     1      -0.355  11.351  19.062  0.00  0.00    +0.000 NA
ATOM      2  C   UNL     1       0.477  10.622  20.012  0.00  0.00    +0.000 C 
ATOM      3  C   UNL     1       1.053  11.758  20.846  0.00  0.00    +0.000 C 
ATOM      4  C   UNL     1       1.001  13.015  19.937  0.00  0.00    +0.000 C 
ATOM      5  C   UNL     1       2.357  13.743  19.877  0.00  0.00    +0.000 C 
ATOM      6  C   UNL     1       2.744  14.301  21.259  0.00  0.00    +0.000 C 
ATOM      7  C   UNL     1       1.649  15.177  21.877  0.00  0.00    +0.000 C 
ATOM      8  N   UNL     1       0.343  14.534  21.794  0.00  0.00    +0.000 N 
ATOM      9  C   UNL     1      -0.534  14.597  22.903  0.00  0.00    +0.000 C 
ATOM     10  O   UNL     1      -0.206  15.246  23.907  0.00  0.00    +0.000 OA
ATOM     11  C   UNL     1      -0.014  14.069  20.451  0.00  0.00    +0.000 C 
ATOM     12  C   UNL     1       0.535  12.420  18.586  0.00  0.00    +0.000 C 
ENDROOT
BRANCH   9  13
ATOM     13  C   UNL     1      -1.826  13.918  22.839  0.00  0.00    +0.000 A 
ATOM     14  C   UNL     1      -2.143  12.592  23.066  0.00  0.00    +0.000 A 
ATOM     15  C   UNL     1      -3.549  12.478  22.939  0.00  0.00    +0.000 A 
ATOM     16  C   UNL     1      -3.995  13.718  22.564  0.00  0.00    +0.000 A 
ATOM     17  O   UNL     1      -2.960  14.578  22.444  0.00  0.00    +0.000 OA
ENDBRANCH   9  13
BRANCH   1  18
ATOM     18  C   UNL     1      -1.063  10.492  18.110  0.00  0.00    +0.000 C 
BRANCH  18  24
ATOM     19  C   UNL     1      -3.090  10.998  16.551  0.00  0.00    +0.000 A 
ATOM     20  C   UNL     1      -4.423  11.412  16.377  0.00  0.00    +0.000 A 
ATOM     21  C   UNL     1      -5.165  11.886  17.455  0.00  0.00    +0.000 A 
ATOM     22  C   UNL     1      -4.581  11.932  18.711  0.00  0.00    +0.000 A 
ATOM     23  C   UNL     1      -3.254  11.497  18.896  0.00  0.00    +0.000 A 
ATOM     24  C   UNL     1      -2.491  11.003  17.823  0.00  0.00    +0.000 A 
BRANCH  19  26
ATOM     25  C   UNL     1      -3.488  10.116  14.446  0.00  0.00    +0.000 C 
ATOM     26  O   UNL     1      -2.519  10.551  15.386  0.00  0.00    +0.000 OA
ENDBRANCH  19  26
ENDBRANCH  18  24
ENDBRANCH   1  18
TORSDOF 4
ENDMDL
MODEL 3
REMARK VINA RESULT:      -6.0      7.505      9.762
REMARK  Name = 
REMARK  5 active torsions:
REMARK  status: ('A' for Active; 'I' for Inactive)
REMARK    1  A    between atoms: C_1  and  O_2
REMARK    2  A    between atoms: O_2  and  C_3
REMARK    3  A    between atoms: C_8  and  C_9
REMARK    4  A    between atoms: C_9  and  N_10
REMARK    5  A    between atoms: C_18  and  C_20
REMARK                            x       y       z     vdW  Elec       q    Type
REMARK                         _______ _______ _______ _____ _____    ______ ____
ROOT
ATOM      1  N   UNL     1       3.186   5.945  19.590  0.00  0.00    +0.000 NA
ATOM      2  C   UNL     1       3.762   4.764  20.222  0.00  0.00    +0.000 C 
ATOM      3  C   UNL     1       4.388   4.056  19.028  0.00  0.00    +0.000 C 
ATOM      4  C   UNL     1       3.600   4.551  17.785  0.00  0.00    +0.000 C 
ATOM      5  C   UNL     1       3.102   3.384  16.911  0.00  0.00    +0.000 C 
ATOM      6  C   UNL     1       4.286   2.602  16.312  0.00  0.00    +0.000 C 
ATOM      7  C   UNL     1       5.276   3.500  15.562  0.00  0.00    +0.000 C 
ATOM      8  N   UNL     1       5.625   4.678  16.346  0.00  0.00    +0.000 N 
ATOM      9  C   UNL     1       6.970   5.117  16.379  0.00  0.00    +0.000 C 
ATOM     10  O   UNL     1       7.823   4.530  15.696  0.00  0.00    +0.000 OA
ATOM     11  C   UNL     1       4.472   5.428  16.849  0.00  0.00    +0.000 C 
ATOM     12  C   UNL     1       2.472   5.392  18.430  0.00  0.00    +0.000 C 
ENDROOT
BRANCH   9  13
ATOM     13  C   UNL     1       7.331   6.272  17.197  0.00  0.00    +0.000 A 
ATOM     14  C   UNL     1       7.769   6.329  18.506  0.00  0.00    +0.000 A 
ATOM     15  C   UNL     1       8.043   7.690  18.789  0.00  0.00    +0.000 A 
ATOM     16  C   UNL     1       7.682   8.388  17.668  0.00  0.00    +0.000 A 
ATOM     17  O   UNL     1       7.197   7.551  16.724  0.00  0.00    +0.000 OA
ENDBRANCH   9  13
BRANCH   1  18
ATOM     18  C   UNL     1       2.506   6.846  20.524  0.00  0.00    +0.000 C 
BRANCH  18  24
ATOM     19  C   UNL     1       0.959   8.939  20.389  0.00  0.00    +0.000 A 
ATOM     20  C   UNL     1       0.502  10.077  19.699  0.00  0.00    +0.000 A 
ATOM     21  C   UNL     1       0.931  10.340  18.402  0.00  0.00    +0.000 A 
ATOM     22  C   UNL     1       1.829   9.474  17.796  0.00  0.00    +0.000 A 
ATOM     23  C   UNL     1       2.307   8.347  18.490  0.00  0.00    +0.000 A 
ATOM     24  C   UNL     1       1.897   8.069  19.806  0.00  0.00    +0.000 A 
BRANCH  19  26
ATOM     25  C   UNL     1      -0.216  10.037  22.056  0.00  0.00    +0.000 C 
ATOM     26  O   UNL     1       0.442   8.847  21.657  0.00  0.00    +0.000 OA
ENDBRANCH  19  26
ENDBRANCH  18  24
ENDBRANCH   1  18
TORSDOF 4
ENDMDL
MODEL 4
REMARK VINA RESULT:      -5.9      8.220     11.149
REMARK  Name = 
REMARK  5 active torsions:
REMARK  status: ('A' for Active; 'I' for Inactive)
REMARK    1  A    between atoms: C_1  and  O_2
REMARK    2  A    between atoms: O_2  and  C_3
REMARK    3  A    between atoms: C_8  and  C_9
REMARK    4  A    between atoms: C_9  and  N_10
REMARK    5  A    between atoms: C_18  and  C_20
REMARK                            x       y       z     vdW  Elec       q    Type
REMARK                         _______ _______ _______ _____ _____    ______ ____
ROOT
ATOM      1  N   UNL     1      -0.063  11.489  19.083  0.00  0.00    +0.000 NA
ATOM      2  C   UNL     1       1.187  11.185  19.768  0.00  0.00    +0.000 C 
ATOM      3  C   UNL     1       1.490  12.512  20.451  0.00  0.00    +0.000 C 
ATOM      4  C   UNL     1       0.753  13.593  19.614  0.00  0.00    +0.000 C 
ATOM      5  C   UNL     1       1.683  14.756  19.222  0.00  0.00    +0.000 C 
ATOM      6  C   UNL     1       2.167  15.518  20.469  0.00  0.00    +0.000 C 
ATOM      7  C   UNL     1       1.016  15.981  21.368  0.00  0.00    +0.000 C 
ATOM      8  N   UNL     1       0.064  14.905  21.611  0.00  0.00    +0.000 N 
ATOM      9  C   UNL     1      -0.470  14.729  22.911  0.00  0.00    +0.000 C 
ATOM     10  O   UNL     1      -0.167  15.527  23.811  0.00  0.00    +0.000 OA
ATOM     11  C   UNL     1      -0.417  14.242  20.397  0.00  0.00    +0.000 C 
ATOM     12  C   UNL     1       0.221  12.769  18.417  0.00  0.00    +0.000 C 
ENDROOT
BRANCH   9  13
ATOM     13  C   UNL     1      -1.391  13.625  23.168  0.00  0.00    +0.000 A 
ATOM     14  C   UNL     1      -2.724  13.649  23.530  0.00  0.00    +0.000 A 
ATOM     15  C   UNL     1      -3.159  12.302  23.584  0.00  0.00    +0.000 A 
ATOM     16  C   UNL     1      -2.052  11.537  23.330  0.00  0.00    +0.000 A 
ATOM     17  O   UNL     1      -0.968  12.322  23.136  0.00  0.00    +0.000 OA
ENDBRANCH   9  13
BRANCH   1  18
ATOM     18  C   UNL     1      -0.616  10.362  18.327  0.00  0.00    +0.000 C 
BRANCH  18  24
ATOM     19  C   UNL     1      -3.001  11.408  18.433  0.00  0.00    +0.000 A 
ATOM     20  C   UNL     1      -4.223  11.727  17.813  0.00  0.00    +0.000 A 
ATOM     21  C   UNL     1      -4.499  11.290  16.521  0.00  0.00    +0.000 A 
ATOM     22  C   UNL     1      -3.548  10.545  15.841  0.00  0.00    +0.000 A 
ATOM     23  C   UNL     1      -2.314  10.242  16.447  0.00  0.00    +0.000 A 
ATOM     24  C   UNL     1      -2.009  10.685  17.747  0.00  0.00    +0.000 A 
BRANCH  19  26
ATOM     25  C   UNL     1      -4.057  12.655  20.075  0.00  0.00    +0.000 C 
ATOM     26  O   UNL     1      -2.898  11.931  19.698  0.00  0.00    +0.000 OA
ENDBRANCH  19  26
ENDBRANCH  18  24
ENDBRANCH   1  18
TORSDOF 4
ENDMDL
MODEL 5
REMARK VINA RESULT:      -5.9      8.589     11.594
REMARK  Name = 
REMARK  5 active torsions:
REMARK  status: ('A' for Active; 'I' for Inactive)
REMARK    1  A    between atoms: C_1  and  O_2
REMARK    2  A    between atoms: O_2  and  C_3
REMARK    3  A    between atoms: C_8  and  C_9
REMARK    4  A    between atoms: C_9  and  N_10
REMARK    5  A    between atoms: C_18  and  C_20
REMARK                            x       y       z     vdW  Elec       q    Type
REMARK                         _______ _______ _______ _____ _____    ______ ____
ROOT
ATOM      1  N   UNL     1      -0.488  12.236  18.900  0.00  0.00    +0.000 NA
ATOM      2  C   UNL     1       0.800  11.818  19.441  0.00  0.00    +0.000 C 
ATOM      3  C   UNL     1       1.177  13.023  20.292  0.00  0.00    +0.000 C 
ATOM      4  C   UNL     1       0.407  14.226  19.682  0.00  0.00    +0.000 C 
ATOM      5  C   UNL     1       1.333  15.426  19.403  0.00  0.00    +0.000 C 
ATOM      6  C   UNL     1       1.917  15.985  20.713  0.00  0.00    +0.000 C 
ATOM      7  C   UNL     1       0.841  16.319  21.751  0.00  0.00    +0.000 C 
ATOM      8  N   UNL     1      -0.114  15.229  21.898  0.00  0.00    +0.000 N 
ATOM      9  C   UNL     1      -0.560  14.864  23.191  0.00  0.00    +0.000 C 
ATOM     10  O   UNL     1      -0.179  15.513  24.176  0.00  0.00    +0.000 OA
ATOM     11  C   UNL     1      -0.692  14.762  20.635  0.00  0.00    +0.000 C 
ATOM     12  C   UNL     1      -0.224  13.598  18.415  0.00  0.00    +0.000 C 
ENDROOT
BRANCH   9  13
ATOM     13  C   UNL     1      -1.485  13.743  23.344  0.00  0.00    +0.000 A 
ATOM     14  C   UNL     1      -2.822  13.739  23.691  0.00  0.00    +0.000 A 
ATOM     15  C   UNL     1      -3.258  12.392  23.628  0.00  0.00    +0.000 A 
ATOM     16  C   UNL     1      -2.148  11.650  23.326  0.00  0.00    +0.000 A 
ATOM     17  O   UNL     1      -1.062  12.447  23.211  0.00  0.00    +0.000 OA
ENDBRANCH   9  13
BRANCH   1  18
ATOM     18  C   UNL     1      -1.116  11.242  18.026  0.00  0.00    +0.000 C 
BRANCH  18  24
ATOM     19  C   UNL     1      -3.344  11.373  16.679  0.00  0.00    +0.000 A 
ATOM     20  C   UNL     1      -4.742  11.524  16.644  0.00  0.00    +0.000 A 
ATOM     21  C   UNL     1      -5.453  11.824  17.802  0.00  0.00    +0.000 A 
ATOM     22  C   UNL     1      -4.769  11.960  19.000  0.00  0.00    +0.000 A 
ATOM     23  C   UNL     1      -3.372  11.788  19.046  0.00  0.00    +0.000 A 
ATOM     24  C   UNL     1      -2.636  11.471  17.890  0.00  0.00    +0.000 A 
BRANCH  19  26
ATOM     25  C   UNL     1      -3.045   9.717  15.088  0.00  0.00    +0.000 C 
ATOM     26  O   UNL     1      -2.814  11.068  15.451  0.00  0.00    +0.000 OA
ENDBRANCH  19  26
ENDBRANCH  18  24
ENDBRANCH   1  18
TORSDOF 4
ENDMDL
MODEL 6
REMARK VINA RESULT:      -5.8      1.010      1.032
REMARK  Name = 
REMARK  5 active torsions:
REMARK  status: ('A' for Active; 'I' for Inactive)
REMARK    1  A    between atoms: C_1  and  O_2
REMARK    2  A    between atoms: O_2  and  C_3
REMARK    3  A    between atoms: C_8  and  C_9
REMARK    4  A    between atoms: C_9  and  N_10
REMARK    5  A    between atoms: C_18  and  C_20
REMARK                            x       y       z     vdW  Elec       q    Type
REMARK                         _______ _______ _______ _____ _____    ______ ____
ROOT
ATOM      1  N   UNL     1       8.159  15.616  20.683  0.00  0.00    +0.000 NA
ATOM      2  C   UNL     1       7.427  15.950  19.468  0.00  0.00    +0.000 C 
ATOM      3  C   UNL     1       8.554  16.030  18.447  0.00  0.00    +0.000 C 
ATOM      4  C   UNL     1       9.837  16.349  19.261  0.00  0.00    +0.000 C 
ATOM      5  C   UNL     1      10.608  17.550  18.682  0.00  0.00    +0.000 C 
ATOM      6  C   UNL     1      11.135  17.235  17.270  0.00  0.00    +0.000 C 
ATOM      7  C   UNL     1      11.956  15.944  17.213  0.00  0.00    +0.000 C 
ATOM      8  N   UNL     1      11.276  14.850  17.895  0.00  0.00    +0.000 N 
ATOM      9  C   UNL     1      11.277  13.559  17.313  0.00  0.00    +0.000 C 
ATOM     10  O   UNL     1      11.905  13.363  16.261  0.00  0.00    +0.000 OA
ATOM     11  C   UNL     1      10.842  15.168  19.258  0.00  0.00    +0.000 C 
ATOM     12  C   UNL     1       9.269  16.580  20.683  0.00  0.00    +0.000 C 
ENDROOT
BRANCH   9  13
ATOM     13  C   UNL     1      10.561  12.471  17.972  0.00  0.00    +0.000 A 
ATOM     14  C   UNL     1      10.993  11.580  18.935  0.00  0.00    +0.000 A 
ATOM     15  C   UNL     1       9.880  10.774  19.278  0.00  0.00    +0.000 A 
ATOM     16  C   UNL     1       8.861  11.166  18.452  0.00  0.00    +0.000 A 
ATOM     17  O   UNL     1       9.277  12.147  17.620  0.00  0.00    +0.000 OA
ENDBRANCH   9  13
BRANCH   1  18
ATOM     18  C   UNL     1       7.308  15.460  21.866  0.00  0.00    +0.000 C 
BRANCH  18  24
ATOM     19  C   UNL     1       7.242  13.894  23.949  0.00  0.00    +0.000 A 
ATOM     20  C   UNL     1       7.463  12.636  24.537  0.00  0.00    +0.000 A 
ATOM     21  C   UNL     1       8.073  11.613  23.818  0.00  0.00    +0.000 A 
ATOM     22  C   UNL     1       8.453  11.842  22.504  0.00  0.00    +0.000 A 
ATOM     23  C   UNL     1       8.215  13.092  21.902  0.00  0.00    +0.000 A 
ATOM     24  C   UNL     1       7.587  14.135  22.606  0.00  0.00    +0.000 A 
BRANCH  19  26
ATOM     25  C   UNL     1       7.468  15.188  25.857  0.00  0.00    +0.000 C 
ATOM     26  O   UNL     1       6.620  14.774  24.798  0.00  0.00    +0.000 OA
ENDBRANCH  19  26
ENDBRANCH  18  24
ENDBRANCH   1  18
TORSDOF 4
ENDMDL
MODEL 7
REMARK VINA RESULT:      -5.8      8.928     12.315
REMARK  Name = 
REMARK  5 active torsions:
REMARK  status: ('A' for Active; 'I' for Inactive)
REMARK    1  A    between atoms: C_1  and  O_2
REMARK    2  A    between atoms: O_2  and  C_3
REMARK    3  A    between atoms: C_8  and  C_9
REMARK    4  A    between atoms: C_9  and  N_10
REMARK    5  A    between atoms: C_18  and  C_20
REMARK                            x       y       z     vdW  Elec       q    Type
REMARK                         _______ _______ _______ _____ _____    ______ ____
ROOT
ATOM      1  N   UNL     1       6.118   5.445  16.885  0.00  0.00    +0.000 NA
ATOM      2  C   UNL     1       6.507   6.019  18.167  0.00  0.00    +0.000 C 
ATOM      3  C   UNL     1       5.150   6.312  18.793  0.00  0.00    +0.000 C 
ATOM      4  C   UNL     1       4.163   6.461  17.604  0.00  0.00    +0.000 C 
ATOM      5  C   UNL     1       3.337   7.758  17.694  0.00  0.00    +0.000 C 
ATOM      6  C   UNL     1       2.424   7.743  18.935  0.00  0.00    +0.000 C 
ATOM      7  C   UNL     1       1.541   6.494  19.011  0.00  0.00    +0.000 C 
ATOM      8  N   UNL     1       2.314   5.281  18.777  0.00  0.00    +0.000 N 
ATOM      9  C   UNL     1       2.074   4.138  19.577  0.00  0.00    +0.000 C 
ATOM     10  O   UNL     1       1.170   4.164  20.427  0.00  0.00    +0.000 OA
ATOM     11  C   UNL     1       3.125   5.310  17.557  0.00  0.00    +0.000 C 
ATOM     12  C   UNL     1       5.112   6.392  16.383  0.00  0.00    +0.000 C 
ENDROOT
BRANCH   9  13
ATOM     13  C   UNL     1       2.876   2.934  19.374  0.00  0.00    +0.000 A 
ATOM     14  C   UNL     1       2.702   1.893  18.483  0.00  0.00    +0.000 A 
ATOM     15  C   UNL     1       3.802   1.016  18.656  0.00  0.00    +0.000 A 
ATOM     16  C   UNL     1       4.535   1.531  19.692  0.00  0.00    +0.000 A 
ATOM     17  O   UNL     1       3.955   2.654  20.171  0.00  0.00    +0.000 OA
ENDBRANCH   9  13
BRANCH   1  18
ATOM     18  C   UNL     1       7.250   5.046  16.045  0.00  0.00    +0.000 C 
BRANCH  18  24
ATOM     19  C   UNL     1       7.439   4.909  13.449  0.00  0.00    +0.000 A 
ATOM     20  C   UNL     1       7.009   4.377  12.220  0.00  0.00    +0.000 A 
ATOM     21  C   UNL     1       5.902   3.536  12.159  0.00  0.00    +0.000 A 
ATOM     22  C   UNL     1       5.230   3.216  13.329  0.00  0.00    +0.000 A 
ATOM     23  C   UNL     1       5.669   3.727  14.565  0.00  0.00    +0.000 A 
ATOM     24  C   UNL     1       6.794   4.567  14.651  0.00  0.00    +0.000 A 
BRANCH  19  26
ATOM     25  C   UNL     1       8.608   6.346  12.057  0.00  0.00    +0.000 C 
ATOM     26  O   UNL     1       8.550   5.704  13.321  0.00  0.00    +0.000 OA
ENDBRANCH  19  26
ENDBRANCH  18  24
ENDBRANCH   1  18
TORSDOF 4
ENDMDL
MODEL 8
REMARK VINA RESULT:      -5.8      8.552     10.873
REMARK  Name = 
REMARK  5 active torsions:
REMARK  status: ('A' for Active; 'I' for Inactive)
REMARK    1  A    between atoms: C_1  and  O_2
REMARK    2  A    between atoms: O_2  and  C_3
REMARK    3  A    between atoms: C_8  and  C_9
REMARK    4  A    between atoms: C_9  and  N_10
REMARK    5  A    between atoms: C_18  and  C_20
REMARK                            x       y       z     vdW  Elec       q    Type
REMARK                         _______ _______ _______ _____ _____    ______ ____
ROOT
ATOM      1  N   UNL     1       1.857   6.005  20.479  0.00  0.00    +0.000 NA
ATOM      2  C   UNL     1       2.608   5.094  21.334  0.00  0.00    +0.000 C 
ATOM      3  C   UNL     1       2.874   3.935  20.382  0.00  0.00    +0.000 C 
ATOM      4  C   UNL     1       1.754   4.007  19.309  0.00  0.00    +0.000 C 
ATOM      5  C   UNL     1       1.042   2.653  19.122  0.00  0.00    +0.000 C 
ATOM      6  C   UNL     1       2.014   1.593  18.573  0.00  0.00    +0.000 C 
ATOM      7  C   UNL     1       2.732   2.045  17.298  0.00  0.00    +0.000 C 
ATOM      8  N   UNL     1       3.275   3.390  17.441  0.00  0.00    +0.000 N 
ATOM      9  C   UNL     1       4.567   3.676  16.936  0.00  0.00    +0.000 C 
ATOM     10  O   UNL     1       5.195   2.796  16.328  0.00  0.00    +0.000 OA
ATOM     11  C   UNL     1       2.305   4.383  17.910  0.00  0.00    +0.000 C 
ATOM     12  C   UNL     1       0.847   5.134  19.862  0.00  0.00    +0.000 C 
ENDROOT
BRANCH   9  13
ATOM     13  C   UNL     1       5.131   5.011  17.116  0.00  0.00    +0.000 A 
ATOM     14  C   UNL     1       4.849   6.189  16.453  0.00  0.00    +0.000 A 
ATOM     15  C   UNL     1       5.629   7.202  17.064  0.00  0.00    +0.000 A 
ATOM     16  C   UNL     1       6.396   6.570  18.006  0.00  0.00    +0.000 A 
ATOM     17  O   UNL     1       6.148   5.241  18.005  0.00  0.00    +0.000 OA
ENDBRANCH   9  13
BRANCH   1  18
ATOM     18  C   UNL     1       1.462   7.251  21.141  0.00  0.00    +0.000 C 
BRANCH  18  24
ATOM     19  C   UNL     1       0.899   9.707  20.470  0.00  0.00    +0.000 A 
ATOM     20  C   UNL     1       0.969  10.766  19.548  0.00  0.00    +0.000 A 
ATOM     21  C   UNL     1       1.518  10.573  18.284  0.00  0.00    +0.000 A 
ATOM     22  C   UNL     1       2.013   9.323  17.945  0.00  0.00    +0.000 A 
ATOM     23  C   UNL     1       1.967   8.264  18.872  0.00  0.00    +0.000 A 
ATOM     24  C   UNL     1       1.429   8.441  20.158  0.00  0.00    +0.000 A 
BRANCH  19  26
ATOM     25  C   UNL     1      -0.697  11.034  21.497  0.00  0.00    +0.000 C 
ATOM     26  O   UNL     1       0.340  10.081  21.666  0.00  0.00    +0.000 OA
ENDBRANCH  19  26
ENDBRANCH  18  24
ENDBRANCH   1  18
TORSDOF 4
ENDMDL
MODEL 9
REMARK VINA RESULT:      -5.7     10.582     13.874
REMARK  Name = 
REMARK  5 active torsions:
REMARK  status: ('A' for Active; 'I' for Inactive)
REMARK    1  A    between atoms: C_1  and  O_2
REMARK    2  A    between atoms: O_2  and  C_3
REMARK    3  A    between atoms: C_8  and  C_9
REMARK    4  A    between atoms: C_9  and  N_10
REMARK    5  A    between atoms: C_18  and  C_20
REMARK                            x       y       z     vdW  Elec       q    Type
REMARK                         _______ _______ _______ _____ _____    ______ ____
ROOT
ATOM      1  N   UNL     1      -2.095  12.683  21.699  0.00  0.00    +0.000 NA
ATOM      2  C   UNL     1      -2.520  12.088  22.960  0.00  0.00    +0.000 C 
ATOM      3  C   UNL     1      -3.579  13.081  23.422  0.00  0.00    +0.000 C 
ATOM      4  C   UNL     1      -3.226  14.425  22.729  0.00  0.00    +0.000 C 
ATOM      5  C   UNL     1      -3.163  15.594  23.729  0.00  0.00    +0.000 C 
ATOM      6  C   UNL     1      -4.545  15.854  24.358  0.00  0.00    +0.000 C 
ATOM      7  C   UNL     1      -5.649  16.049  23.314  0.00  0.00    +0.000 C 
ATOM      8  N   UNL     1      -5.602  15.013  22.290  0.00  0.00    +0.000 N 
ATOM      9  C   UNL     1      -6.810  14.435  21.830  0.00  0.00    +0.000 C 
ATOM     10  O   UNL     1      -7.894  14.857  22.260  0.00  0.00    +0.000 OA
ATOM     11  C   UNL     1      -4.285  14.836  21.674  0.00  0.00    +0.000 C 
ATOM     12  C   UNL     1      -1.875  14.093  22.048  0.00  0.00    +0.000 C 
ENDROOT
BRANCH   9  13
ATOM     13  C   UNL     1      -6.764  13.367  20.835  0.00  0.00    +0.000 A 
ATOM     14  C   UNL     1      -6.409  12.039  20.976  0.00  0.00    +0.000 A 
ATOM     15  C   UNL     1      -6.607  11.425  19.714  0.00  0.00    +0.000 A 
ATOM     16  C   UNL     1      -6.992  12.427  18.864  0.00  0.00    +0.000 A 
ATOM     17  O   UNL     1      -7.034  13.611  19.514  0.00  0.00    +0.000 OA
ENDBRANCH   9  13
BRANCH   1  18
ATOM     18  C   UNL     1      -1.059  11.918  21.001  0.00  0.00    +0.000 C 
BRANCH  18  24
ATOM     19  C   UNL     1      -0.850  10.470  18.843  0.00  0.00    +0.000 A 
ATOM     20  C   UNL     1      -1.389  10.001  17.631  0.00  0.00    +0.000 A 
ATOM     21  C   UNL     1      -2.599  10.494  17.154  0.00  0.00    +0.000 A 
ATOM     22  C   UNL     1      -3.280  11.449  17.893  0.00  0.00    +0.000 A 
ATOM     23  C   UNL     1      -2.757  11.906  19.118  0.00  0.00    +0.000 A 
ATOM     24  C   UNL     1      -1.543  11.411  19.626  0.00  0.00    +0.000 A 
BRANCH  19  26
ATOM     25  C   UNL     1       1.429  10.405  18.433  0.00  0.00    +0.000 C 
ATOM     26  O   UNL     1       0.339   9.865  19.163  0.00  0.00    +0.000 OA
ENDBRANCH  19  26
ENDBRANCH  18  24
ENDBRANCH   1  18
TORSDOF 4
ENDMDL
