MODEL 1
REMARK VINA RESULT:      -7.5      0.000      0.000
REMARK  Name = 
REMARK  7 active torsions:
REMARK  status: ('A' for Active; 'I' for Inactive)
REMARK    1  A    between atoms: C_1  and  O_2
REMARK    2  A    between atoms: O_2  and  C_3
REMARK    3  A    between atoms: C_8  and  O_9
REMARK    4  A    between atoms: O_9  and  C_10
REMARK    5  A    between atoms: N_12  and  C_13
REMARK    6  A    between atoms: C_17  and  O_18
REMARK    7  A    between atoms: O_18  and  C_19
REMARK                            x       y       z     vdW  Elec       q    Type
REMARK                         _______ _______ _______ _____ _____    ______ ____
ROOT
ATOM      1  C   UNL     1       0.431  13.000  19.037  0.00  0.00    +0.000 A 
ATOM      2  C   UNL     1       1.506  12.730  18.182  0.00  0.00    +0.000 A 
ATOM      3  C   UNL     1       2.034  11.440  18.097  0.00  0.00    +0.000 A 
ATOM      4  C   UNL     1       1.495  10.386  18.848  0.00  0.00    +0.000 A 
ATOM      5  C   UNL     1       0.379  10.664  19.705  0.00  0.00    +0.000 A 
ATOM      6  C   UNL     1      -0.151  11.965  19.805  0.00  0.00    +0.000 A 
ATOM      7  C   UNL     1      -0.236   9.435  20.330  0.00  0.00    +0.000 C 
ATOM      8  N   UNL     1       0.774   8.510  20.853  0.00  0.00    +0.000 N 
ATOM      9  C   UNL     1       1.511   8.973  22.036  0.00  0.00    +0.000 C 
ATOM     10  C   UNL     1       1.657   8.075  19.820  0.00  0.00    +0.000 A 
ATOM     11  C   UNL     1       2.033   8.988  18.802  0.00  0.00    +0.000 A 
ATOM     12  C   UNL     1       2.900   8.506  17.819  0.00  0.00    +0.000 A 
ATOM     13  C   UNL     1       3.415   7.188  17.819  0.00  0.00    +0.000 A 
ATOM     14  C   UNL     1       3.041   6.263  18.850  0.00  0.00    +0.000 A 
ATOM     15  C   UNL     1       3.484   4.909  18.976  0.00  0.00    +0.000 A 
ATOM     16  C   UNL     1       3.018   4.103  20.003  0.00  0.00    +0.000 A 
ATOM     17  C   UNL     1       2.130   4.557  20.911  0.00  0.00    +0.000 A 
ATOM     18  C   UNL     1       1.666   5.842  20.858  0.00  0.00    +0.000 A 
ATOM     19  C   UNL     1       2.131   6.728  19.841  0.00  0.00    +0.000 A 
ATOM     20  O   UNL     1       1.787   3.608  21.828  0.00  0.00    +0.000 OA
ATOM     21  C   UNL     1       2.596   2.505  21.377  0.00  0.00    +0.000 C 
ATOM     22  O   UNL     1       3.377   2.806  20.202  0.00  0.00    +0.000 OA
ENDROOT
BRANCH   1  24
ATOM     23  C   UNL     1       0.993  15.308  18.993  0.00  0.00    +0.000 C 
ATOM     24  O   UNL     1      -0.017  14.301  18.975  0.00  0.00    +0.000 OA
ENDBRANCH   1  24
BRANCH   6  25
ATOM     25  O   UNL     1      -1.302  12.328  20.440  0.00  0.00    +0.000 OA
ATOM     26  C   UNL     1      -2.575  12.278  19.833  0.00  0.00    +0.000 C 
ENDBRANCH   6  25
BRANCH  13  27
ATOM     27  O   UNL     1       4.238   7.012  16.739  0.00  0.00    +0.000 OA
ATOM     28  C   UNL     1       5.634   6.838  16.887  0.00  0.00    +0.000 C 
ENDBRANCH  13  27
TORSDOF 3
ENDMDL
MODEL 2
REMARK VINA RESULT:      -7.1      1.691      4.214
REMARK  Name = 
REMARK  7 active torsions:
REMARK  status: ('A' for Active; 'I' for Inactive)
REMARK    1  A    between atoms: C_1  and  O_2
REMARK    2  A    between atoms: O_2  and  C_3
REMARK    3  A    between atoms: C_8  and  O_9
REMARK    4  A    between atoms: O_9  and  C_10
REMARK    5  A    between atoms: N_12  and  C_13
REMARK    6  A    between atoms: C_17  and  O_18
REMARK    7  A    between atoms: O_18  and  C_19
REMARK                            x       y       z     vdW  Elec       q    Type
REMARK                         _______ _______ _______ _____ _____    ______ ____
ROOT
ATOM      1  C   UNL     1      -0.755  10.982  22.364  0.00  0.00    +0.000 A 
ATOM      2  C   UNL     1      -0.929   9.670  22.821  0.00  0.00    +0.000 A 
ATOM      3  C   UNL     1      -0.208   8.621  22.249  0.00  0.00    +0.000 A 
ATOM      4  C   UNL     1       0.716   8.854  21.219  0.00  0.00    +0.000 A 
ATOM      5  C   UNL     1       0.907  10.203  20.771  0.00  0.00    +0.000 A 
ATOM      6  C   UNL     1       0.174  11.265  21.336  0.00  0.00    +0.000 A 
ATOM      7  C   UNL     1       2.042  10.369  19.790  0.00  0.00    +0.000 C 
ATOM      8  N   UNL     1       2.042   9.331  18.755  0.00  0.00    +0.000 N 
ATOM      9  C   UNL     1       0.944   9.401  17.783  0.00  0.00    +0.000 C 
ATOM     10  C   UNL     1       2.154   8.030  19.331  0.00  0.00    +0.000 A 
ATOM     11  C   UNL     1       1.505   7.762  20.564  0.00  0.00    +0.000 A 
ATOM     12  C   UNL     1       1.649   6.472  21.078  0.00  0.00    +0.000 A 
ATOM     13  C   UNL     1       2.378   5.453  20.420  0.00  0.00    +0.000 A 
ATOM     14  C   UNL     1       3.031   5.718  19.170  0.00  0.00    +0.000 A 
ATOM     15  C   UNL     1       3.794   4.788  18.398  0.00  0.00    +0.000 A 
ATOM     16  C   UNL     1       4.408   5.181  17.219  0.00  0.00    +0.000 A 
ATOM     17  C   UNL     1       4.318   6.447  16.763  0.00  0.00    +0.000 A 
ATOM     18  C   UNL     1       3.601   7.390  17.444  0.00  0.00    +0.000 A 
ATOM     19  C   UNL     1       2.922   7.039  18.649  0.00  0.00    +0.000 A 
ATOM     20  O   UNL     1       5.004   6.634  15.599  0.00  0.00    +0.000 OA
ATOM     21  C   UNL     1       5.519   5.306  15.383  0.00  0.00    +0.000 C 
ATOM     22  O   UNL     1       5.156   4.372  16.420  0.00  0.00    +0.000 OA
ENDROOT
BRANCH   1  24
ATOM     23  C   UNL     1      -2.778  12.218  22.521  0.00  0.00    +0.000 C 
ATOM     24  O   UNL     1      -1.492  11.916  23.058  0.00  0.00    +0.000 OA
ENDBRANCH   1  24
BRANCH   6  25
ATOM     25  O   UNL     1       0.378  12.597  21.126  0.00  0.00    +0.000 OA
ATOM     26  C   UNL     1      -0.183  13.308  20.044  0.00  0.00    +0.000 C 
ENDBRANCH   6  25
BRANCH  13  27
ATOM     27  O   UNL     1       2.335   4.301  21.160  0.00  0.00    +0.000 OA
ATOM     28  C   UNL     1       1.364   3.299  20.924  0.00  0.00    +0.000 C 
ENDBRANCH  13  27
TORSDOF 3
ENDMDL
MODEL 3
REMARK VINA RESULT:      -6.6      2.158      7.235
REMARK  Name = 
REMARK  7 active torsions:
REMARK  status: ('A' for Active; 'I' for Inactive)
REMARK    1  A    between atoms: C_1  and  O_2
REMARK    2  A    between atoms: O_2  and  C_3
REMARK    3  A    between atoms: C_8  and  O_9
REMARK    4  A    between atoms: O_9  and  C_10
REMARK    5  A    between atoms: N_12  and  C_13
REMARK    6  A    between atoms: C_17  and  O_18
REMARK    7  A    between atoms: O_18  and  C_19
REMARK                            x       y       z     vdW  Elec       q    Type
REMARK                         _______ _______ _______ _____ _____    ______ ____
ROOT
ATOM      1  C   UNL     1       5.195   4.399  16.815  0.00  0.00    +0.000 A 
ATOM      2  C   UNL     1       4.915   5.492  15.986  0.00  0.00    +0.000 A 
ATOM      3  C   UNL     1       4.176   6.574  16.467  0.00  0.00    +0.000 A 
ATOM      4  C   UNL     1       3.710   6.602  17.789  0.00  0.00    +0.000 A 
ATOM      5  C   UNL     1       4.018   5.489  18.641  0.00  0.00    +0.000 A 
ATOM      6  C   UNL     1       4.753   4.390  18.159  0.00  0.00    +0.000 A 
ATOM      7  C   UNL     1       3.626   5.695  20.084  0.00  0.00    +0.000 C 
ATOM      8  N   UNL     1       2.286   6.271  20.222  0.00  0.00    +0.000 N 
ATOM      9  C   UNL     1       1.172   5.390  19.850  0.00  0.00    +0.000 C 
ATOM     10  C   UNL     1       2.199   7.535  19.566  0.00  0.00    +0.000 A 
ATOM     11  C   UNL     1       2.902   7.732  18.350  0.00  0.00    +0.000 A 
ATOM     12  C   UNL     1       2.778   8.989  17.753  0.00  0.00    +0.000 A 
ATOM     13  C   UNL     1       1.983  10.027  18.293  0.00  0.00    +0.000 A 
ATOM     14  C   UNL     1       1.266   9.830  19.520  0.00  0.00    +0.000 A 
ATOM     15  C   UNL     1       0.428  10.785  20.174  0.00  0.00    +0.000 A 
ATOM     16  C   UNL     1      -0.183  10.483  21.381  0.00  0.00    +0.000 A 
ATOM     17  C   UNL     1      -0.007   9.289  21.984  0.00  0.00    +0.000 A 
ATOM     18  C   UNL     1       0.776   8.324  21.414  0.00  0.00    +0.000 A 
ATOM     19  C   UNL     1       1.409   8.566  20.159  0.00  0.00    +0.000 A 
ATOM     20  O   UNL     1      -0.679   9.195  23.167  0.00  0.00    +0.000 OA
ATOM     21  C   UNL     1      -1.314  10.488  23.210  0.00  0.00    +0.000 C 
ATOM     22  O   UNL     1      -0.993  11.325  22.079  0.00  0.00    +0.000 OA
ENDROOT
BRANCH   1  24
ATOM     23  C   UNL     1       6.315   3.662  14.854  0.00  0.00    +0.000 C 
ATOM     24  O   UNL     1       5.977   3.435  16.220  0.00  0.00    +0.000 OA
ENDBRANCH   1  24
BRANCH   6  25
ATOM     25  O   UNL     1       5.256   3.360  18.898  0.00  0.00    +0.000 OA
ATOM     26  C   UNL     1       4.452   2.365  19.493  0.00  0.00    +0.000 C 
ENDBRANCH   6  25
BRANCH  13  27
ATOM     27  O   UNL     1       2.055  11.132  17.486  0.00  0.00    +0.000 OA
ATOM     28  C   UNL     1       2.531  12.375  17.965  0.00  0.00    +0.000 C 
ENDBRANCH  13  27
TORSDOF 3
ENDMDL
MODEL 4
REMARK VINA RESULT:      -6.2      8.630     10.872
REMARK  Name = 
REMARK  7 active torsions:
REMARK  status: ('A' for Active; 'I' for Inactive)
REMARK    1  A    between atoms: C_1  and  O_2
REMARK    2  A    between atoms: O_2  and  C_3
REMARK    3  A    between atoms: C_8  and  O_9
REMARK    4  A    between atoms: O_9  and  C_10
REMARK    5  A    between atoms: N_12  and  C_13
REMARK    6  A    between atoms: C_17  and  O_18
REMARK    7  A    between atoms: O_18  and  C_19
REMARK                            x       y       z     vdW  Elec       q    Type
REMARK                         _______ _______ _______ _____ _____    ______ ____
ROOT
ATOM      1  C   UNL     1       6.941  12.675  26.143  0.00  0.00    +0.000 A 
ATOM      2  C   UNL     1       6.953  11.508  25.371  0.00  0.00    +0.000 A 
ATOM      3  C   UNL     1       7.526  11.507  24.099  0.00  0.00    +0.000 A 
ATOM      4  C   UNL     1       8.116  12.664  23.570  0.00  0.00    +0.000 A 
ATOM      5  C   UNL     1       8.121  13.852  24.374  0.00  0.00    +0.000 A 
ATOM      6  C   UNL     1       7.534  13.863  25.654  0.00  0.00    +0.000 A 
ATOM      7  C   UNL     1       8.930  14.985  23.789  0.00  0.00    +0.000 C 
ATOM      8  N   UNL     1       8.681  15.168  22.357  0.00  0.00    +0.000 N 
ATOM      9  C   UNL     1       7.353  15.684  22.001  0.00  0.00    +0.000 C 
ATOM     10  C   UNL     1       9.000  13.985  21.624  0.00  0.00    +0.000 A 
ATOM     11  C   UNL     1       8.733  12.719  22.205  0.00  0.00    +0.000 A 
ATOM     12  C   UNL     1       9.064  11.598  21.441  0.00  0.00    +0.000 A 
ATOM     13  C   UNL     1       9.619  11.683  20.142  0.00  0.00    +0.000 A 
ATOM     14  C   UNL     1       9.886  12.962  19.549  0.00  0.00    +0.000 A 
ATOM     15  C   UNL     1      10.439  13.196  18.251  0.00  0.00    +0.000 A 
ATOM     16  C   UNL     1      10.684  14.486  17.807  0.00  0.00    +0.000 A 
ATOM     17  C   UNL     1      10.421  15.561  18.577  0.00  0.00    +0.000 A 
ATOM     18  C   UNL     1       9.886  15.416  19.827  0.00  0.00    +0.000 A 
ATOM     19  C   UNL     1       9.585  14.115  20.328  0.00  0.00    +0.000 A 
ATOM     20  O   UNL     1      10.746  16.736  17.965  0.00  0.00    +0.000 OA
ATOM     21  C   UNL     1      11.232  16.246  16.700  0.00  0.00    +0.000 C 
ATOM     22  O   UNL     1      11.209  14.807  16.593  0.00  0.00    +0.000 OA
ENDROOT
BRANCH   1  24
ATOM     23  C   UNL     1       6.462  11.194  27.937  0.00  0.00    +0.000 C 
ATOM     24  O   UNL     1       6.392  12.510  27.395  0.00  0.00    +0.000 OA
ENDBRANCH   1  24
BRANCH   6  25
ATOM     25  O   UNL     1       7.619  14.860  26.580  0.00  0.00    +0.000 OA
ATOM     26  C   UNL     1       6.739  15.963  26.618  0.00  0.00    +0.000 C 
ENDBRANCH   6  25
BRANCH  13  27
ATOM     27  O   UNL     1       9.830  10.424  19.645  0.00  0.00    +0.000 OA
ATOM     28  C   UNL     1       8.957   9.842  18.696  0.00  0.00    +0.000 C 
ENDBRANCH  13  27
TORSDOF 3
ENDMDL
MODEL 5
REMARK VINA RESULT:      -6.2      1.984      7.466
REMARK  Name = 
REMARK  7 active torsions:
REMARK  status: ('A' for Active; 'I' for Inactive)
REMARK    1  A    between atoms: C_1  and  O_2
REMARK    2  A    between atoms: O_2  and  C_3
REMARK    3  A    between atoms: C_8  and  O_9
REMARK    4  A    between atoms: O_9  and  C_10
REMARK    5  A    between atoms: N_12  and  C_13
REMARK    6  A    between atoms: C_17  and  O_18
REMARK    7  A    between atoms: O_18  and  C_19
REMARK                            x       y       z     vdW  Elec       q    Type
REMARK                         _______ _______ _______ _____ _____    ______ ____
ROOT
ATOM      1  C   UNL     1       2.798   6.182  18.458  0.00  0.00    +0.000 A 
ATOM      2  C   UNL     1       2.790   7.195  17.492  0.00  0.00    +0.000 A 
ATOM      3  C   UNL     1       2.316   8.470  17.809  0.00  0.00    +0.000 A 
ATOM      4  C   UNL     1       1.854   8.770  19.097  0.00  0.00    +0.000 A 
ATOM      5  C   UNL     1       1.885   7.734  20.089  0.00  0.00    +0.000 A 
ATOM      6  C   UNL     1       2.351   6.444  19.774  0.00  0.00    +0.000 A 
ATOM      7  C   UNL     1       1.534   8.206  21.480  0.00  0.00    +0.000 C 
ATOM      8  N   UNL     1       0.362   9.086  21.492  0.00  0.00    +0.000 N 
ATOM      9  C   UNL     1      -0.922   8.442  21.184  0.00  0.00    +0.000 C 
ATOM     10  C   UNL     1       0.578  10.243  20.685  0.00  0.00    +0.000 A 
ATOM     11  C   UNL     1       1.323  10.118  19.484  0.00  0.00    +0.000 A 
ATOM     12  C   UNL     1       1.502  11.283  18.735  0.00  0.00    +0.000 A 
ATOM     13  C   UNL     1       0.963  12.536  19.113  0.00  0.00    +0.000 A 
ATOM     14  C   UNL     1       0.205  12.665  20.324  0.00  0.00    +0.000 A 
ATOM     15  C   UNL     1      -0.397  13.862  20.824  0.00  0.00    +0.000 A 
ATOM     16  C   UNL     1      -1.076  13.863  22.032  0.00  0.00    +0.000 A 
ATOM     17  C   UNL     1      -1.189  12.747  22.781  0.00  0.00    +0.000 A 
ATOM     18  C   UNL     1      -0.644  11.564  22.365  0.00  0.00    +0.000 A 
ATOM     19  C   UNL     1       0.042  11.494  21.117  0.00  0.00    +0.000 A 
ATOM     20  O   UNL     1      -1.879  12.960  23.938  0.00  0.00    +0.000 OA
ATOM     21  C   UNL     1      -2.197  14.358  23.799  0.00  0.00    +0.000 C 
ATOM     22  O   UNL     1      -1.677  14.949  22.590  0.00  0.00    +0.000 OA
ENDROOT
BRANCH   1  24
ATOM     23  C   UNL     1       4.388   5.112  17.054  0.00  0.00    +0.000 C 
ATOM     24  O   UNL     1       3.343   4.996  18.017  0.00  0.00    +0.000 OA
ENDBRANCH   1  24
BRANCH   6  25
ATOM     25  O   UNL     1       2.592   5.428  20.652  0.00  0.00    +0.000 OA
ATOM     26  C   UNL     1       1.664   4.401  20.926  0.00  0.00    +0.000 C 
ENDBRANCH   6  25
BRANCH  13  27
ATOM     27  O   UNL     1       1.298  13.483  18.182  0.00  0.00    +0.000 OA
ATOM     28  C   UNL     1       2.611  14.003  18.088  0.00  0.00    +0.000 C 
ENDBRANCH  13  27
TORSDOF 3
ENDMDL
MODEL 6
REMARK VINA RESULT:      -6.1      3.642      9.283
REMARK  Name = 
REMARK  7 active torsions:
REMARK  status: ('A' for Active; 'I' for Inactive)
REMARK    1  A    between atoms: C_1  and  O_2
REMARK    2  A    between atoms: O_2  and  C_3
REMARK    3  A    between atoms: C_8  and  O_9
REMARK    4  A    between atoms: O_9  and  C_10
REMARK    5  A    between atoms: N_12  and  C_13
REMARK    6  A    between atoms: C_17  and  O_18
REMARK    7  A    between atoms: O_18  and  C_19
REMARK                            x       y       z     vdW  Elec       q    Type
REMARK                         _______ _______ _______ _____ _____    ______ ____
ROOT
ATOM      1  C   UNL     1       0.734  10.252  18.081  0.00  0.00    +0.000 A 
ATOM      2  C   UNL     1      -0.516   9.757  17.689  0.00  0.00    +0.000 A 
ATOM      3  C   UNL     1      -1.690  10.335  18.175  0.00  0.00    +0.000 A 
ATOM      4  C   UNL     1      -1.649  11.430  19.049  0.00  0.00    +0.000 A 
ATOM      5  C   UNL     1      -0.366  11.948  19.430  0.00  0.00    +0.000 A 
ATOM      6  C   UNL     1       0.822  11.362  18.953  0.00  0.00    +0.000 A 
ATOM      7  C   UNL     1      -0.433  13.228  20.227  0.00  0.00    +0.000 C 
ATOM      8  N   UNL     1      -1.455  13.180  21.276  0.00  0.00    +0.000 N 
ATOM      9  C   UNL     1      -1.173  12.276  22.399  0.00  0.00    +0.000 C 
ATOM     10  C   UNL     1      -2.750  12.945  20.724  0.00  0.00    +0.000 A 
ATOM     11  C   UNL     1      -2.879  12.079  19.609  0.00  0.00    +0.000 A 
ATOM     12  C   UNL     1      -4.170  11.887  19.112  0.00  0.00    +0.000 A 
ATOM     13  C   UNL     1      -5.316  12.491  19.681  0.00  0.00    +0.000 A 
ATOM     14  C   UNL     1      -5.190  13.364  20.813  0.00  0.00    +0.000 A 
ATOM     15  C   UNL     1      -6.256  14.037  21.487  0.00  0.00    +0.000 A 
ATOM     16  C   UNL     1      -5.998  14.887  22.551  0.00  0.00    +0.000 A 
ATOM     17  C   UNL     1      -4.741  15.117  22.983  0.00  0.00    +0.000 A 
ATOM     18  C   UNL     1      -3.672  14.505  22.392  0.00  0.00    +0.000 A 
ATOM     19  C   UNL     1      -3.877  13.598  21.310  0.00  0.00    +0.000 A 
ATOM     20  O   UNL     1      -4.699  15.993  24.028  0.00  0.00    +0.000 OA
ATOM     21  C   UNL     1      -6.104  16.264  24.199  0.00  0.00    +0.000 C 
ATOM     22  O   UNL     1      -6.943  15.572  23.251  0.00  0.00    +0.000 OA
ENDROOT
BRANCH   1  24
ATOM     23  C   UNL     1       2.219   8.398  18.088  0.00  0.00    +0.000 C 
ATOM     24  O   UNL     1       1.798   9.617  17.480  0.00  0.00    +0.000 OA
ENDBRANCH   1  24
BRANCH   6  25
ATOM     25  O   UNL     1       2.086  11.853  19.096  0.00  0.00    +0.000 OA
ATOM     26  C   UNL     1       2.587  12.941  18.348  0.00  0.00    +0.000 C 
ENDBRANCH   6  25
BRANCH  13  27
ATOM     27  O   UNL     1      -6.433  12.112  18.986  0.00  0.00    +0.000 OA
ATOM     28  C   UNL     1      -6.663  10.764  18.624  0.00  0.00    +0.000 C 
ENDBRANCH  13  27
TORSDOF 3
ENDMDL
MODEL 7
REMARK VINA RESULT:      -6.0      5.973      7.714
REMARK  Name = 
REMARK  7 active torsions:
REMARK  status: ('A' for Active; 'I' for Inactive)
REMARK    1  A    between atoms: C_1  and  O_2
REMARK    2  A    between atoms: O_2  and  C_3
REMARK    3  A    between atoms: C_8  and  O_9
REMARK    4  A    between atoms: O_9  and  C_10
REMARK    5  A    between atoms: N_12  and  C_13
REMARK    6  A    between atoms: C_17  and  O_18
REMARK    7  A    between atoms: O_18  and  C_19
REMARK                            x       y       z     vdW  Elec       q    Type
REMARK                         _______ _______ _______ _____ _____    ______ ____
ROOT
ATOM      1  C   UNL     1       2.938  14.247  19.419  0.00  0.00    +0.000 A 
ATOM      2  C   UNL     1       2.749  13.203  18.506  0.00  0.00    +0.000 A 
ATOM      3  C   UNL     1       1.478  12.667  18.298  0.00  0.00    +0.000 A 
ATOM      4  C   UNL     1       0.360  13.167  18.981  0.00  0.00    +0.000 A 
ATOM      5  C   UNL     1       0.556  14.253  19.899  0.00  0.00    +0.000 A 
ATOM      6  C   UNL     1       1.838  14.790  20.123  0.00  0.00    +0.000 A 
ATOM      7  C   UNL     1      -0.726  14.831  20.447  0.00  0.00    +0.000 C 
ATOM      8  N   UNL     1      -1.678  13.794  20.855  0.00  0.00    +0.000 N 
ATOM      9  C   UNL     1      -1.302  13.016  22.043  0.00  0.00    +0.000 C 
ATOM     10  C   UNL     1      -2.019  12.947  19.758  0.00  0.00    +0.000 A 
ATOM     11  C   UNL     1      -1.023  12.619  18.803  0.00  0.00    +0.000 A 
ATOM     12  C   UNL     1      -1.414  11.787  17.753  0.00  0.00    +0.000 A 
ATOM     13  C   UNL     1      -2.722  11.261  17.628  0.00  0.00    +0.000 A 
ATOM     14  C   UNL     1      -3.731  11.586  18.595  0.00  0.00    +0.000 A 
ATOM     15  C   UNL     1      -5.085  11.126  18.595  0.00  0.00    +0.000 A 
ATOM     16  C   UNL     1      -5.976  11.545  19.571  0.00  0.00    +0.000 A 
ATOM     17  C   UNL     1      -5.606  12.401  20.546  0.00  0.00    +0.000 A 
ATOM     18  C   UNL     1      -4.327  12.878  20.614  0.00  0.00    +0.000 A 
ATOM     19  C   UNL     1      -3.357  12.461  19.654  0.00  0.00    +0.000 A 
ATOM     20  O   UNL     1      -6.630  12.700  21.396  0.00  0.00    +0.000 OA
ATOM     21  C   UNL     1      -7.684  11.899  20.828  0.00  0.00    +0.000 C 
ATOM     22  O   UNL     1      -7.280  11.167  19.652  0.00  0.00    +0.000 OA
ENDROOT
BRANCH   1  24
ATOM     23  C   UNL     1       4.889  14.890  18.225  0.00  0.00    +0.000 C 
ATOM     24  O   UNL     1       4.235  14.708  19.479  0.00  0.00    +0.000 OA
ENDBRANCH   1  24
BRANCH   6  25
ATOM     25  O   UNL     1       2.136  15.918  20.829  0.00  0.00    +0.000 OA
ATOM     26  C   UNL     1       2.371  15.926  22.220  0.00  0.00    +0.000 C 
ENDBRANCH   6  25
BRANCH  13  27
ATOM     27  O   UNL     1      -2.802  10.478  16.507  0.00  0.00    +0.000 OA
ATOM     28  C   UNL     1      -3.367  10.958  15.302  0.00  0.00    +0.000 C 
ENDBRANCH  13  27
TORSDOF 3
ENDMDL
MODEL 8
REMARK VINA RESULT:      -6.0      4.393      7.466
REMARK  Name = 
REMARK  7 active torsions:
REMARK  status: ('A' for Active; 'I' for Inactive)
REMARK    1  A    between atoms: C_1  and  O_2
REMARK    2  A    between atoms: O_2  and  C_3
REMARK    3  A    between atoms: C_8  and  O_9
REMARK    4  A    between atoms: O_9  and  C_10
REMARK    5  A    between atoms: N_12  and  C_13
REMARK    6  A    between atoms: C_17  and  O_18
REMARK    7  A    between atoms: O_18  and  C_19
REMARK                            x       y       z     vdW  Elec       q    Type
REMARK                         _______ _______ _______ _____ _____    ______ ____
ROOT
ATOM      1  C   UNL     1      -2.894  14.743  24.391  0.00  0.00    +0.000 A 
ATOM      2  C   UNL     1      -1.864  13.796  24.426  0.00  0.00    +0.000 A 
ATOM      3  C   UNL     1      -1.574  13.025  23.299  0.00  0.00    +0.000 A 
ATOM      4  C   UNL     1      -2.292  13.188  22.106  0.00  0.00    +0.000 A 
ATOM      5  C   UNL     1      -3.332  14.176  22.068  0.00  0.00    +0.000 A 
ATOM      6  C   UNL     1      -3.637  14.949  23.205  0.00  0.00    +0.000 A 
ATOM      7  C   UNL     1      -3.921  14.396  20.696  0.00  0.00    +0.000 C 
ATOM      8  N   UNL     1      -4.191  13.137  19.996  0.00  0.00    +0.000 N 
ATOM      9  C   UNL     1      -5.288  12.327  20.543  0.00  0.00    +0.000 C 
ATOM     10  C   UNL     1      -2.999  12.369  19.838  0.00  0.00    +0.000 A 
ATOM     11  C   UNL     1      -2.029  12.377  20.873  0.00  0.00    +0.000 A 
ATOM     12  C   UNL     1      -0.884  11.607  20.663  0.00  0.00    +0.000 A 
ATOM     13  C   UNL     1      -0.678  10.828  19.499  0.00  0.00    +0.000 A 
ATOM     14  C   UNL     1      -1.659  10.813  18.452  0.00  0.00    +0.000 A 
ATOM     15  C   UNL     1      -1.583  10.074  17.231  0.00  0.00    +0.000 A 
ATOM     16  C   UNL     1      -2.586  10.173  16.279  0.00  0.00    +0.000 A 
ATOM     17  C   UNL     1      -3.658  10.971  16.462  0.00  0.00    +0.000 A 
ATOM     18  C   UNL     1      -3.802  11.703  17.608  0.00  0.00    +0.000 A 
ATOM     19  C   UNL     1      -2.817  11.619  18.636  0.00  0.00    +0.000 A 
ATOM     20  O   UNL     1      -4.520  10.940  15.405  0.00  0.00    +0.000 OA
ATOM     21  C   UNL     1      -3.846  10.001  14.546  0.00  0.00    +0.000 C 
ATOM     22  O   UNL     1      -2.601   9.515  15.088  0.00  0.00    +0.000 OA
ENDROOT
BRANCH   1  24
ATOM     23  C   UNL     1      -1.852  16.126  26.017  0.00  0.00    +0.000 C 
ATOM     24  O   UNL     1      -3.028  15.464  25.557  0.00  0.00    +0.000 OA
ENDBRANCH   1  24
BRANCH   6  25
ATOM     25  O   UNL     1      -4.472  16.026  23.256  0.00  0.00    +0.000 OA
ATOM     26  C   UNL     1      -5.768  15.979  23.814  0.00  0.00    +0.000 C 
ENDBRANCH   6  25
BRANCH  13  27
ATOM     27  O   UNL     1       0.527  10.181  19.582  0.00  0.00    +0.000 OA
ATOM     28  C   UNL     1       0.881   9.407  20.712  0.00  0.00    +0.000 C 
ENDBRANCH  13  27
TORSDOF 3
ENDMDL
MODEL 9
REMARK VINA RESULT:      -5.9      3.729      6.882
REMARK  Name = 
REMARK  7 active torsions:
REMARK  status: ('A' for Active; 'I' for Inactive)
REMARK    1  A    between atoms: C_1  and  O_2
REMARK    2  A    between atoms: O_2  and  C_3
REMARK    3  A    between atoms: C_8  and  O_9
REMARK    4  A    between atoms: O_9  and  C_10
REMARK    5  A    between atoms: N_12  and  C_13
REMARK    6  A    between atoms: C_17  and  O_18
REMARK    7  A    between atoms: O_18  and  C_19
REMARK                            x       y       z     vdW  Elec       q    Type
REMARK                         _______ _______ _______ _____ _____    ______ ____
ROOT
ATOM      1  C   UNL     1      -4.746  15.305  23.380  0.00  0.00    +0.000 A 
ATOM      2  C   UNL     1      -5.277  15.273  22.085  0.00  0.00    +0.000 A 
ATOM      3  C   UNL     1      -4.733  14.426  21.119  0.00  0.00    +0.000 A 
ATOM      4  C   UNL     1      -3.659  13.578  21.421  0.00  0.00    +0.000 A 
ATOM      5  C   UNL     1      -3.133  13.597  22.756  0.00  0.00    +0.000 A 
ATOM      6  C   UNL     1      -3.669  14.458  23.733  0.00  0.00    +0.000 A 
ATOM      7  C   UNL     1      -2.102  12.528  23.025  0.00  0.00    +0.000 C 
ATOM      8  N   UNL     1      -1.124  12.409  21.940  0.00  0.00    +0.000 N 
ATOM      9  C   UNL     1      -0.192  13.536  21.796  0.00  0.00    +0.000 C 
ATOM     10  C   UNL     1      -1.762  12.094  20.703  0.00  0.00    +0.000 A 
ATOM     11  C   UNL     1      -3.031  12.659  20.417  0.00  0.00    +0.000 A 
ATOM     12  C   UNL     1      -3.606  12.316  19.192  0.00  0.00    +0.000 A 
ATOM     13  C   UNL     1      -2.975  11.468  18.251  0.00  0.00    +0.000 A 
ATOM     14  C   UNL     1      -1.689  10.898  18.534  0.00  0.00    +0.000 A 
ATOM     15  C   UNL     1      -0.938  10.033  17.679  0.00  0.00    +0.000 A 
ATOM     16  C   UNL     1       0.282   9.518  18.088  0.00  0.00    +0.000 A 
ATOM     17  C   UNL     1       0.801   9.803  19.300  0.00  0.00    +0.000 A 
ATOM     18  C   UNL     1       0.143  10.628  20.169  0.00  0.00    +0.000 A 
ATOM     19  C   UNL     1      -1.104  11.212  19.794  0.00  0.00    +0.000 A 
ATOM     20  O   UNL     1       1.999   9.188  19.515  0.00  0.00    +0.000 OA
ATOM     21  C   UNL     1       2.164   8.493  18.264  0.00  0.00    +0.000 C 
ATOM     22  O   UNL     1       1.066   8.686  17.349  0.00  0.00    +0.000 OA
ENDROOT
BRANCH   1  24
ATOM     23  C   UNL     1      -6.221  17.151  23.622  0.00  0.00    +0.000 C 
ATOM     24  O   UNL     1      -5.418  16.147  24.238  0.00  0.00    +0.000 OA
ENDBRANCH   1  24
BRANCH   6  25
ATOM     25  O   UNL     1      -3.382  14.455  25.066  0.00  0.00    +0.000 OA
ATOM     26  C   UNL     1      -2.362  15.241  25.644  0.00  0.00    +0.000 C 
ENDBRANCH   6  25
BRANCH  13  27
ATOM     27  O   UNL     1      -3.776  11.322  17.149  0.00  0.00    +0.000 OA
ATOM     28  C   UNL     1      -5.110  11.790  17.131  0.00  0.00    +0.000 C 
ENDBRANCH  13  27
TORSDOF 3
ENDMDL
