MODEL 1
REMARK VINA RESULT:      -7.9      0.000      0.000
REMARK  Name = 
REMARK  6 active torsions:
REMARK  status: ('A' for Active; 'I' for Inactive)
REMARK    1  A    between atoms: C_2  and  C_3
REMARK    2  A    between atoms: C_3  and  C_4
REMARK    3  A    between atoms: C_4  and  N_5
REMARK    4  A    between atoms: N_8  and  C_9
REMARK    5  A    between atoms: C_12  and  O_13
REMARK    6  A    between atoms: N_18  and  C_19
REMARK                            x       y       z     vdW  Elec       q    Type
REMARK                         _______ _______ _______ _____ _____    ______ ____
ROOT
ATOM      1  N   UNL     1       7.456   6.006  17.273  0.00  0.00    +0.000 NA
ATOM      2  C   UNL     1       6.991   5.441  18.564  0.00  0.00    +0.000 C 
ATOM      3  C   UNL     1       5.520   5.740  18.931  0.00  0.00    +0.000 C 
ATOM      4  N   UNL     1       4.626   5.339  17.837  0.00  0.00    +0.000 N 
ATOM      5  C   UNL     1       4.994   5.875  16.518  0.00  0.00    +0.000 C 
ATOM      6  C   UNL     1       6.491   5.588  16.222  0.00  0.00    +0.000 C 
ENDROOT
BRANCH   4   7
ATOM      7  C   UNL     1       3.609   4.420  18.002  0.00  0.00    +0.000 A 
ATOM      8  C   UNL     1       3.840   3.040  17.863  0.00  0.00    +0.000 A 
ATOM      9  C   UNL     1       2.811   2.096  17.993  0.00  0.00    +0.000 A 
ATOM     10  C   UNL     1       1.523   2.527  18.270  0.00  0.00    +0.000 A 
ATOM     11  C   UNL     1       1.256   3.875  18.433  0.00  0.00    +0.000 A 
ATOM     12  C   UNL     1       2.292   4.808  18.298  0.00  0.00    +0.000 A 
BRANCH  10  13
ATOM     13  O   UNL     1       0.486   1.651  18.387  0.00  0.00    +0.000 OA
ATOM     14  H   UNL     1       0.685   1.034  19.110  0.00  0.00    +0.000 HD
ENDBRANCH  10  13
ENDBRANCH   4   7
BRANCH   1  15
ATOM     15  C   UNL     1       7.624   7.474  17.294  0.00  0.00    +0.000 C 
BRANCH  15  16
ATOM     16  C   UNL     1       8.386   7.940  18.538  0.00  0.00    +0.000 C 
BRANCH  16  18
ATOM     17  O   UNL     1       8.117  10.192  17.736  0.00  0.00    +0.000 OA
ATOM     18  C   UNL     1       8.631   9.435  18.552  0.00  0.00    +0.000 C 
ATOM     19  N   UNL     1       9.478   9.792  19.594  0.00  0.00    +0.000 N 
ATOM     20  H   UNL     1       9.951   9.037  20.076  0.00  0.00    +0.000 HD
BRANCH  19  21
ATOM     21  C   UNL     1       9.800  11.096  20.023  0.00  0.00    +0.000 A 
ATOM     22  C   UNL     1       9.048  11.802  20.962  0.00  0.00    +0.000 A 
ATOM     23  C   UNL     1       9.437  13.085  21.360  0.00  0.00    +0.000 A 
ATOM     24  C   UNL     1      10.577  13.671  20.821  0.00  0.00    +0.000 A 
ATOM     25  C   UNL     1      11.340  12.972  19.889  0.00  0.00    +0.000 A 
ATOM     26  C   UNL     1      10.956  11.686  19.497  0.00  0.00    +0.000 A 
ENDBRANCH  19  21
ENDBRANCH  16  18
ENDBRANCH  15  16
ENDBRANCH   1  15
TORSDOF 6
ENDMDL
MODEL 2
REMARK VINA RESULT:      -7.8      0.340      1.402
REMARK  Name = 
REMARK  6 active torsions:
REMARK  status: ('A' for Active; 'I' for Inactive)
REMARK    1  A    between atoms: C_2  and  C_3
REMARK    2  A    between atoms: C_3  and  C_4
REMARK    3  A    between atoms: C_4  and  N_5
REMARK    4  A    between atoms: N_8  and  C_9
REMARK    5  A    between atoms: C_12  and  O_13
REMARK    6  A    between atoms: N_18  and  C_19
REMARK                            x       y       z     vdW  Elec       q    Type
REMARK                         _______ _______ _______ _____ _____    ______ ____
ROOT
ATOM      1  N   UNL     1       7.405   6.147  16.836  0.00  0.00    +0.000 NA
ATOM      2  C   UNL     1       7.134   5.439  18.111  0.00  0.00    +0.000 C 
ATOM      3  C   UNL     1       5.720   5.643  18.700  0.00  0.00    +0.000 C 
ATOM      4  N   UNL     1       4.695   5.321  17.699  0.00  0.00    +0.000 N 
ATOM      5  C   UNL     1       4.867   6.000  16.406  0.00  0.00    +0.000 C 
ATOM      6  C   UNL     1       6.316   5.802  15.885  0.00  0.00    +0.000 C 
ENDROOT
BRANCH   4   7
ATOM      7  C   UNL     1       3.732   4.353  17.900  0.00  0.00    +0.000 A 
ATOM      8  C   UNL     1       2.362   4.671  17.897  0.00  0.00    +0.000 A 
ATOM      9  C   UNL     1       1.373   3.707  18.133  0.00  0.00    +0.000 A 
ATOM     10  C   UNL     1       1.746   2.393  18.376  0.00  0.00    +0.000 A 
ATOM     11  C   UNL     1       3.083   2.034  18.369  0.00  0.00    +0.000 A 
ATOM     12  C   UNL     1       4.062   3.008  18.134  0.00  0.00    +0.000 A 
BRANCH  10  13
ATOM     13  O   UNL     1       0.824   1.423  18.629  0.00  0.00    +0.000 OA
ATOM     14  H   UNL     1       1.139   0.886  19.373  0.00  0.00    +0.000 HD
ENDBRANCH  10  13
ENDBRANCH   4   7
BRANCH   1  15
ATOM     15  C   UNL     1       7.540   7.611  16.988  0.00  0.00    +0.000 C 
BRANCH  15  16
ATOM     16  C   UNL     1       8.237   7.983  18.300  0.00  0.00    +0.000 C 
BRANCH  16  18
ATOM     17  O   UNL     1       8.008  10.294  17.671  0.00  0.00    +0.000 OA
ATOM     18  C   UNL     1       8.529   9.466  18.411  0.00  0.00    +0.000 C 
ATOM     19  N   UNL     1       9.427   9.723  19.440  0.00  0.00    +0.000 N 
ATOM     20  H   UNL     1       9.893   8.922  19.847  0.00  0.00    +0.000 HD
BRANCH  19  21
ATOM     21  C   UNL     1       9.806  10.983  19.947  0.00  0.00    +0.000 A 
ATOM     22  C   UNL     1      10.758  11.800  19.339  0.00  0.00    +0.000 A 
ATOM     23  C   UNL     1      11.070  13.049  19.884  0.00  0.00    +0.000 A 
ATOM     24  C   UNL     1      10.436  13.488  21.041  0.00  0.00    +0.000 A 
ATOM     25  C   UNL     1       9.477  12.683  21.653  0.00  0.00    +0.000 A 
ATOM     26  C   UNL     1       9.158  11.437  21.102  0.00  0.00    +0.000 A 
ENDBRANCH  19  21
ENDBRANCH  16  18
ENDBRANCH  15  16
ENDBRANCH   1  15
TORSDOF 6
ENDMDL
MODEL 3
REMARK VINA RESULT:      -7.7      1.419      1.960
REMARK  Name = 
REMARK  6 active torsions:
REMARK  status: ('A' for Active; 'I' for Inactive)
REMARK    1  A    between atoms: C_2  and  C_3
REMARK    2  A    between atoms: C_3  and  C_4
REMARK    3  A    between atoms: C_4  and  N_5
REMARK    4  A    between atoms: N_8  and  C_9
REMARK    5  A    between atoms: C_12  and  O_13
REMARK    6  A    between atoms: N_18  and  C_19
REMARK                            x       y       z     vdW  Elec       q    Type
REMARK                         _______ _______ _______ _____ _____    ______ ____
ROOT
ATOM      1  N   UNL     1       7.421   6.296  17.206  0.00  0.00    +0.000 NA
ATOM      2  C   UNL     1       7.366   4.917  17.752  0.00  0.00    +0.000 C 
ATOM      3  C   UNL     1       6.314   4.679  18.858  0.00  0.00    +0.000 C 
ATOM      4  N   UNL     1       4.986   5.112  18.405  0.00  0.00    +0.000 N 
ATOM      5  C   UNL     1       4.937   6.482  17.871  0.00  0.00    +0.000 C 
ATOM      6  C   UNL     1       6.044   6.678  16.799  0.00  0.00    +0.000 C 
ENDROOT
BRANCH   4   7
ATOM      7  C   UNL     1       3.900   4.261  18.349  0.00  0.00    +0.000 A 
ATOM      8  C   UNL     1       2.652   4.698  17.871  0.00  0.00    +0.000 A 
ATOM      9  C   UNL     1       1.531   3.856  17.839  0.00  0.00    +0.000 A 
ATOM     10  C   UNL     1       1.647   2.550  18.288  0.00  0.00    +0.000 A 
ATOM     11  C   UNL     1       2.863   2.074  18.749  0.00  0.00    +0.000 A 
ATOM     12  C   UNL     1       3.975   2.926  18.778  0.00  0.00    +0.000 A 
BRANCH  10  13
ATOM     13  O   UNL     1       0.583   1.698  18.295  0.00  0.00    +0.000 OA
ATOM     14  H   UNL     1       0.470   1.355  19.196  0.00  0.00    +0.000 HD
ENDBRANCH  10  13
ENDBRANCH   4   7
BRANCH   1  15
ATOM     15  C   UNL     1       7.997   7.281  18.145  0.00  0.00    +0.000 C 
BRANCH  15  16
ATOM     16  C   UNL     1       7.915   8.707  17.593  0.00  0.00    +0.000 C 
BRANCH  16  18
ATOM     17  O   UNL     1       9.199   9.423  19.496  0.00  0.00    +0.000 OA
ATOM     18  C   UNL     1       8.733   9.697  18.396  0.00  0.00    +0.000 C 
ATOM     19  N   UNL     1       8.872  10.900  17.714  0.00  0.00    +0.000 N 
ATOM     20  H   UNL     1       8.291  11.029  16.894  0.00  0.00    +0.000 HD
BRANCH  19  21
ATOM     21  C   UNL     1       9.695  11.990  18.064  0.00  0.00    +0.000 A 
ATOM     22  C   UNL     1      11.045  12.074  17.722  0.00  0.00    +0.000 A 
ATOM     23  C   UNL     1      11.798  13.195  18.083  0.00  0.00    +0.000 A 
ATOM     24  C   UNL     1      11.209  14.237  18.790  0.00  0.00    +0.000 A 
ATOM     25  C   UNL     1       9.860  14.168  19.131  0.00  0.00    +0.000 A 
ATOM     26  C   UNL     1       9.104  13.050  18.762  0.00  0.00    +0.000 A 
ENDBRANCH  19  21
ENDBRANCH  16  18
ENDBRANCH  15  16
ENDBRANCH   1  15
TORSDOF 6
ENDMDL
MODEL 4
REMARK VINA RESULT:      -7.7      1.297      1.453
REMARK  Name = 
REMARK  6 active torsions:
REMARK  status: ('A' for Active; 'I' for Inactive)
REMARK    1  A    between atoms: C_2  and  C_3
REMARK    2  A    between atoms: C_3  and  C_4
REMARK    3  A    between atoms: C_4  and  N_5
REMARK    4  A    between atoms: N_8  and  C_9
REMARK    5  A    between atoms: C_12  and  O_13
REMARK    6  A    between atoms: N_18  and  C_19
REMARK                            x       y       z     vdW  Elec       q    Type
REMARK                         _______ _______ _______ _____ _____    ______ ____
ROOT
ATOM      1  N   UNL     1       6.935   6.536  16.808  0.00  0.00    +0.000 NA
ATOM      2  C   UNL     1       6.954   5.073  17.056  0.00  0.00    +0.000 C 
ATOM      3  C   UNL     1       6.196   4.601  18.318  0.00  0.00    +0.000 C 
ATOM      4  N   UNL     1       4.819   5.110  18.310  0.00  0.00    +0.000 N 
ATOM      5  C   UNL     1       4.702   6.560  18.096  0.00  0.00    +0.000 C 
ATOM      6  C   UNL     1       5.519   6.984  16.845  0.00  0.00    +0.000 C 
ENDROOT
BRANCH   4   7
ATOM      7  C   UNL     1       3.716   4.281  18.355  0.00  0.00    +0.000 A 
ATOM      8  C   UNL     1       3.810   2.963  18.836  0.00  0.00    +0.000 A 
ATOM      9  C   UNL     1       2.708   2.097  18.857  0.00  0.00    +0.000 A 
ATOM     10  C   UNL     1       1.480   2.546  18.392  0.00  0.00    +0.000 A 
ATOM     11  C   UNL     1       1.340   3.842  17.929  0.00  0.00    +0.000 A 
ATOM     12  C   UNL     1       2.450   4.697  17.911  0.00  0.00    +0.000 A 
BRANCH  10  13
ATOM     13  O   UNL     1       0.384   1.737  18.375  0.00  0.00    +0.000 OA
ATOM     14  H   UNL     1      -0.368   2.247  18.034  0.00  0.00    +0.000 HD
ENDBRANCH  10  13
ENDBRANCH   4   7
BRANCH   1  15
ATOM     15  C   UNL     1       7.768   7.308  17.753  0.00  0.00    +0.000 C 
BRANCH  15  16
ATOM     16  C   UNL     1       7.644   8.815  17.518  0.00  0.00    +0.000 C 
BRANCH  16  18
ATOM     17  O   UNL     1       9.166   9.159  19.350  0.00  0.00    +0.000 OA
ATOM     18  C   UNL     1       8.611   9.624  18.360  0.00  0.00    +0.000 C 
ATOM     19  N   UNL     1       8.767  10.907  17.849  0.00  0.00    +0.000 N 
ATOM     20  H   UNL     1       8.116  11.191  17.127  0.00  0.00    +0.000 HD
BRANCH  19  21
ATOM     21  C   UNL     1       9.700  11.881  18.260  0.00  0.00    +0.000 A 
ATOM     22  C   UNL     1       9.387  12.922  19.134  0.00  0.00    +0.000 A 
ATOM     23  C   UNL     1      10.366  13.842  19.518  0.00  0.00    +0.000 A 
ATOM     24  C   UNL     1      11.663  13.731  19.029  0.00  0.00    +0.000 A 
ATOM     25  C   UNL     1      11.989  12.691  18.162  0.00  0.00    +0.000 A 
ATOM     26  C   UNL     1      11.011  11.765  17.784  0.00  0.00    +0.000 A 
ENDBRANCH  19  21
ENDBRANCH  16  18
ENDBRANCH  15  16
ENDBRANCH   1  15
TORSDOF 6
ENDMDL
MODEL 5
REMARK VINA RESULT:      -7.5      1.383      1.739
REMARK  Name = 
REMARK  6 active torsions:
REMARK  status: ('A' for Active; 'I' for Inactive)
REMARK    1  A    between atoms: C_2  and  C_3
REMARK    2  A    between atoms: C_3  and  C_4
REMARK    3  A    between atoms: C_4  and  N_5
REMARK    4  A    between atoms: N_8  and  C_9
REMARK    5  A    between atoms: C_12  and  O_13
REMARK    6  A    between atoms: N_18  and  C_19
REMARK                            x       y       z     vdW  Elec       q    Type
REMARK                         _______ _______ _______ _____ _____    ______ ____
ROOT
ATOM      1  N   UNL     1       7.325   6.477  17.286  0.00  0.00    +0.000 NA
ATOM      2  C   UNL     1       7.283   5.104  17.848  0.00  0.00    +0.000 C 
ATOM      3  C   UNL     1       6.243   4.874  18.967  0.00  0.00    +0.000 C 
ATOM      4  N   UNL     1       4.908   5.295  18.523  0.00  0.00    +0.000 N 
ATOM      5  C   UNL     1       4.846   6.658  17.973  0.00  0.00    +0.000 C 
ATOM      6  C   UNL     1       5.941   6.847  16.888  0.00  0.00    +0.000 C 
ENDROOT
BRANCH   4   7
ATOM      7  C   UNL     1       3.827   4.437  18.488  0.00  0.00    +0.000 A 
ATOM      8  C   UNL     1       3.957   3.081  18.837  0.00  0.00    +0.000 A 
ATOM      9  C   UNL     1       2.877   2.189  18.775  0.00  0.00    +0.000 A 
ATOM     10  C   UNL     1       1.637   2.649  18.359  0.00  0.00    +0.000 A 
ATOM     11  C   UNL     1       1.461   3.980  18.025  0.00  0.00    +0.000 A 
ATOM     12  C   UNL     1       2.549   4.861  18.089  0.00  0.00    +0.000 A 
BRANCH  10  13
ATOM     13  O   UNL     1       0.561   1.818  18.264  0.00  0.00    +0.000 OA
ATOM     14  H   UNL     1      -0.141   2.157  18.841  0.00  0.00    +0.000 HD
ENDBRANCH  10  13
ENDBRANCH   4   7
BRANCH   1  15
ATOM     15  C   UNL     1       7.904   7.477  18.207  0.00  0.00    +0.000 C 
BRANCH  15  16
ATOM     16  C   UNL     1       7.898   8.881  17.597  0.00  0.00    +0.000 C 
BRANCH  16  18
ATOM     17  O   UNL     1       9.247   9.576  19.464  0.00  0.00    +0.000 OA
ATOM     18  C   UNL     1       8.684   9.883  18.419  0.00  0.00    +0.000 C 
ATOM     19  N   UNL     1       8.673  11.137  17.822  0.00  0.00    +0.000 N 
ATOM     20  H   UNL     1       8.028  11.270  17.053  0.00  0.00    +0.000 HD
BRANCH  19  21
ATOM     21  C   UNL     1       9.424  12.269  18.200  0.00  0.00    +0.000 A 
ATOM     22  C   UNL     1      10.487  12.771  17.450  0.00  0.00    +0.000 A 
ATOM     23  C   UNL     1      11.175  13.912  17.873  0.00  0.00    +0.000 A 
ATOM     24  C   UNL     1      10.808  14.558  19.049  0.00  0.00    +0.000 A 
ATOM     25  C   UNL     1       9.742  14.070  19.802  0.00  0.00    +0.000 A 
ATOM     26  C   UNL     1       9.048  12.933  19.374  0.00  0.00    +0.000 A 
ENDBRANCH  19  21
ENDBRANCH  16  18
ENDBRANCH  15  16
ENDBRANCH   1  15
TORSDOF 6
ENDMDL
MODEL 6
REMARK VINA RESULT:      -7.4      1.734      1.880
REMARK  Name = 
REMARK  6 active torsions:
REMARK  status: ('A' for Active; 'I' for Inactive)
REMARK    1  A    between atoms: C_2  and  C_3
REMARK    2  A    between atoms: C_3  and  C_4
REMARK    3  A    between atoms: C_4  and  N_5
REMARK    4  A    between atoms: N_8  and  C_9
REMARK    5  A    between atoms: C_12  and  O_13
REMARK    6  A    between atoms: N_18  and  C_19
REMARK                            x       y       z     vdW  Elec       q    Type
REMARK                         _______ _______ _______ _____ _____    ______ ____
ROOT
ATOM      1  N   UNL     1       7.475   6.896  17.027  0.00  0.00    +0.000 NA
ATOM      2  C   UNL     1       7.512   5.871  18.100  0.00  0.00    +0.000 C 
ATOM      3  C   UNL     1       6.266   5.816  19.013  0.00  0.00    +0.000 C 
ATOM      4  N   UNL     1       5.045   5.683  18.208  0.00  0.00    +0.000 N 
ATOM      5  C   UNL     1       4.908   6.677  17.133  0.00  0.00    +0.000 C 
ATOM      6  C   UNL     1       6.203   6.723  16.278  0.00  0.00    +0.000 C 
ENDROOT
BRANCH   4   7
ATOM      7  C   UNL     1       4.166   4.628  18.352  0.00  0.00    +0.000 A 
ATOM      8  C   UNL     1       3.918   4.049  19.609  0.00  0.00    +0.000 A 
ATOM      9  C   UNL     1       3.055   2.955  19.768  0.00  0.00    +0.000 A 
ATOM     10  C   UNL     1       2.420   2.422  18.657  0.00  0.00    +0.000 A 
ATOM     11  C   UNL     1       2.622   2.974  17.404  0.00  0.00    +0.000 A 
ATOM     12  C   UNL     1       3.488   4.066  17.258  0.00  0.00    +0.000 A 
BRANCH  10  13
ATOM     13  O   UNL     1       1.587   1.348  18.756  0.00  0.00    +0.000 OA
ATOM     14  H   UNL     1       0.671   1.669  18.758  0.00  0.00    +0.000 HD
ENDBRANCH  10  13
ENDBRANCH   4   7
BRANCH   1  15
ATOM     15  C   UNL     1       7.620   8.280  17.525  0.00  0.00    +0.000 C 
BRANCH  15  16
ATOM     16  C   UNL     1       8.670   8.377  18.635  0.00  0.00    +0.000 C 
BRANCH  16  18
ATOM     17  O   UNL     1       9.176  10.162  20.165  0.00  0.00    +0.000 OA
ATOM     18  C   UNL     1       9.007   9.807  19.004  0.00  0.00    +0.000 C 
ATOM     19  N   UNL     1       9.099  10.607  17.871  0.00  0.00    +0.000 N 
ATOM     20  H   UNL     1       8.768  10.206  17.002  0.00  0.00    +0.000 HD
BRANCH  19  21
ATOM     21  C   UNL     1       9.552  11.941  17.803  0.00  0.00    +0.000 A 
ATOM     22  C   UNL     1       8.732  13.043  18.045  0.00  0.00    +0.000 A 
ATOM     23  C   UNL     1       9.253  14.339  17.982  0.00  0.00    +0.000 A 
ATOM     24  C   UNL     1      10.594  14.543  17.675  0.00  0.00    +0.000 A 
ATOM     25  C   UNL     1      11.424  13.449  17.440  0.00  0.00    +0.000 A 
ATOM     26  C   UNL     1      10.905  12.151  17.511  0.00  0.00    +0.000 A 
ENDBRANCH  19  21
ENDBRANCH  16  18
ENDBRANCH  15  16
ENDBRANCH   1  15
TORSDOF 6
ENDMDL
MODEL 7
REMARK VINA RESULT:      -7.4      1.296      1.840
REMARK  Name = 
REMARK  6 active torsions:
REMARK  status: ('A' for Active; 'I' for Inactive)
REMARK    1  A    between atoms: C_2  and  C_3
REMARK    2  A    between atoms: C_3  and  C_4
REMARK    3  A    between atoms: C_4  and  N_5
REMARK    4  A    between atoms: N_8  and  C_9
REMARK    5  A    between atoms: C_12  and  O_13
REMARK    6  A    between atoms: N_18  and  C_19
REMARK                            x       y       z     vdW  Elec       q    Type
REMARK                         _______ _______ _______ _____ _____    ______ ____
ROOT
ATOM      1  N   UNL     1       6.218   6.299  16.287  0.00  0.00    +0.000 NA
ATOM      2  C   UNL     1       6.062   4.826  16.385  0.00  0.00    +0.000 C 
ATOM      3  C   UNL     1       5.696   4.287  17.787  0.00  0.00    +0.000 C 
ATOM      4  N   UNL     1       4.505   4.972  18.305  0.00  0.00    +0.000 N 
ATOM      5  C   UNL     1       4.578   6.441  18.272  0.00  0.00    +0.000 C 
ATOM      6  C   UNL     1       4.996   6.924  16.856  0.00  0.00    +0.000 C 
ENDROOT
BRANCH   4   7
ATOM      7  C   UNL     1       3.352   4.301  18.661  0.00  0.00    +0.000 A 
ATOM      8  C   UNL     1       2.913   3.172  17.946  0.00  0.00    +0.000 A 
ATOM      9  C   UNL     1       1.727   2.499  18.273  0.00  0.00    +0.000 A 
ATOM     10  C   UNL     1       0.957   2.951  19.334  0.00  0.00    +0.000 A 
ATOM     11  C   UNL     1       1.363   4.047  20.075  0.00  0.00    +0.000 A 
ATOM     12  C   UNL     1       2.549   4.712  19.737  0.00  0.00    +0.000 A 
BRANCH  10  13
ATOM     13  O   UNL     1      -0.212   2.343  19.679  0.00  0.00    +0.000 OA
ATOM     14  H   UNL     1      -0.831   3.022  19.993  0.00  0.00    +0.000 HD
ENDBRANCH  10  13
ENDBRANCH   4   7
BRANCH   1  15
ATOM     15  C   UNL     1       7.439   6.811  16.944  0.00  0.00    +0.000 C 
BRANCH  15  16
ATOM     16  C   UNL     1       7.331   8.305  17.257  0.00  0.00    +0.000 C 
BRANCH  16  18
ATOM     17  O   UNL     1       8.870   8.012  19.083  0.00  0.00    +0.000 OA
ATOM     18  C   UNL     1       8.362   8.772  18.265  0.00  0.00    +0.000 C 
ATOM     19  N   UNL     1       8.632  10.127  18.113  0.00  0.00    +0.000 N 
ATOM     20  H   UNL     1       8.011  10.650  17.507  0.00  0.00    +0.000 HD
BRANCH  19  21
ATOM     21  C   UNL     1       9.645  10.872  18.751  0.00  0.00    +0.000 A 
ATOM     22  C   UNL     1      10.769  11.362  18.088  0.00  0.00    +0.000 A 
ATOM     23  C   UNL     1      11.726  12.114  18.778  0.00  0.00    +0.000 A 
ATOM     24  C   UNL     1      11.566  12.378  20.134  0.00  0.00    +0.000 A 
ATOM     25  C   UNL     1      10.442  11.899  20.804  0.00  0.00    +0.000 A 
ATOM     26  C   UNL     1       9.481  11.155  20.112  0.00  0.00    +0.000 A 
ENDBRANCH  19  21
ENDBRANCH  16  18
ENDBRANCH  15  16
ENDBRANCH   1  15
TORSDOF 6
ENDMDL
MODEL 8
REMARK VINA RESULT:      -7.3      0.862      1.319
REMARK  Name = 
REMARK  6 active torsions:
REMARK  status: ('A' for Active; 'I' for Inactive)
REMARK    1  A    between atoms: C_2  and  C_3
REMARK    2  A    between atoms: C_3  and  C_4
REMARK    3  A    between atoms: C_4  and  N_5
REMARK    4  A    between atoms: N_8  and  C_9
REMARK    5  A    between atoms: C_12  and  O_13
REMARK    6  A    between atoms: N_18  and  C_19
REMARK                            x       y       z     vdW  Elec       q    Type
REMARK                         _______ _______ _______ _____ _____    ______ ____
ROOT
ATOM      1  N   UNL     1       7.196   6.967  17.026  0.00  0.00    +0.000 NA
ATOM      2  C   UNL     1       7.246   5.949  18.105  0.00  0.00    +0.000 C 
ATOM      3  C   UNL     1       5.999   5.881  19.015  0.00  0.00    +0.000 C 
ATOM      4  N   UNL     1       4.783   5.723  18.208  0.00  0.00    +0.000 N 
ATOM      5  C   UNL     1       4.633   6.708  17.126  0.00  0.00    +0.000 C 
ATOM      6  C   UNL     1       5.930   6.768  16.274  0.00  0.00    +0.000 C 
ENDROOT
BRANCH   4   7
ATOM      7  C   UNL     1       3.920   4.655  18.356  0.00  0.00    +0.000 A 
ATOM      8  C   UNL     1       4.361   3.426  18.877  0.00  0.00    +0.000 A 
ATOM      9  C   UNL     1       3.508   2.320  19.002  0.00  0.00    +0.000 A 
ATOM     10  C   UNL     1       2.184   2.434  18.605  0.00  0.00    +0.000 A 
ATOM     11  C   UNL     1       1.705   3.632  18.105  0.00  0.00    +0.000 A 
ATOM     12  C   UNL     1       2.569   4.728  17.983  0.00  0.00    +0.000 A 
BRANCH  10  13
ATOM     13  O   UNL     1       1.320   1.384  18.689  0.00  0.00    +0.000 OA
ATOM     14  H   UNL     1       0.430   1.700  18.468  0.00  0.00    +0.000 HD
ENDBRANCH  10  13
ENDBRANCH   4   7
BRANCH   1  15
ATOM     15  C   UNL     1       7.318   8.356  17.516  0.00  0.00    +0.000 C 
BRANCH  15  16
ATOM     16  C   UNL     1       8.516   8.524  18.455  0.00  0.00    +0.000 C 
BRANCH  16  18
ATOM     17  O   UNL     1       8.873  10.795  17.748  0.00  0.00    +0.000 OA
ATOM     18  C   UNL     1       8.906   9.974  18.658  0.00  0.00    +0.000 C 
ATOM     19  N   UNL     1       9.276  10.212  19.976  0.00  0.00    +0.000 N 
ATOM     20  H   UNL     1       9.411   9.399  20.565  0.00  0.00    +0.000 HD
BRANCH  19  21
ATOM     21  C   UNL     1       9.539  11.460  20.577  0.00  0.00    +0.000 A 
ATOM     22  C   UNL     1      10.473  12.369  20.080  0.00  0.00    +0.000 A 
ATOM     23  C   UNL     1      10.668  13.601  20.712  0.00  0.00    +0.000 A 
ATOM     24  C   UNL     1       9.934  13.930  21.847  0.00  0.00    +0.000 A 
ATOM     25  C   UNL     1       8.993  13.034  22.347  0.00  0.00    +0.000 A 
ATOM     26  C   UNL     1       8.792  11.805  21.709  0.00  0.00    +0.000 A 
ENDBRANCH  19  21
ENDBRANCH  16  18
ENDBRANCH  15  16
ENDBRANCH   1  15
TORSDOF 6
ENDMDL
MODEL 9
REMARK VINA RESULT:      -7.3      5.311      7.275
REMARK  Name = 
REMARK  6 active torsions:
REMARK  status: ('A' for Active; 'I' for Inactive)
REMARK    1  A    between atoms: C_2  and  C_3
REMARK    2  A    between atoms: C_3  and  C_4
REMARK    3  A    between atoms: C_4  and  N_5
REMARK    4  A    between atoms: N_8  and  C_9
REMARK    5  A    between atoms: C_12  and  O_13
REMARK    6  A    between atoms: N_18  and  C_19
REMARK                            x       y       z     vdW  Elec       q    Type
REMARK                         _______ _______ _______ _____ _____    ______ ____
ROOT
ATOM      1  N   UNL     1       3.282   1.885  19.728  0.00  0.00    +0.000 NA
ATOM      2  C   UNL     1       3.044   1.826  18.265  0.00  0.00    +0.000 C 
ATOM      3  C   UNL     1       3.082   3.184  17.528  0.00  0.00    +0.000 C 
ATOM      4  N   UNL     1       4.333   3.894  17.823  0.00  0.00    +0.000 N 
ATOM      5  C   UNL     1       4.641   4.025  19.256  0.00  0.00    +0.000 C 
ATOM      6  C   UNL     1       4.542   2.641  19.953  0.00  0.00    +0.000 C 
ENDROOT
BRANCH   4   7
ATOM      7  C   UNL     1       5.222   4.281  16.841  0.00  0.00    +0.000 A 
ATOM      8  C   UNL     1       4.886   4.204  15.478  0.00  0.00    +0.000 A 
ATOM      9  C   UNL     1       5.788   4.561  14.466  0.00  0.00    +0.000 A 
ATOM     10  C   UNL     1       7.055   5.007  14.810  0.00  0.00    +0.000 A 
ATOM     11  C   UNL     1       7.421   5.116  16.141  0.00  0.00    +0.000 A 
ATOM     12  C   UNL     1       6.510   4.754  17.142  0.00  0.00    +0.000 A 
BRANCH  10  13
ATOM     13  O   UNL     1       7.975   5.348  13.865  0.00  0.00    +0.000 OA
ATOM     14  H   UNL     1       8.716   5.795  14.304  0.00  0.00    +0.000 HD
ENDBRANCH  10  13
ENDBRANCH   4   7
BRANCH   1  15
ATOM     15  C   UNL     1       2.160   2.474  20.488  0.00  0.00    +0.000 C 
BRANCH  15  16
ATOM     16  C   UNL     1       2.530   3.835  21.084  0.00  0.00    +0.000 C 
BRANCH  16  18
ATOM     17  O   UNL     1       0.466   4.804  20.316  0.00  0.00    +0.000 OA
ATOM     18  C   UNL     1       1.656   4.961  20.569  0.00  0.00    +0.000 C 
ATOM     19  N   UNL     1       2.380   6.140  20.447  0.00  0.00    +0.000 N 
ATOM     20  H   UNL     1       3.387   6.068  20.534  0.00  0.00    +0.000 HD
BRANCH  19  21
ATOM     21  C   UNL     1       1.876   7.426  20.161  0.00  0.00    +0.000 A 
ATOM     22  C   UNL     1       1.221   8.220  21.101  0.00  0.00    +0.000 A 
ATOM     23  C   UNL     1       0.766   9.496  20.756  0.00  0.00    +0.000 A 
ATOM     24  C   UNL     1       0.959   9.985  19.468  0.00  0.00    +0.000 A 
ATOM     25  C   UNL     1       1.619   9.203  18.523  0.00  0.00    +0.000 A 
ATOM     26  C   UNL     1       2.082   7.930  18.871  0.00  0.00    +0.000 A 
ENDBRANCH  19  21
ENDBRANCH  16  18
ENDBRANCH  15  16
ENDBRANCH   1  15
TORSDOF 6
ENDMDL
