MODEL 1
REMARK VINA RESULT:      -8.1      0.000      0.000
REMARK  Name = 
REMARK  8 active torsions:
REMARK  status: ('A' for Active; 'I' for Inactive)
REMARK    1  A    between atoms: C_1  and  N_2
REMARK    2  A    between atoms: C_3  and  C_5
REMARK    3  A    between atoms: C_9  and  N_10
REMARK    4  A    between atoms: C_11  and  C_13
REMARK    5  A    between atoms: N_18  and  C_19
REMARK    6  A    between atoms: N_22  and  C_23
REMARK    7  A    between atoms: C_23  and  C_24
REMARK    8  A    between atoms: C_29  and  C_30
REMARK                            x       y       z     vdW  Elec       q    Type
REMARK                         _______ _______ _______ _____ _____    ______ ____
ROOT
ATOM      1  C   UNL     1      -1.071  12.674  21.468  0.00  0.00    +0.000 C 
ATOM      2  C   UNL     1      -0.204  13.928  21.634  0.00  0.00    +0.000 C 
ATOM      3  C   UNL     1       1.180  13.474  21.237  0.00  0.00    +0.000 C 
ATOM      4  C   UNL     1       0.882  12.484  20.158  0.00  0.00    +0.000 C 
ATOM      5  O   UNL     1       1.652  12.231  19.251  0.00  0.00    +0.000 OA
ATOM      6  N   UNL     1      -0.346  11.902  20.456  0.00  0.00    +0.000 N 
ENDROOT
BRANCH   6   7
ATOM      7  C   UNL     1      -0.826  10.584  20.006  0.00  0.00    +0.000 C 
ATOM      8  C   UNL     1      -0.082   9.441  20.693  0.00  0.00    +0.000 C 
ATOM      9  C   UNL     1       1.251   9.113  20.039  0.00  0.00    +0.000 C 
ATOM     10  N   UNL     1       1.156   8.856  18.593  0.00  0.00    +0.000 NA
ATOM     11  C   UNL     1       0.461   9.936  17.872  0.00  0.00    +0.000 C 
ATOM     12  C   UNL     1      -0.869  10.359  18.493  0.00  0.00    +0.000 C 
BRANCH  10  13
ATOM     13  C   UNL     1       2.541   8.722  18.088  0.00  0.00    +0.000 C 
BRANCH  13  14
ATOM     14  C   UNL     1       3.026   7.299  17.932  0.00  0.00    +0.000 A 
ATOM     15  C   UNL     1       2.308   6.238  18.493  0.00  0.00    +0.000 A 
ATOM     16  C   UNL     1       2.710   4.923  18.265  0.00  0.00    +0.000 A 
ATOM     17  C   UNL     1       3.823   4.655  17.461  0.00  0.00    +0.000 A 
ATOM     18 CL   UNL     1       4.214   2.996  17.179  0.00  0.00    +0.000 Cl
ATOM     19  C   UNL     1       4.566   5.703  16.901  0.00  0.00    +0.000 A 
ATOM     20  C   UNL     1       5.726   5.511  15.968  0.00  0.00    +0.000 C 
ATOM     21  C   UNL     1       4.164   7.024  17.164  0.00  0.00    +0.000 A 
ENDBRANCH  13  14
ENDBRANCH  10  13
ENDBRANCH   6   7
BRANCH   1  23
ATOM     22  N   UNL     1      -2.541  12.393  23.509  0.00  0.00    +0.000 N 
ATOM     23  C   UNL     1      -1.376  12.055  22.855  0.00  0.00    +0.000 C 
ATOM     24  O   UNL     1      -0.589  11.303  23.435  0.00  0.00    +0.000 OA
ATOM     25  H   UNL     1      -2.571  12.080  24.466  0.00  0.00    +0.000 HD
BRANCH  22  30
ATOM     26  C   UNL     1      -5.664  13.279  21.930  0.00  0.00    +0.000 A 
ATOM     27  C   UNL     1      -5.628  14.663  21.901  0.00  0.00    +0.000 A 
ATOM     28  C   UNL     1      -4.539  15.296  22.488  0.00  0.00    +0.000 A 
ATOM     29  C   UNL     1      -3.528  14.530  23.072  0.00  0.00    +0.000 A 
ATOM     30  C   UNL     1      -3.620  13.145  23.019  0.00  0.00    +0.000 A 
ATOM     31  N   UNL     1      -4.682  12.515  22.479  0.00  0.00    +0.000 NA
BRANCH  26  34
ATOM     32  C   UNL     1      -7.450  10.420  20.197  0.00  0.00    +0.000 C 
ATOM     33  N   UNL     1      -6.491  11.268  20.853  0.00  0.00    +0.000 N 
ATOM     34  C   UNL     1      -6.801  12.539  21.286  0.00  0.00    +0.000 C 
ATOM     35  O   UNL     1      -7.906  13.056  21.165  0.00  0.00    +0.000 OA
ATOM     36  H   UNL     1      -5.563  10.923  21.051  0.00  0.00    +0.000 HD
ENDBRANCH  26  34
ENDBRANCH  22  30
ENDBRANCH   1  23
TORSDOF 6
ENDMDL
MODEL 2
REMARK VINA RESULT:      -7.9      5.263     10.925
REMARK  Name = 
REMARK  8 active torsions:
REMARK  status: ('A' for Active; 'I' for Inactive)
REMARK    1  A    between atoms: C_1  and  N_2
REMARK    2  A    between atoms: C_3  and  C_5
REMARK    3  A    between atoms: C_9  and  N_10
REMARK    4  A    between atoms: C_11  and  C_13
REMARK    5  A    between atoms: N_18  and  C_19
REMARK    6  A    between atoms: N_22  and  C_23
REMARK    7  A    between atoms: C_23  and  C_24
REMARK    8  A    between atoms: C_29  and  C_30
REMARK                            x       y       z     vdW  Elec       q    Type
REMARK                         _______ _______ _______ _____ _____    ______ ____
ROOT
ATOM      1  C   UNL     1       3.123   3.425  18.476  0.00  0.00    +0.000 C 
ATOM      2  C   UNL     1       2.128   2.371  17.972  0.00  0.00    +0.000 C 
ATOM      3  C   UNL     1       1.103   2.275  19.077  0.00  0.00    +0.000 C 
ATOM      4  C   UNL     1       1.049   3.685  19.570  0.00  0.00    +0.000 C 
ATOM      5  O   UNL     1       0.066   4.173  20.095  0.00  0.00    +0.000 OA
ATOM      6  N   UNL     1       2.311   4.239  19.383  0.00  0.00    +0.000 N 
ENDROOT
BRANCH   6   7
ATOM      7  C   UNL     1       2.890   5.375  20.121  0.00  0.00    +0.000 C 
ATOM      8  C   UNL     1       1.812   6.287  20.702  0.00  0.00    +0.000 C 
ATOM      9  C   UNL     1       1.270   7.292  19.698  0.00  0.00    +0.000 C 
ATOM     10  N   UNL     1       2.314   8.098  19.043  0.00  0.00    +0.000 NA
ATOM     11  C   UNL     1       3.375   7.270  18.446  0.00  0.00    +0.000 C 
ATOM     12  C   UNL     1       3.943   6.200  19.377  0.00  0.00    +0.000 C 
BRANCH  10  13
ATOM     13  C   UNL     1       1.643   8.894  17.990  0.00  0.00    +0.000 C 
BRANCH  13  14
ATOM     14  C   UNL     1       0.516   9.774  18.479  0.00  0.00    +0.000 A 
ATOM     15  C   UNL     1       0.719  10.668  19.534  0.00  0.00    +0.000 A 
ATOM     16  C   UNL     1      -0.297  11.543  19.916  0.00  0.00    +0.000 A 
ATOM     17  C   UNL     1      -1.520  11.542  19.238  0.00  0.00    +0.000 A 
ATOM     18 CL   UNL     1      -2.701  12.700  19.736  0.00  0.00    +0.000 Cl
ATOM     19  C   UNL     1      -1.751  10.643  18.187  0.00  0.00    +0.000 A 
ATOM     20  C   UNL     1      -3.001  10.621  17.356  0.00  0.00    +0.000 C 
ATOM     21  C   UNL     1      -0.726   9.749  17.833  0.00  0.00    +0.000 A 
ENDBRANCH  13  14
ENDBRANCH  10  13
ENDBRANCH   6   7
BRANCH   1  23
ATOM     22  N   UNL     1       5.638   3.155  18.521  0.00  0.00    +0.000 N 
ATOM     23  C   UNL     1       4.412   2.733  18.986  0.00  0.00    +0.000 C 
ATOM     24  O   UNL     1       4.389   1.774  19.760  0.00  0.00    +0.000 OA
ATOM     25  H   UNL     1       6.397   2.541  18.773  0.00  0.00    +0.000 HD
BRANCH  22  30
ATOM     26  C   UNL     1       6.911   6.347  17.417  0.00  0.00    +0.000 A 
ATOM     27  C   UNL     1       6.300   6.529  16.188  0.00  0.00    +0.000 A 
ATOM     28  C   UNL     1       5.486   5.508  15.710  0.00  0.00    +0.000 A 
ATOM     29  C   UNL     1       5.307   4.354  16.475  0.00  0.00    +0.000 A 
ATOM     30  C   UNL     1       5.922   4.271  17.719  0.00  0.00    +0.000 A 
ATOM     31  N   UNL     1       6.737   5.239  18.185  0.00  0.00    +0.000 NA
BRANCH  26  34
ATOM     32  C   UNL     1       8.404   9.810  17.807  0.00  0.00    +0.000 C 
ATOM     33  N   UNL     1       7.641   8.662  17.396  0.00  0.00    +0.000 N 
ATOM     34  C   UNL     1       7.778   7.428  17.997  0.00  0.00    +0.000 C 
ATOM     35  O   UNL     1       8.541   7.198  18.927  0.00  0.00    +0.000 OA
ATOM     36  H   UNL     1       6.943   8.751  16.672  0.00  0.00    +0.000 HD
ENDBRANCH  26  34
ENDBRANCH  22  30
ENDBRANCH   1  23
TORSDOF 6
ENDMDL
MODEL 3
REMARK VINA RESULT:      -7.8      5.214     10.901
REMARK  Name = 
REMARK  8 active torsions:
REMARK  status: ('A' for Active; 'I' for Inactive)
REMARK    1  A    between atoms: C_1  and  N_2
REMARK    2  A    between atoms: C_3  and  C_5
REMARK    3  A    between atoms: C_9  and  N_10
REMARK    4  A    between atoms: C_11  and  C_13
REMARK    5  A    between atoms: N_18  and  C_19
REMARK    6  A    between atoms: N_22  and  C_23
REMARK    7  A    between atoms: C_23  and  C_24
REMARK    8  A    between atoms: C_29  and  C_30
REMARK                            x       y       z     vdW  Elec       q    Type
REMARK                         _______ _______ _______ _____ _____    ______ ____
ROOT
ATOM      1  C   UNL     1       3.161   3.431  18.603  0.00  0.00    +0.000 C 
ATOM      2  C   UNL     1       2.168   2.344  18.171  0.00  0.00    +0.000 C 
ATOM      3  C   UNL     1       1.144   2.319  19.279  0.00  0.00    +0.000 C 
ATOM      4  C   UNL     1       1.088   3.758  19.679  0.00  0.00    +0.000 C 
ATOM      5  O   UNL     1       0.104   4.278  20.171  0.00  0.00    +0.000 OA
ATOM      6  N   UNL     1       2.348   4.301  19.455  0.00  0.00    +0.000 N 
ENDROOT
BRANCH   6   7
ATOM      7  C   UNL     1       2.926   5.484  20.117  0.00  0.00    +0.000 C 
ATOM      8  C   UNL     1       1.847   6.397  20.696  0.00  0.00    +0.000 C 
ATOM      9  C   UNL     1       1.242   7.340  19.668  0.00  0.00    +0.000 C 
ATOM     10  N   UNL     1       2.239   8.139  18.936  0.00  0.00    +0.000 NA
ATOM     11  C   UNL     1       3.298   7.309  18.337  0.00  0.00    +0.000 C 
ATOM     12  C   UNL     1       3.928   6.298  19.294  0.00  0.00    +0.000 C 
BRANCH  10  13
ATOM     13  C   UNL     1       1.508   8.868  17.875  0.00  0.00    +0.000 C 
BRANCH  13  14
ATOM     14  C   UNL     1       0.552   9.926  18.373  0.00  0.00    +0.000 A 
ATOM     15  C   UNL     1      -0.775   9.950  17.931  0.00  0.00    +0.000 A 
ATOM     16  C   UNL     1      -1.675  10.870  18.466  0.00  0.00    +0.000 A 
ATOM     17  C   UNL     1      -1.262  11.765  19.459  0.00  0.00    +0.000 A 
ATOM     18 CL   UNL     1      -2.456  12.829  20.111  0.00  0.00    +0.000 Cl
ATOM     19  C   UNL     1       0.067  11.769  19.905  0.00  0.00    +0.000 A 
ATOM     20  C   UNL     1       0.581  12.640  21.015  0.00  0.00    +0.000 C 
ATOM     21  C   UNL     1       0.968  10.855  19.335  0.00  0.00    +0.000 A 
ENDBRANCH  13  14
ENDBRANCH  10  13
ENDBRANCH   6   7
BRANCH   1  23
ATOM     22  N   UNL     1       5.679   3.190  18.687  0.00  0.00    +0.000 N 
ATOM     23  C   UNL     1       4.452   2.776  19.157  0.00  0.00    +0.000 C 
ATOM     24  O   UNL     1       4.430   1.853  19.974  0.00  0.00    +0.000 OA
ATOM     25  H   UNL     1       6.441   2.596  18.974  0.00  0.00    +0.000 HD
BRANCH  22  30
ATOM     26  C   UNL     1       6.930   6.343  17.453  0.00  0.00    +0.000 A 
ATOM     27  C   UNL     1       6.331   6.462  16.210  0.00  0.00    +0.000 A 
ATOM     28  C   UNL     1       5.535   5.411  15.770  0.00  0.00    +0.000 A 
ATOM     29  C   UNL     1       5.360   4.290  16.584  0.00  0.00    +0.000 A 
ATOM     30  C   UNL     1       5.960   4.271  17.838  0.00  0.00    +0.000 A 
ATOM     31  N   UNL     1       6.758   5.269  18.269  0.00  0.00    +0.000 NA
BRANCH  26  34
ATOM     32  C   UNL     1       8.327   9.855  17.748  0.00  0.00    +0.000 C 
ATOM     33  N   UNL     1       7.589   8.677  17.375  0.00  0.00    +0.000 N 
ATOM     34  C   UNL     1       7.777   7.459  17.993  0.00  0.00    +0.000 C 
ATOM     35  O   UNL     1       8.568   7.268  18.909  0.00  0.00    +0.000 OA
ATOM     36  H   UNL     1       6.872   8.733  16.667  0.00  0.00    +0.000 HD
ENDBRANCH  26  34
ENDBRANCH  22  30
ENDBRANCH   1  23
TORSDOF 6
ENDMDL
MODEL 4
REMARK VINA RESULT:      -7.7      5.226     11.447
REMARK  Name = 
REMARK  8 active torsions:
REMARK  status: ('A' for Active; 'I' for Inactive)
REMARK    1  A    between atoms: C_1  and  N_2
REMARK    2  A    between atoms: C_3  and  C_5
REMARK    3  A    between atoms: C_9  and  N_10
REMARK    4  A    between atoms: C_11  and  C_13
REMARK    5  A    between atoms: N_18  and  C_19
REMARK    6  A    between atoms: N_22  and  C_23
REMARK    7  A    between atoms: C_23  and  C_24
REMARK    8  A    between atoms: C_29  and  C_30
REMARK                            x       y       z     vdW  Elec       q    Type
REMARK                         _______ _______ _______ _____ _____    ______ ____
ROOT
ATOM      1  C   UNL     1       3.181   3.756  18.203  0.00  0.00    +0.000 C 
ATOM      2  C   UNL     1       2.232   2.620  17.797  0.00  0.00    +0.000 C 
ATOM      3  C   UNL     1       1.394   2.383  19.030  0.00  0.00    +0.000 C 
ATOM      4  C   UNL     1       1.273   3.763  19.591  0.00  0.00    +0.000 C 
ATOM      5  O   UNL     1       0.334   4.129  20.272  0.00  0.00    +0.000 OA
ATOM      6  N   UNL     1       2.433   4.451  19.253  0.00  0.00    +0.000 N 
ENDROOT
BRANCH   6   7
ATOM      7  C   UNL     1       3.000   5.617  19.954  0.00  0.00    +0.000 C 
ATOM      8  C   UNL     1       1.913   6.487  20.583  0.00  0.00    +0.000 C 
ATOM      9  C   UNL     1       1.279   7.459  19.602  0.00  0.00    +0.000 C 
ATOM     10  N   UNL     1       2.252   8.304  18.889  0.00  0.00    +0.000 NA
ATOM     11  C   UNL     1       3.317   7.517  18.244  0.00  0.00    +0.000 C 
ATOM     12  C   UNL     1       3.977   6.481  19.153  0.00  0.00    +0.000 C 
BRANCH  10  13
ATOM     13  C   UNL     1       1.495   9.062  17.867  0.00  0.00    +0.000 C 
BRANCH  13  14
ATOM     14  C   UNL     1       0.331   9.863  18.402  0.00  0.00    +0.000 A 
ATOM     15  C   UNL     1       0.527  10.819  19.404  0.00  0.00    +0.000 A 
ATOM     16  C   UNL     1      -0.534  11.620  19.824  0.00  0.00    +0.000 A 
ATOM     17  C   UNL     1      -1.796  11.484  19.237  0.00  0.00    +0.000 A 
ATOM     18 CL   UNL     1      -3.038  12.557  19.774  0.00  0.00    +0.000 Cl
ATOM     19  C   UNL     1      -2.019  10.521  18.242  0.00  0.00    +0.000 A 
ATOM     20  C   UNL     1      -3.317  10.354  17.505  0.00  0.00    +0.000 C 
ATOM     21  C   UNL     1      -0.946   9.703  17.850  0.00  0.00    +0.000 A 
ENDBRANCH  13  14
ENDBRANCH  10  13
ENDBRANCH   6   7
BRANCH   1  23
ATOM     22  N   UNL     1       5.594   3.345  17.560  0.00  0.00    +0.000 N 
ATOM     23  C   UNL     1       4.592   3.186  18.493  0.00  0.00    +0.000 C 
ATOM     24  O   UNL     1       4.852   2.541  19.511  0.00  0.00    +0.000 OA
ATOM     25  H   UNL     1       6.418   2.800  17.757  0.00  0.00    +0.000 HD
BRANCH  22  30
ATOM     26  C   UNL     1       5.926   4.328  14.102  0.00  0.00    +0.000 A 
ATOM     27  C   UNL     1       5.682   5.691  14.131  0.00  0.00    +0.000 A 
ATOM     28  C   UNL     1       5.340   6.263  15.350  0.00  0.00    +0.000 A 
ATOM     29  C   UNL     1       5.262   5.462  16.491  0.00  0.00    +0.000 A 
ATOM     30  C   UNL     1       5.566   4.110  16.384  0.00  0.00    +0.000 A 
ATOM     31  N   UNL     1       5.872   3.533  15.204  0.00  0.00    +0.000 NA
BRANCH  26  34
ATOM     32  C   UNL     1       5.954   1.679  11.391  0.00  0.00    +0.000 C 
ATOM     33  N   UNL     1       5.683   2.468  12.563  0.00  0.00    +0.000 N 
ATOM     34  C   UNL     1       6.328   3.659  12.819  0.00  0.00    +0.000 C 
ATOM     35  O   UNL     1       7.171   4.156  12.082  0.00  0.00    +0.000 OA
ATOM     36  H   UNL     1       4.967   2.178  13.213  0.00  0.00    +0.000 HD
ENDBRANCH  26  34
ENDBRANCH  22  30
ENDBRANCH   1  23
TORSDOF 6
ENDMDL
MODEL 5
REMARK VINA RESULT:      -7.7      0.977      1.633
REMARK  Name = 
REMARK  8 active torsions:
REMARK  status: ('A' for Active; 'I' for Inactive)
REMARK    1  A    between atoms: C_1  and  N_2
REMARK    2  A    between atoms: C_3  and  C_5
REMARK    3  A    between atoms: C_9  and  N_10
REMARK    4  A    between atoms: C_11  and  C_13
REMARK    5  A    between atoms: N_18  and  C_19
REMARK    6  A    between atoms: N_22  and  C_23
REMARK    7  A    between atoms: C_23  and  C_24
REMARK    8  A    between atoms: C_29  and  C_30
REMARK                            x       y       z     vdW  Elec       q    Type
REMARK                         _______ _______ _______ _____ _____    ______ ____
ROOT
ATOM      1  C   UNL     1      -0.531  12.376  21.165  0.00  0.00    +0.000 C 
ATOM      2  C   UNL     1       0.454  13.540  21.340  0.00  0.00    +0.000 C 
ATOM      3  C   UNL     1       1.767  12.990  20.838  0.00  0.00    +0.000 C 
ATOM      4  C   UNL     1       1.321  12.090  19.731  0.00  0.00    +0.000 C 
ATOM      5  O   UNL     1       2.013  11.821  18.767  0.00  0.00    +0.000 OA
ATOM      6  N   UNL     1       0.065  11.601  20.074  0.00  0.00    +0.000 N 
ENDROOT
BRANCH   6   7
ATOM      7  C   UNL     1      -0.556  10.356  19.589  0.00  0.00    +0.000 C 
ATOM      8  C   UNL     1      -0.206   9.162  20.476  0.00  0.00    +0.000 C 
ATOM      9  C   UNL     1       1.145   8.546  20.149  0.00  0.00    +0.000 C 
ATOM     10  N   UNL     1       1.306   8.186  18.730  0.00  0.00    +0.000 NA
ATOM     11  C   UNL     1       1.000   9.307  17.825  0.00  0.00    +0.000 C 
ATOM     12  C   UNL     1      -0.324  10.012  18.116  0.00  0.00    +0.000 C 
BRANCH  10  13
ATOM     13  C   UNL     1       2.714   7.764  18.552  0.00  0.00    +0.000 C 
BRANCH  13  14
ATOM     14  C   UNL     1       2.909   6.284  18.317  0.00  0.00    +0.000 A 
ATOM     15  C   UNL     1       3.949   5.825  17.503  0.00  0.00    +0.000 A 
ATOM     16  C   UNL     1       4.180   4.457  17.367  0.00  0.00    +0.000 A 
ATOM     17  C   UNL     1       3.385   3.535  18.056  0.00  0.00    +0.000 A 
ATOM     18 CL   UNL     1       3.780   1.863  17.880  0.00  0.00    +0.000 Cl
ATOM     19  C   UNL     1       2.327   3.973  18.865  0.00  0.00    +0.000 A 
ATOM     20  C   UNL     1       1.470   3.063  19.698  0.00  0.00    +0.000 C 
ATOM     21  C   UNL     1       2.089   5.354  18.968  0.00  0.00    +0.000 A 
ENDBRANCH  13  14
ENDBRANCH  10  13
ENDBRANCH   6   7
BRANCH   1  23
ATOM     22  N   UNL     1      -1.953  12.043  23.231  0.00  0.00    +0.000 N 
ATOM     23  C   UNL     1      -0.811  11.711  22.536  0.00  0.00    +0.000 C 
ATOM     24  O   UNL     1      -0.023  10.925  23.067  0.00  0.00    +0.000 OA
ATOM     25  H   UNL     1      -1.965  11.695  24.177  0.00  0.00    +0.000 HD
BRANCH  22  30
ATOM     26  C   UNL     1      -5.017  13.071  21.621  0.00  0.00    +0.000 A 
ATOM     27  C   UNL     1      -5.030  14.444  21.803  0.00  0.00    +0.000 A 
ATOM     28  C   UNL     1      -3.999  15.010  22.543  0.00  0.00    +0.000 A 
ATOM     29  C   UNL     1      -2.994  14.193  23.064  0.00  0.00    +0.000 A 
ATOM     30  C   UNL     1      -3.031  12.830  22.797  0.00  0.00    +0.000 A 
ATOM     31  N   UNL     1      -4.039  12.260  22.105  0.00  0.00    +0.000 NA
BRANCH  26  34
ATOM     32  C   UNL     1      -7.837  10.662  20.839  0.00  0.00    +0.000 C 
ATOM     33  N   UNL     1      -6.787  11.418  21.467  0.00  0.00    +0.000 N 
ATOM     34  C   UNL     1      -6.089  12.406  20.806  0.00  0.00    +0.000 C 
ATOM     35  O   UNL     1      -6.298  12.736  19.645  0.00  0.00    +0.000 OA
ATOM     36  H   UNL     1      -6.567  11.266  22.441  0.00  0.00    +0.000 HD
ENDBRANCH  26  34
ENDBRANCH  22  30
ENDBRANCH   1  23
TORSDOF 6
ENDMDL
MODEL 6
REMARK VINA RESULT:      -7.7      5.196     11.468
REMARK  Name = 
REMARK  8 active torsions:
REMARK  status: ('A' for Active; 'I' for Inactive)
REMARK    1  A    between atoms: C_1  and  N_2
REMARK    2  A    between atoms: C_3  and  C_5
REMARK    3  A    between atoms: C_9  and  N_10
REMARK    4  A    between atoms: C_11  and  C_13
REMARK    5  A    between atoms: N_18  and  C_19
REMARK    6  A    between atoms: N_22  and  C_23
REMARK    7  A    between atoms: C_23  and  C_24
REMARK    8  A    between atoms: C_29  and  C_30
REMARK                            x       y       z     vdW  Elec       q    Type
REMARK                         _______ _______ _______ _____ _____    ______ ____
ROOT
ATOM      1  C   UNL     1       3.228   3.738  18.191  0.00  0.00    +0.000 C 
ATOM      2  C   UNL     1       2.333   2.574  17.747  0.00  0.00    +0.000 C 
ATOM      3  C   UNL     1       1.486   2.277  18.961  0.00  0.00    +0.000 C 
ATOM      4  C   UNL     1       1.302   3.639  19.549  0.00  0.00    +0.000 C 
ATOM      5  O   UNL     1       0.339   3.953  20.223  0.00  0.00    +0.000 OA
ATOM      6  N   UNL     1       2.438   4.380  19.243  0.00  0.00    +0.000 N 
ENDROOT
BRANCH   6   7
ATOM      7  C   UNL     1       2.946   5.553  19.976  0.00  0.00    +0.000 C 
ATOM      8  C   UNL     1       1.814   6.385  20.576  0.00  0.00    +0.000 C 
ATOM      9  C   UNL     1       1.188   7.351  19.583  0.00  0.00    +0.000 C 
ATOM     10  N   UNL     1       2.161   8.231  18.915  0.00  0.00    +0.000 NA
ATOM     11  C   UNL     1       3.270   7.482  18.300  0.00  0.00    +0.000 C 
ATOM     12  C   UNL     1       3.927   6.453  19.219  0.00  0.00    +0.000 C 
BRANCH  10  13
ATOM     13  C   UNL     1       1.420   8.979  17.875  0.00  0.00    +0.000 C 
BRANCH  13  14
ATOM     14  C   UNL     1       0.409   9.971  18.403  0.00  0.00    +0.000 A 
ATOM     15  C   UNL     1      -0.897   9.987  17.904  0.00  0.00    +0.000 A 
ATOM     16  C   UNL     1      -1.849  10.840  18.462  0.00  0.00    +0.000 A 
ATOM     17  C   UNL     1      -1.509  11.671  19.534  0.00  0.00    +0.000 A 
ATOM     18 CL   UNL     1      -2.764  12.650  20.205  0.00  0.00    +0.000 Cl
ATOM     19  C   UNL     1      -0.201  11.682  20.040  0.00  0.00    +0.000 A 
ATOM     20  C   UNL     1       0.235  12.484  21.232  0.00  0.00    +0.000 C 
ATOM     21  C   UNL     1       0.753  10.838  19.447  0.00  0.00    +0.000 A 
ENDBRANCH  13  14
ENDBRANCH  10  13
ENDBRANCH   6   7
BRANCH   1  23
ATOM     22  N   UNL     1       5.654   3.395  17.555  0.00  0.00    +0.000 N 
ATOM     23  C   UNL     1       4.657   3.219  18.491  0.00  0.00    +0.000 C 
ATOM     24  O   UNL     1       4.937   2.601  19.520  0.00  0.00    +0.000 OA
ATOM     25  H   UNL     1       6.495   2.880  17.762  0.00  0.00    +0.000 HD
BRANCH  22  30
ATOM     26  C   UNL     1       5.946   4.324  14.079  0.00  0.00    +0.000 A 
ATOM     27  C   UNL     1       5.670   5.681  14.085  0.00  0.00    +0.000 A 
ATOM     28  C   UNL     1       5.320   6.267  15.296  0.00  0.00    +0.000 A 
ATOM     29  C   UNL     1       5.266   5.484  16.451  0.00  0.00    +0.000 A 
ATOM     30  C   UNL     1       5.602   4.139  16.366  0.00  0.00    +0.000 A 
ATOM     31  N   UNL     1       5.916   3.548  15.195  0.00  0.00    +0.000 NA
BRANCH  26  34
ATOM     32  C   UNL     1       5.990   1.652  11.391  0.00  0.00    +0.000 C 
ATOM     33  N   UNL     1       5.711   2.451  12.554  0.00  0.00    +0.000 N 
ATOM     34  C   UNL     1       6.358   3.643  12.806  0.00  0.00    +0.000 C 
ATOM     35  O   UNL     1       7.209   4.131  12.073  0.00  0.00    +0.000 OA
ATOM     36  H   UNL     1       4.988   2.170  13.200  0.00  0.00    +0.000 HD
ENDBRANCH  26  34
ENDBRANCH  22  30
ENDBRANCH   1  23
TORSDOF 6
ENDMDL
MODEL 7
REMARK VINA RESULT:      -7.7      1.011      1.011
REMARK  Name = 
REMARK  8 active torsions:
REMARK  status: ('A' for Active; 'I' for Inactive)
REMARK    1  A    between atoms: C_1  and  N_2
REMARK    2  A    between atoms: C_3  and  C_5
REMARK    3  A    between atoms: C_9  and  N_10
REMARK    4  A    between atoms: C_11  and  C_13
REMARK    5  A    between atoms: N_18  and  C_19
REMARK    6  A    between atoms: N_22  and  C_23
REMARK    7  A    between atoms: C_23  and  C_24
REMARK    8  A    between atoms: C_29  and  C_30
REMARK                            x       y       z     vdW  Elec       q    Type
REMARK                         _______ _______ _______ _____ _____    ______ ____
ROOT
ATOM      1  C   UNL     1      -0.868  12.727  21.208  0.00  0.00    +0.000 C 
ATOM      2  C   UNL     1       0.048  13.952  21.331  0.00  0.00    +0.000 C 
ATOM      3  C   UNL     1       1.421  13.420  21.000  0.00  0.00    +0.000 C 
ATOM      4  C   UNL     1       1.109  12.385  19.968  0.00  0.00    +0.000 C 
ATOM      5  O   UNL     1       1.892  12.050  19.099  0.00  0.00    +0.000 OA
ATOM      6  N   UNL     1      -0.149  11.872  20.262  0.00  0.00    +0.000 N 
ENDROOT
BRANCH   6   7
ATOM      7  C   UNL     1      -0.673  10.551  19.870  0.00  0.00    +0.000 C 
ATOM      8  C   UNL     1       0.049   9.415  20.591  0.00  0.00    +0.000 C 
ATOM      9  C   UNL     1       1.362   9.024  19.932  0.00  0.00    +0.000 C 
ATOM     10  N   UNL     1       1.238   8.713  18.498  0.00  0.00    +0.000 NA
ATOM     11  C   UNL     1       0.564   9.785  17.745  0.00  0.00    +0.000 C 
ATOM     12  C   UNL     1      -0.745  10.270  18.367  0.00  0.00    +0.000 C 
BRANCH  10  13
ATOM     13  C   UNL     1       2.611   8.520  17.981  0.00  0.00    +0.000 C 
BRANCH  13  14
ATOM     14  C   UNL     1       3.060   7.080  17.890  0.00  0.00    +0.000 A 
ATOM     15  C   UNL     1       2.195   6.042  18.253  0.00  0.00    +0.000 A 
ATOM     16  C   UNL     1       2.583   4.714  18.076  0.00  0.00    +0.000 A 
ATOM     17  C   UNL     1       3.830   4.411  17.523  0.00  0.00    +0.000 A 
ATOM     18 CL   UNL     1       4.205   2.742  17.283  0.00  0.00    +0.000 Cl
ATOM     19  C   UNL     1       4.719   5.436  17.167  0.00  0.00    +0.000 A 
ATOM     20  C   UNL     1       6.045   5.208  16.499  0.00  0.00    +0.000 C 
ATOM     21  C   UNL     1       4.325   6.768  17.377  0.00  0.00    +0.000 A 
ENDBRANCH  13  14
ENDBRANCH  10  13
ENDBRANCH   6   7
BRANCH   1  23
ATOM     22  N   UNL     1      -2.434  12.569  23.189  0.00  0.00    +0.000 N 
ATOM     23  C   UNL     1      -1.236  12.200  22.617  0.00  0.00    +0.000 C 
ATOM     24  O   UNL     1      -0.473  11.496  23.284  0.00  0.00    +0.000 OA
ATOM     25  H   UNL     1      -2.509  12.321  24.163  0.00  0.00    +0.000 HD
BRANCH  22  30
ATOM     26  C   UNL     1      -5.165  13.452  20.999  0.00  0.00    +0.000 A 
ATOM     27  C   UNL     1      -5.437  14.767  21.340  0.00  0.00    +0.000 A 
ATOM     28  C   UNL     1      -4.708  15.332  22.380  0.00  0.00    +0.000 A 
ATOM     29  C   UNL     1      -3.735  14.573  23.032  0.00  0.00    +0.000 A 
ATOM     30  C   UNL     1      -3.493  13.275  22.598  0.00  0.00    +0.000 A 
ATOM     31  N   UNL     1      -4.210  12.702  21.611  0.00  0.00    +0.000 NA
BRANCH  26  34
ATOM     32  C   UNL     1      -5.920  12.467  17.418  0.00  0.00    +0.000 C 
ATOM     33  N   UNL     1      -5.342  13.002  18.621  0.00  0.00    +0.000 N 
ATOM     34  C   UNL     1      -5.900  12.798  19.865  0.00  0.00    +0.000 C 
ATOM     35  O   UNL     1      -6.918  12.145  20.063  0.00  0.00    +0.000 OA
ATOM     36  H   UNL     1      -4.472  13.512  18.581  0.00  0.00    +0.000 HD
ENDBRANCH  26  34
ENDBRANCH  22  30
ENDBRANCH   1  23
TORSDOF 6
ENDMDL
MODEL 8
REMARK VINA RESULT:      -7.7      5.526     10.879
REMARK  Name = 
REMARK  8 active torsions:
REMARK  status: ('A' for Active; 'I' for Inactive)
REMARK    1  A    between atoms: C_1  and  N_2
REMARK    2  A    between atoms: C_3  and  C_5
REMARK    3  A    between atoms: C_9  and  N_10
REMARK    4  A    between atoms: C_11  and  C_13
REMARK    5  A    between atoms: N_18  and  C_19
REMARK    6  A    between atoms: N_22  and  C_23
REMARK    7  A    between atoms: C_23  and  C_24
REMARK    8  A    between atoms: C_29  and  C_30
REMARK                            x       y       z     vdW  Elec       q    Type
REMARK                         _______ _______ _______ _____ _____    ______ ____
ROOT
ATOM      1  C   UNL     1       3.145   3.351  18.544  0.00  0.00    +0.000 C 
ATOM      2  C   UNL     1       2.178   2.266  18.053  0.00  0.00    +0.000 C 
ATOM      3  C   UNL     1       1.151   2.162  19.154  0.00  0.00    +0.000 C 
ATOM      4  C   UNL     1       1.061   3.578  19.625  0.00  0.00    +0.000 C 
ATOM      5  O   UNL     1       0.064   4.050  20.139  0.00  0.00    +0.000 OA
ATOM      6  N   UNL     1       2.310   4.159  19.435  0.00  0.00    +0.000 N 
ENDROOT
BRANCH   6   7
ATOM      7  C   UNL     1       2.858   5.320  20.158  0.00  0.00    +0.000 C 
ATOM      8  C   UNL     1       1.756   6.237  20.683  0.00  0.00    +0.000 C 
ATOM      9  C   UNL     1       1.235   7.210  19.636  0.00  0.00    +0.000 C 
ATOM     10  N   UNL     1       2.290   8.007  18.989  0.00  0.00    +0.000 NA
ATOM     11  C   UNL     1       3.375   7.173  18.445  0.00  0.00    +0.000 C 
ATOM     12  C   UNL     1       3.925   6.134  19.421  0.00  0.00    +0.000 C 
BRANCH  10  13
ATOM     13  C   UNL     1       1.643   8.768  17.896  0.00  0.00    +0.000 C 
BRANCH  13  14
ATOM     14  C   UNL     1       1.249  10.183  18.253  0.00  0.00    +0.000 A 
ATOM     15  C   UNL     1      -0.004  10.452  18.812  0.00  0.00    +0.000 A 
ATOM     16  C   UNL     1      -0.324  11.744  19.226  0.00  0.00    +0.000 A 
ATOM     17  C   UNL     1       0.611  12.776  19.099  0.00  0.00    +0.000 A 
ATOM     18 CL   UNL     1       0.156  14.333  19.693  0.00  0.00    +0.000 Cl
ATOM     19  C   UNL     1       1.868  12.533  18.527  0.00  0.00    +0.000 A 
ATOM     20  C   UNL     1       2.959  13.559  18.418  0.00  0.00    +0.000 C 
ATOM     21  C   UNL     1       2.163  11.231  18.089  0.00  0.00    +0.000 A 
ENDBRANCH  13  14
ENDBRANCH  10  13
ENDBRANCH   6   7
BRANCH   1  23
ATOM     22  N   UNL     1       5.666   3.137  18.599  0.00  0.00    +0.000 N 
ATOM     23  C   UNL     1       4.448   2.698  19.070  0.00  0.00    +0.000 C 
ATOM     24  O   UNL     1       4.444   1.755  19.865  0.00  0.00    +0.000 OA
ATOM     25  H   UNL     1       6.437   2.545  18.865  0.00  0.00    +0.000 HD
BRANCH  22  30
ATOM     26  C   UNL     1       6.887   6.324  17.423  0.00  0.00    +0.000 A 
ATOM     27  C   UNL     1       6.259   6.476  16.199  0.00  0.00    +0.000 A 
ATOM     28  C   UNL     1       5.453   5.438  15.749  0.00  0.00    +0.000 A 
ATOM     29  C   UNL     1       5.296   4.295  16.536  0.00  0.00    +0.000 A 
ATOM     30  C   UNL     1       5.926   4.241  17.773  0.00  0.00    +0.000 A 
ATOM     31  N   UNL     1       6.735   5.227  18.212  0.00  0.00    +0.000 NA
BRANCH  26  34
ATOM     32  C   UNL     1       8.327   9.815  17.748  0.00  0.00    +0.000 C 
ATOM     33  N   UNL     1       7.576   8.650  17.365  0.00  0.00    +0.000 N 
ATOM     34  C   UNL     1       7.748   7.425  17.973  0.00  0.00    +0.000 C 
ATOM     35  O   UNL     1       8.536   7.216  18.888  0.00  0.00    +0.000 OA
ATOM     36  H   UNL     1       6.860   8.721  16.657  0.00  0.00    +0.000 HD
ENDBRANCH  26  34
ENDBRANCH  22  30
ENDBRANCH   1  23
TORSDOF 6
ENDMDL
MODEL 9
REMARK VINA RESULT:      -7.7      1.171      1.670
REMARK  Name = 
REMARK  8 active torsions:
REMARK  status: ('A' for Active; 'I' for Inactive)
REMARK    1  A    between atoms: C_1  and  N_2
REMARK    2  A    between atoms: C_3  and  C_5
REMARK    3  A    between atoms: C_9  and  N_10
REMARK    4  A    between atoms: C_11  and  C_13
REMARK    5  A    between atoms: N_18  and  C_19
REMARK    6  A    between atoms: N_22  and  C_23
REMARK    7  A    between atoms: C_23  and  C_24
REMARK    8  A    between atoms: C_29  and  C_30
REMARK                            x       y       z     vdW  Elec       q    Type
REMARK                         _______ _______ _______ _____ _____    ______ ____
ROOT
ATOM      1  C   UNL     1      -1.290  12.620  21.426  0.00  0.00    +0.000 C 
ATOM      2  C   UNL     1      -0.470  13.903  21.615  0.00  0.00    +0.000 C 
ATOM      3  C   UNL     1       0.931  13.507  21.214  0.00  0.00    +0.000 C 
ATOM      4  C   UNL     1       0.671  12.524  20.119  0.00  0.00    +0.000 C 
ATOM      5  O   UNL     1       1.452  12.314  19.209  0.00  0.00    +0.000 OA
ATOM      6  N   UNL     1      -0.534  11.892  20.405  0.00  0.00    +0.000 N 
ENDROOT
BRANCH   6   7
ATOM      7  C   UNL     1      -0.964  10.564  19.933  0.00  0.00    +0.000 C 
ATOM      8  C   UNL     1      -0.223   9.437  20.650  0.00  0.00    +0.000 C 
ATOM      9  C   UNL     1       1.144   9.142  20.053  0.00  0.00    +0.000 C 
ATOM     10  N   UNL     1       1.117   8.885  18.603  0.00  0.00    +0.000 NA
ATOM     11  C   UNL     1       0.429   9.951  17.854  0.00  0.00    +0.000 C 
ATOM     12  C   UNL     1      -0.936  10.342  18.418  0.00  0.00    +0.000 C 
BRANCH  10  13
ATOM     13  C   UNL     1       2.525   8.785  18.159  0.00  0.00    +0.000 C 
BRANCH  13  14
ATOM     14  C   UNL     1       2.988   7.385  17.824  0.00  0.00    +0.000 A 
ATOM     15  C   UNL     1       4.288   7.159  17.361  0.00  0.00    +0.000 A 
ATOM     16  C   UNL     1       4.737   5.857  17.145  0.00  0.00    +0.000 A 
ATOM     17  C   UNL     1       3.897   4.769  17.403  0.00  0.00    +0.000 A 
ATOM     18 CL   UNL     1       4.553   3.189  17.167  0.00  0.00    +0.000 Cl
ATOM     19  C   UNL     1       2.584   4.974  17.852  0.00  0.00    +0.000 A 
ATOM     20  C   UNL     1       1.638   3.869  18.225  0.00  0.00    +0.000 C 
ATOM     21  C   UNL     1       2.138   6.293  18.038  0.00  0.00    +0.000 A 
ENDBRANCH  13  14
ENDBRANCH  10  13
ENDBRANCH   6   7
BRANCH   1  23
ATOM     22  N   UNL     1      -2.818  12.108  23.377  0.00  0.00    +0.000 N 
ATOM     23  C   UNL     1      -1.573  11.968  22.803  0.00  0.00    +0.000 C 
ATOM     24  O   UNL     1      -0.710  11.365  23.443  0.00  0.00    +0.000 OA
ATOM     25  H   UNL     1      -2.856  11.802  24.336  0.00  0.00    +0.000 HD
BRANCH  22  30
ATOM     26  C   UNL     1      -5.297  13.131  20.960  0.00  0.00    +0.000 A 
ATOM     27  C   UNL     1      -6.157  13.927  21.699  0.00  0.00    +0.000 A 
ATOM     28  C   UNL     1      -5.908  14.061  23.060  0.00  0.00    +0.000 A 
ATOM     29  C   UNL     1      -4.814  13.406  23.629  0.00  0.00    +0.000 A 
ATOM     30  C   UNL     1      -3.975  12.663  22.808  0.00  0.00    +0.000 A 
ATOM     31  N   UNL     1      -4.217  12.499  21.492  0.00  0.00    +0.000 NA
BRANCH  26  34
ATOM     32  C   UNL     1      -4.903  11.601  17.514  0.00  0.00    +0.000 C 
ATOM     33  N   UNL     1      -4.840  11.898  18.920  0.00  0.00    +0.000 N 
ATOM     34  C   UNL     1      -5.499  12.972  19.480  0.00  0.00    +0.000 C 
ATOM     35  O   UNL     1      -6.195  13.756  18.848  0.00  0.00    +0.000 OA
ATOM     36  H   UNL     1      -4.336  11.285  19.545  0.00  0.00    +0.000 HD
ENDBRANCH  26  34
ENDBRANCH  22  30
ENDBRANCH   1  23
TORSDOF 6
ENDMDL
