MODEL 1
REMARK VINA RESULT:      -7.3      0.000      0.000
REMARK  Name = 
REMARK  9 active torsions:
REMARK  status: ('A' for Active; 'I' for Inactive)
REMARK    1  A    between atoms: C_1  and  C_2
REMARK    2  A    between atoms: C_2  and  N_3
REMARK    3  A    between atoms: N_3  and  C_4
REMARK    4  A    between atoms: C_4  and  C_5
REMARK    5  A    between atoms: N_7  and  C_8
REMARK    6  A    between atoms: C_14  and  C_15
REMARK    7  A    between atoms: C_16  and  C_18
REMARK    8  A    between atoms: C_20  and  N_21
REMARK    9  A    between atoms: C_26  and  N_27
REMARK                            x       y       z     vdW  Elec       q    Type
REMARK                         _______ _______ _______ _____ _____    ______ ____
ROOT
ATOM      1  N   UNL     1       0.767  11.931  19.369  0.00  0.00    +0.000 N 
ATOM      2  C   UNL     1      -0.343  12.730  18.970  0.00  0.00    +0.000 C 
ATOM      3  O   UNL     1      -0.214  13.946  18.819  0.00  0.00    +0.000 OA
ENDROOT
BRANCH   2   4
ATOM      4  C   UNL     1      -1.701  12.154  18.677  0.00  0.00    +0.000 A 
ATOM      5  C   UNL     1      -1.908  11.664  17.377  0.00  0.00    +0.000 A 
ATOM      6  C   UNL     1      -3.133  11.120  16.983  0.00  0.00    +0.000 A 
ATOM      7  C   UNL     1      -4.220  11.149  17.845  0.00  0.00    +0.000 A 
ATOM      8  C   UNL     1      -4.057  11.738  19.097  0.00  0.00    +0.000 A 
ATOM      9  C   UNL     1      -2.817  12.285  19.553  0.00  0.00    +0.000 A 
BRANCH   9  10
ATOM     10  N   UNL     1      -2.826  12.946  20.767  0.00  0.00    +0.000 N 
ATOM     11  C   UNL     1      -2.292  12.324  21.994  0.00  0.00    +0.000 C 
ATOM     12  C   UNL     1      -3.241  12.625  23.167  0.00  0.00    +0.000 C 
ATOM     13  O   UNL     1      -3.392  14.041  23.351  0.00  0.00    +0.000 OA
ATOM     14  C   UNL     1      -3.976  14.627  22.171  0.00  0.00    +0.000 C 
ATOM     15  C   UNL     1      -3.109  14.383  20.918  0.00  0.00    +0.000 C 
ENDBRANCH   9  10
BRANCH   6  16
ATOM     16  N   UNL     1      -3.251  10.510  15.656  0.00  0.00    +0.000 N 
ATOM     17  O   UNL     1      -3.054   9.287  15.572  0.00  0.00    +0.000 OA
ATOM     18  O   UNL     1      -3.568  11.241  14.708  0.00  0.00    +0.000 OA
ENDBRANCH   6  16
ENDBRANCH   2   4
BRANCH   1  20
ATOM     19  C   UNL     1       2.788  12.955  18.329  0.00  0.00    +0.000 C 
ATOM     20  C   UNL     1       2.012  12.678  19.610  0.00  0.00    +0.000 C 
ENDBRANCH   1  20
BRANCH   1  21
ATOM     21  C   UNL     1       0.766  10.462  19.591  0.00  0.00    +0.000 C 
BRANCH  21  22
ATOM     22  C   UNL     1       1.471   9.409  18.686  0.00  0.00    +0.000 C 
ATOM     23  O   UNL     1       1.507   9.474  17.462  0.00  0.00    +0.000 OA
ATOM     24  N   UNL     1       1.960   8.323  19.421  0.00  0.00    +0.000 N 
ATOM     25  H   UNL     1       1.612   8.209  20.366  0.00  0.00    +0.000 HD
BRANCH  24  26
ATOM     26  C   UNL     1       2.626   7.208  18.858  0.00  0.00    +0.000 A 
ATOM     27  C   UNL     1       3.454   7.358  17.738  0.00  0.00    +0.000 A 
ATOM     28  C   UNL     1       4.129   6.263  17.202  0.00  0.00    +0.000 A 
ATOM     29 CL   UNL     1       5.148   6.473  15.829  0.00  0.00    +0.000 Cl
ATOM     30  C   UNL     1       3.993   5.003  17.768  0.00  0.00    +0.000 A 
ATOM     31  C   UNL     1       3.175   4.839  18.885  0.00  0.00    +0.000 A 
ATOM     32  C   UNL     1       2.477   5.932  19.440  0.00  0.00    +0.000 A 
ATOM     33  C   UNL     1       1.580   5.672  20.619  0.00  0.00    +0.000 C 
ENDBRANCH  24  26
ENDBRANCH  21  22
ENDBRANCH   1  21
TORSDOF 7
ENDMDL
MODEL 2
REMARK VINA RESULT:      -7.3      0.456      1.107
REMARK  Name = 
REMARK  9 active torsions:
REMARK  status: ('A' for Active; 'I' for Inactive)
REMARK    1  A    between atoms: C_1  and  C_2
REMARK    2  A    between atoms: C_2  and  N_3
REMARK    3  A    between atoms: N_3  and  C_4
REMARK    4  A    between atoms: C_4  and  C_5
REMARK    5  A    between atoms: N_7  and  C_8
REMARK    6  A    between atoms: C_14  and  C_15
REMARK    7  A    between atoms: C_16  and  C_18
REMARK    8  A    between atoms: C_20  and  N_21
REMARK    9  A    between atoms: C_26  and  N_27
REMARK                            x       y       z     vdW  Elec       q    Type
REMARK                         _______ _______ _______ _____ _____    ______ ____
ROOT
ATOM      1  N   UNL     1       0.712  11.980  19.258  0.00  0.00    +0.000 N 
ATOM      2  C   UNL     1      -0.413  12.748  18.841  0.00  0.00    +0.000 C 
ATOM      3  O   UNL     1      -0.311  13.964  18.675  0.00  0.00    +0.000 OA
ENDROOT
BRANCH   2   4
ATOM      4  C   UNL     1      -1.755  12.137  18.544  0.00  0.00    +0.000 A 
ATOM      5  C   UNL     1      -1.940  11.627  17.247  0.00  0.00    +0.000 A 
ATOM      6  C   UNL     1      -3.149  11.049  16.850  0.00  0.00    +0.000 A 
ATOM      7  C   UNL     1      -4.243  11.063  17.703  0.00  0.00    +0.000 A 
ATOM      8  C   UNL     1      -4.104  11.671  18.950  0.00  0.00    +0.000 A 
ATOM      9  C   UNL     1      -2.881  12.252  19.409  0.00  0.00    +0.000 A 
BRANCH   9  10
ATOM     10  N   UNL     1      -2.915  12.927  20.615  0.00  0.00    +0.000 N 
ATOM     11  C   UNL     1      -3.802  14.086  20.831  0.00  0.00    +0.000 C 
ATOM     12  C   UNL     1      -3.033  15.176  21.596  0.00  0.00    +0.000 C 
ATOM     13  O   UNL     1      -2.552  14.675  22.853  0.00  0.00    +0.000 OA
ATOM     14  C   UNL     1      -1.634  13.587  22.626  0.00  0.00    +0.000 C 
ATOM     15  C   UNL     1      -2.299  12.426  21.855  0.00  0.00    +0.000 C 
ENDBRANCH   9  10
BRANCH   6  16
ATOM     16  N   UNL     1      -3.241  10.421  15.531  0.00  0.00    +0.000 N 
ATOM     17  O   UNL     1      -3.721  11.100  14.609  0.00  0.00    +0.000 OA
ATOM     18  O   UNL     1      -2.808   9.268  15.406  0.00  0.00    +0.000 OA
ENDBRANCH   6  16
ENDBRANCH   2   4
BRANCH   1  20
ATOM     19  C   UNL     1       2.772  12.945  18.240  0.00  0.00    +0.000 C 
ATOM     20  C   UNL     1       1.936  12.758  19.500  0.00  0.00    +0.000 C 
ENDBRANCH   1  20
BRANCH   1  21
ATOM     21  C   UNL     1       0.742  10.514  19.498  0.00  0.00    +0.000 C 
BRANCH  21  22
ATOM     22  C   UNL     1       1.501   9.470  18.627  0.00  0.00    +0.000 C 
ATOM     23  O   UNL     1       1.635   9.562  17.411  0.00  0.00    +0.000 OA
ATOM     24  N   UNL     1       1.912   8.359  19.372  0.00  0.00    +0.000 N 
ATOM     25  H   UNL     1       1.488   8.230  20.284  0.00  0.00    +0.000 HD
BRANCH  24  26
ATOM     26  C   UNL     1       2.603   7.245  18.837  0.00  0.00    +0.000 A 
ATOM     27  C   UNL     1       3.429   7.386  17.715  0.00  0.00    +0.000 A 
ATOM     28  C   UNL     1       4.128   6.293  17.205  0.00  0.00    +0.000 A 
ATOM     29 CL   UNL     1       5.145   6.492  15.829  0.00  0.00    +0.000 Cl
ATOM     30  C   UNL     1       4.019   5.044  17.802  0.00  0.00    +0.000 A 
ATOM     31  C   UNL     1       3.204   4.890  18.922  0.00  0.00    +0.000 A 
ATOM     32  C   UNL     1       2.481   5.981  19.449  0.00  0.00    +0.000 A 
ATOM     33  C   UNL     1       1.588   5.730  20.634  0.00  0.00    +0.000 C 
ENDBRANCH  24  26
ENDBRANCH  21  22
ENDBRANCH   1  21
TORSDOF 7
ENDMDL
MODEL 3
REMARK VINA RESULT:      -7.2      2.340      4.357
REMARK  Name = 
REMARK  9 active torsions:
REMARK  status: ('A' for Active; 'I' for Inactive)
REMARK    1  A    between atoms: C_1  and  C_2
REMARK    2  A    between atoms: C_2  and  N_3
REMARK    3  A    between atoms: N_3  and  C_4
REMARK    4  A    between atoms: C_4  and  C_5
REMARK    5  A    between atoms: N_7  and  C_8
REMARK    6  A    between atoms: C_14  and  C_15
REMARK    7  A    between atoms: C_16  and  C_18
REMARK    8  A    between atoms: C_20  and  N_21
REMARK    9  A    between atoms: C_26  and  N_27
REMARK                            x       y       z     vdW  Elec       q    Type
REMARK                         _______ _______ _______ _____ _____    ______ ____
ROOT
ATOM      1  N   UNL     1       0.920   9.719  20.189  0.00  0.00    +0.000 N 
ATOM      2  C   UNL     1       0.862  11.038  20.725  0.00  0.00    +0.000 C 
ATOM      3  O   UNL     1       0.863  11.217  21.944  0.00  0.00    +0.000 OA
ENDROOT
BRANCH   2   4
ATOM      4  C   UNL     1       0.837  12.270  19.863  0.00  0.00    +0.000 A 
ATOM      5  C   UNL     1       2.024  13.018  19.802  0.00  0.00    +0.000 A 
ATOM      6  C   UNL     1       2.116  14.190  19.046  0.00  0.00    +0.000 A 
ATOM      7  C   UNL     1       0.993  14.705  18.416  0.00  0.00    +0.000 A 
ATOM      8  C   UNL     1      -0.219  14.032  18.566  0.00  0.00    +0.000 A 
ATOM      9  C   UNL     1      -0.356  12.817  19.308  0.00  0.00    +0.000 A 
BRANCH   9  10
ATOM     10  N   UNL     1      -1.635  12.321  19.476  0.00  0.00    +0.000 N 
ATOM     11  C   UNL     1      -2.184  11.275  18.593  0.00  0.00    +0.000 C 
ATOM     12  C   UNL     1      -3.641  11.622  18.242  0.00  0.00    +0.000 C 
ATOM     13  O   UNL     1      -4.438  11.741  19.431  0.00  0.00    +0.000 OA
ATOM     14  C   UNL     1      -3.932  12.810  20.254  0.00  0.00    +0.000 C 
ATOM     15  C   UNL     1      -2.464  12.572  20.667  0.00  0.00    +0.000 C 
ENDBRANCH   9  10
BRANCH   6  16
ATOM     16  N   UNL     1       3.414  14.858  18.919  0.00  0.00    +0.000 N 
ATOM     17  O   UNL     1       3.496  16.026  19.329  0.00  0.00    +0.000 OA
ATOM     18  O   UNL     1       4.354  14.209  18.440  0.00  0.00    +0.000 OA
ENDBRANCH   6  16
ENDBRANCH   2   4
BRANCH   1  20
ATOM     19  C   UNL     1      -0.461   8.240  21.644  0.00  0.00    +0.000 C 
ATOM     20  C   UNL     1       0.937   8.644  21.193  0.00  0.00    +0.000 C 
ENDBRANCH   1  20
BRANCH   1  21
ATOM     21  C   UNL     1       0.926   9.348  18.751  0.00  0.00    +0.000 C 
BRANCH  21  22
ATOM     22  C   UNL     1       2.087   8.623  18.008  0.00  0.00    +0.000 C 
ATOM     23  O   UNL     1       2.661   9.081  17.025  0.00  0.00    +0.000 OA
ATOM     24  N   UNL     1       2.323   7.342  18.518  0.00  0.00    +0.000 N 
ATOM     25  H   UNL     1       1.605   6.939  19.109  0.00  0.00    +0.000 HD
BRANCH  24  26
ATOM     26  C   UNL     1       3.303   6.448  18.023  0.00  0.00    +0.000 A 
ATOM     27  C   UNL     1       4.628   6.865  17.845  0.00  0.00    +0.000 A 
ATOM     28  C   UNL     1       5.597   5.977  17.381  0.00  0.00    +0.000 A 
ATOM     29 CL   UNL     1       7.222   6.510  17.177  0.00  0.00    +0.000 Cl
ATOM     30  C   UNL     1       5.265   4.661  17.086  0.00  0.00    +0.000 A 
ATOM     31  C   UNL     1       3.951   4.230  17.263  0.00  0.00    +0.000 A 
ATOM     32  C   UNL     1       2.954   5.115  17.724  0.00  0.00    +0.000 A 
ATOM     33  C   UNL     1       1.548   4.592  17.849  0.00  0.00    +0.000 C 
ENDBRANCH  24  26
ENDBRANCH  21  22
ENDBRANCH   1  21
TORSDOF 7
ENDMDL
MODEL 4
REMARK VINA RESULT:      -7.2      3.764      9.292
REMARK  Name = 
REMARK  9 active torsions:
REMARK  status: ('A' for Active; 'I' for Inactive)
REMARK    1  A    between atoms: C_1  and  C_2
REMARK    2  A    between atoms: C_2  and  N_3
REMARK    3  A    between atoms: N_3  and  C_4
REMARK    4  A    between atoms: C_4  and  C_5
REMARK    5  A    between atoms: N_7  and  C_8
REMARK    6  A    between atoms: C_14  and  C_15
REMARK    7  A    between atoms: C_16  and  C_18
REMARK    8  A    between atoms: C_20  and  N_21
REMARK    9  A    between atoms: C_26  and  N_27
REMARK                            x       y       z     vdW  Elec       q    Type
REMARK                         _______ _______ _______ _____ _____    ______ ____
ROOT
ATOM      1  N   UNL     1       2.869   7.000  19.141  0.00  0.00    +0.000 N 
ATOM      2  C   UNL     1       3.690   5.843  19.264  0.00  0.00    +0.000 C 
ATOM      3  O   UNL     1       3.853   5.308  20.362  0.00  0.00    +0.000 OA
ENDROOT
BRANCH   2   4
ATOM      4  C   UNL     1       4.364   5.190  18.089  0.00  0.00    +0.000 A 
ATOM      5  C   UNL     1       5.434   5.891  17.509  0.00  0.00    +0.000 A 
ATOM      6  C   UNL     1       6.127   5.391  16.403  0.00  0.00    +0.000 A 
ATOM      7  C   UNL     1       5.701   4.228  15.779  0.00  0.00    +0.000 A 
ATOM      8  C   UNL     1       4.569   3.585  16.277  0.00  0.00    +0.000 A 
ATOM      9  C   UNL     1       3.843   4.045  17.420  0.00  0.00    +0.000 A 
BRANCH   9  10
ATOM     10  N   UNL     1       2.671   3.382  17.733  0.00  0.00    +0.000 N 
ATOM     11  C   UNL     1       1.366   4.072  17.737  0.00  0.00    +0.000 C 
ATOM     12  C   UNL     1       0.559   3.618  18.965  0.00  0.00    +0.000 C 
ATOM     13  O   UNL     1       0.370   2.194  18.954  0.00  0.00    +0.000 OA
ATOM     14  C   UNL     1       1.649   1.532  19.018  0.00  0.00    +0.000 C 
ATOM     15  C   UNL     1       2.556   1.917  17.830  0.00  0.00    +0.000 C 
ENDBRANCH   9  10
BRANCH   6  16
ATOM     16  N   UNL     1       7.312   6.104  15.921  0.00  0.00    +0.000 N 
ATOM     17  O   UNL     1       7.824   5.707  14.862  0.00  0.00    +0.000 OA
ATOM     18  O   UNL     1       7.712   7.074  16.578  0.00  0.00    +0.000 OA
ENDBRANCH   6  16
ENDBRANCH   2   4
BRANCH   1  20
ATOM     19  C   UNL     1       1.073   6.698  20.843  0.00  0.00    +0.000 C 
ATOM     20  C   UNL     1       2.298   7.491  20.405  0.00  0.00    +0.000 C 
ENDBRANCH   1  20
BRANCH   1  21
ATOM     21  C   UNL     1       2.580   7.751  17.892  0.00  0.00    +0.000 C 
BRANCH  21  22
ATOM     22  C   UNL     1       1.736   9.056  17.794  0.00  0.00    +0.000 C 
ATOM     23  O   UNL     1       2.208  10.157  17.529  0.00  0.00    +0.000 OA
ATOM     24  N   UNL     1       0.400   8.850  18.155  0.00  0.00    +0.000 N 
ATOM     25  H   UNL     1       0.181   7.994  18.652  0.00  0.00    +0.000 HD
BRANCH  24  26
ATOM     26  C   UNL     1      -0.590   9.862  18.180  0.00  0.00    +0.000 A 
ATOM     27  C   UNL     1      -1.482  10.019  17.111  0.00  0.00    +0.000 A 
ATOM     28  C   UNL     1      -2.472  10.999  17.149  0.00  0.00    +0.000 A 
ATOM     29 CL   UNL     1      -3.562  11.168  15.827  0.00  0.00    +0.000 Cl
ATOM     30  C   UNL     1      -2.592  11.839  18.248  0.00  0.00    +0.000 A 
ATOM     31  C   UNL     1      -1.714  11.692  19.321  0.00  0.00    +0.000 A 
ATOM     32  C   UNL     1      -0.700  10.712  19.300  0.00  0.00    +0.000 A 
ATOM     33  C   UNL     1       0.238  10.639  20.475  0.00  0.00    +0.000 C 
ENDBRANCH  24  26
ENDBRANCH  21  22
ENDBRANCH   1  21
TORSDOF 7
ENDMDL
MODEL 5
REMARK VINA RESULT:      -7.1      4.375      9.576
REMARK  Name = 
REMARK  9 active torsions:
REMARK  status: ('A' for Active; 'I' for Inactive)
REMARK    1  A    between atoms: C_1  and  C_2
REMARK    2  A    between atoms: C_2  and  N_3
REMARK    3  A    between atoms: N_3  and  C_4
REMARK    4  A    between atoms: C_4  and  C_5
REMARK    5  A    between atoms: N_7  and  C_8
REMARK    6  A    between atoms: C_14  and  C_15
REMARK    7  A    between atoms: C_16  and  C_18
REMARK    8  A    between atoms: C_20  and  N_21
REMARK    9  A    between atoms: C_26  and  N_27
REMARK                            x       y       z     vdW  Elec       q    Type
REMARK                         _______ _______ _______ _____ _____    ______ ____
ROOT
ATOM      1  N   UNL     1       2.489   7.705  18.865  0.00  0.00    +0.000 N 
ATOM      2  C   UNL     1       3.206   6.684  18.176  0.00  0.00    +0.000 C 
ATOM      3  O   UNL     1       3.692   6.902  17.066  0.00  0.00    +0.000 OA
ENDROOT
BRANCH   2   4
ATOM      4  C   UNL     1       3.446   5.318  18.760  0.00  0.00    +0.000 A 
ATOM      5  C   UNL     1       2.491   4.851  19.678  0.00  0.00    +0.000 A 
ATOM      6  C   UNL     1       2.615   3.604  20.297  0.00  0.00    +0.000 A 
ATOM      7  C   UNL     1       3.753   2.835  20.098  0.00  0.00    +0.000 A 
ATOM      8  C   UNL     1       4.761   3.342  19.279  0.00  0.00    +0.000 A 
ATOM      9  C   UNL     1       4.667   4.600  18.605  0.00  0.00    +0.000 A 
BRANCH   9  10
ATOM     10  N   UNL     1       5.787   5.036  17.922  0.00  0.00    +0.000 N 
ATOM     11  C   UNL     1       6.777   5.934  18.547  0.00  0.00    +0.000 C 
ATOM     12  C   UNL     1       7.195   7.011  17.531  0.00  0.00    +0.000 C 
ATOM     13  O   UNL     1       7.744   6.410  16.347  0.00  0.00    +0.000 OA
ATOM     14  C   UNL     1       6.746   5.588  15.710  0.00  0.00    +0.000 C 
ATOM     15  C   UNL     1       6.243   4.466  16.643  0.00  0.00    +0.000 C 
ENDBRANCH   9  10
BRANCH   6  16
ATOM     16  N   UNL     1       1.527   3.116  21.147  0.00  0.00    +0.000 N 
ATOM     17  O   UNL     1       1.811   2.804  22.314  0.00  0.00    +0.000 OA
ATOM     18  O   UNL     1       0.388   3.074  20.662  0.00  0.00    +0.000 OA
ENDBRANCH   6  16
ENDBRANCH   2   4
BRANCH   1  20
ATOM     19  C   UNL     1       0.985   9.142  17.493  0.00  0.00    +0.000 C 
ATOM     20  C   UNL     1       2.359   8.972  18.128  0.00  0.00    +0.000 C 
ENDBRANCH   1  20
BRANCH   1  21
ATOM     21  C   UNL     1       1.851   7.590  20.201  0.00  0.00    +0.000 C 
BRANCH  21  22
ATOM     22  C   UNL     1       1.471   8.782  21.128  0.00  0.00    +0.000 C 
ATOM     23  O   UNL     1       1.794   8.859  22.309  0.00  0.00    +0.000 OA
ATOM     24  N   UNL     1       0.626   9.698  20.493  0.00  0.00    +0.000 N 
ATOM     25  H   UNL     1       0.171   9.394  19.640  0.00  0.00    +0.000 HD
BRANCH  24  26
ATOM     26  C   UNL     1       0.105  10.866  21.101  0.00  0.00    +0.000 A 
ATOM     27  C   UNL     1      -0.985  10.791  21.978  0.00  0.00    +0.000 A 
ATOM     28  C   UNL     1      -1.480  11.938  22.595  0.00  0.00    +0.000 A 
ATOM     29 CL   UNL     1      -2.816  11.821  23.676  0.00  0.00    +0.000 Cl
ATOM     30  C   UNL     1      -0.903  13.177  22.351  0.00  0.00    +0.000 A 
ATOM     31  C   UNL     1       0.185  13.266  21.483  0.00  0.00    +0.000 A 
ATOM     32  C   UNL     1       0.697  12.119  20.842  0.00  0.00    +0.000 A 
ATOM     33  C   UNL     1       1.845  12.297  19.886  0.00  0.00    +0.000 C 
ENDBRANCH  24  26
ENDBRANCH  21  22
ENDBRANCH   1  21
TORSDOF 7
ENDMDL
MODEL 6
REMARK VINA RESULT:      -7.1      4.140      9.490
REMARK  Name = 
REMARK  9 active torsions:
REMARK  status: ('A' for Active; 'I' for Inactive)
REMARK    1  A    between atoms: C_1  and  C_2
REMARK    2  A    between atoms: C_2  and  N_3
REMARK    3  A    between atoms: N_3  and  C_4
REMARK    4  A    between atoms: C_4  and  C_5
REMARK    5  A    between atoms: N_7  and  C_8
REMARK    6  A    between atoms: C_14  and  C_15
REMARK    7  A    between atoms: C_16  and  C_18
REMARK    8  A    between atoms: C_20  and  N_21
REMARK    9  A    between atoms: C_26  and  N_27
REMARK                            x       y       z     vdW  Elec       q    Type
REMARK                         _______ _______ _______ _____ _____    ______ ____
ROOT
ATOM      1  N   UNL     1       2.581   7.667  18.914  0.00  0.00    +0.000 N 
ATOM      2  C   UNL     1       3.189   6.619  18.164  0.00  0.00    +0.000 C 
ATOM      3  O   UNL     1       3.570   6.817  17.009  0.00  0.00    +0.000 OA
ENDROOT
BRANCH   2   4
ATOM      4  C   UNL     1       3.438   5.248  18.730  0.00  0.00    +0.000 A 
ATOM      5  C   UNL     1       2.504   4.777  19.668  0.00  0.00    +0.000 A 
ATOM      6  C   UNL     1       2.638   3.524  20.272  0.00  0.00    +0.000 A 
ATOM      7  C   UNL     1       3.767   2.752  20.038  0.00  0.00    +0.000 A 
ATOM      8  C   UNL     1       4.756   3.262  19.198  0.00  0.00    +0.000 A 
ATOM      9  C   UNL     1       4.652   4.526  18.538  0.00  0.00    +0.000 A 
BRANCH   9  10
ATOM     10  N   UNL     1       5.756   4.963  17.831  0.00  0.00    +0.000 N 
ATOM     11  C   UNL     1       6.757   5.865  18.433  0.00  0.00    +0.000 C 
ATOM     12  C   UNL     1       7.151   6.941  17.407  0.00  0.00    +0.000 C 
ATOM     13  O   UNL     1       7.676   6.339  16.213  0.00  0.00    +0.000 OA
ATOM     14  C   UNL     1       6.668   5.513  15.598  0.00  0.00    +0.000 C 
ATOM     15  C   UNL     1       6.186   4.392  16.544  0.00  0.00    +0.000 C 
ENDBRANCH   9  10
BRANCH   6  16
ATOM     16  N   UNL     1       1.569   3.033  21.145  0.00  0.00    +0.000 N 
ATOM     17  O   UNL     1       1.846   2.855  22.341  0.00  0.00    +0.000 OA
ATOM     18  O   UNL     1       0.449   2.857  20.645  0.00  0.00    +0.000 OA
ENDBRANCH   6  16
ENDBRANCH   2   4
BRANCH   1  20
ATOM     19  C   UNL     1       1.042   9.087  17.562  0.00  0.00    +0.000 C 
ATOM     20  C   UNL     1       2.424   8.936  18.186  0.00  0.00    +0.000 C 
ENDBRANCH   1  20
BRANCH   1  21
ATOM     21  C   UNL     1       2.075   7.580  20.307  0.00  0.00    +0.000 C 
BRANCH  21  22
ATOM     22  C   UNL     1       0.774   8.247  20.842  0.00  0.00    +0.000 C 
ATOM     23  O   UNL     1      -0.287   7.651  20.995  0.00  0.00    +0.000 OA
ATOM     24  N   UNL     1       0.922   9.627  21.019  0.00  0.00    +0.000 N 
ATOM     25  H   UNL     1       1.719  10.068  20.575  0.00  0.00    +0.000 HD
BRANCH  24  26
ATOM     26  C   UNL     1      -0.103  10.493  21.473  0.00  0.00    +0.000 A 
ATOM     27  C   UNL     1      -0.713  11.401  20.598  0.00  0.00    +0.000 A 
ATOM     28  C   UNL     1      -1.738  12.235  21.041  0.00  0.00    +0.000 A 
ATOM     29 CL   UNL     1      -2.480  13.338  19.946  0.00  0.00    +0.000 Cl
ATOM     30  C   UNL     1      -2.174  12.180  22.358  0.00  0.00    +0.000 A 
ATOM     31  C   UNL     1      -1.578  11.278  23.239  0.00  0.00    +0.000 A 
ATOM     32  C   UNL     1      -0.534  10.431  22.814  0.00  0.00    +0.000 A 
ATOM     33  C   UNL     1       0.091   9.514  23.830  0.00  0.00    +0.000 C 
ENDBRANCH  24  26
ENDBRANCH  21  22
ENDBRANCH   1  21
TORSDOF 7
ENDMDL
MODEL 7
REMARK VINA RESULT:      -6.9      3.810      7.561
REMARK  Name = 
REMARK  9 active torsions:
REMARK  status: ('A' for Active; 'I' for Inactive)
REMARK    1  A    between atoms: C_1  and  C_2
REMARK    2  A    between atoms: C_2  and  N_3
REMARK    3  A    between atoms: N_3  and  C_4
REMARK    4  A    between atoms: C_4  and  C_5
REMARK    5  A    between atoms: N_7  and  C_8
REMARK    6  A    between atoms: C_14  and  C_15
REMARK    7  A    between atoms: C_16  and  C_18
REMARK    8  A    between atoms: C_20  and  N_21
REMARK    9  A    between atoms: C_26  and  N_27
REMARK                            x       y       z     vdW  Elec       q    Type
REMARK                         _______ _______ _______ _____ _____    ______ ____
ROOT
ATOM      1  N   UNL     1       0.206  10.747  19.607  0.00  0.00    +0.000 N 
ATOM      2  C   UNL     1       0.421  11.258  20.919  0.00  0.00    +0.000 C 
ATOM      3  O   UNL     1       1.277  10.758  21.651  0.00  0.00    +0.000 OA
ENDROOT
BRANCH   2   4
ATOM      4  C   UNL     1      -0.334  12.435  21.471  0.00  0.00    +0.000 A 
ATOM      5  C   UNL     1      -1.579  12.163  22.063  0.00  0.00    +0.000 A 
ATOM      6  C   UNL     1      -2.377  13.178  22.597  0.00  0.00    +0.000 A 
ATOM      7  C   UNL     1      -2.003  14.507  22.458  0.00  0.00    +0.000 A 
ATOM      8  C   UNL     1      -0.825  14.796  21.770  0.00  0.00    +0.000 A 
ATOM      9  C   UNL     1       0.036  13.790  21.229  0.00  0.00    +0.000 A 
BRANCH   9  10
ATOM     10  N   UNL     1       1.106  14.219  20.467  0.00  0.00    +0.000 N 
ATOM     11  C   UNL     1       1.005  14.373  19.003  0.00  0.00    +0.000 C 
ATOM     12  C   UNL     1       2.283  13.821  18.347  0.00  0.00    +0.000 C 
ATOM     13  O   UNL     1       3.446  14.504  18.841  0.00  0.00    +0.000 OA
ATOM     14  C   UNL     1       3.570  14.290  20.261  0.00  0.00    +0.000 C 
ATOM     15  C   UNL     1       2.335  14.803  21.031  0.00  0.00    +0.000 C 
ENDBRANCH   9  10
BRANCH   6  16
ATOM     16  N   UNL     1      -3.603  12.820  23.313  0.00  0.00    +0.000 N 
ATOM     17  O   UNL     1      -3.596  11.763  23.964  0.00  0.00    +0.000 OA
ATOM     18  O   UNL     1      -4.559  13.606  23.253  0.00  0.00    +0.000 OA
ENDBRANCH   6  16
ENDBRANCH   2   4
BRANCH   1  20
ATOM     19  C   UNL     1       1.892   9.840  18.011  0.00  0.00    +0.000 C 
ATOM     20  C   UNL     1       1.042   9.589  19.250  0.00  0.00    +0.000 C 
ENDBRANCH   1  20
BRANCH   1  21
ATOM     21  C   UNL     1      -0.783  11.242  18.616  0.00  0.00    +0.000 C 
BRANCH  21  22
ATOM     22  C   UNL     1      -2.302  10.899  18.603  0.00  0.00    +0.000 C 
ATOM     23  O   UNL     1      -2.751   9.795  18.312  0.00  0.00    +0.000 OA
ATOM     24  N   UNL     1      -3.100  12.022  18.850  0.00  0.00    +0.000 N 
ATOM     25  H   UNL     1      -2.659  12.930  18.767  0.00  0.00    +0.000 HD
BRANCH  24  26
ATOM     26  C   UNL     1      -4.515  12.011  18.877  0.00  0.00    +0.000 A 
ATOM     27  C   UNL     1      -5.210  12.147  20.086  0.00  0.00    +0.000 A 
ATOM     28  C   UNL     1      -6.603  12.161  20.107  0.00  0.00    +0.000 A 
ATOM     29 CL   UNL     1      -7.436  12.338  21.604  0.00  0.00    +0.000 Cl
ATOM     30  C   UNL     1      -7.329  12.040  18.930  0.00  0.00    +0.000 A 
ATOM     31  C   UNL     1      -6.651  11.907  17.718  0.00  0.00    +0.000 A 
ATOM     32  C   UNL     1      -5.241  11.883  17.675  0.00  0.00    +0.000 A 
ATOM     33  C   UNL     1      -4.579  11.694  16.337  0.00  0.00    +0.000 C 
ENDBRANCH  24  26
ENDBRANCH  21  22
ENDBRANCH   1  21
TORSDOF 7
ENDMDL
MODEL 8
REMARK VINA RESULT:      -6.9      1.635      2.342
REMARK  Name = 
REMARK  9 active torsions:
REMARK  status: ('A' for Active; 'I' for Inactive)
REMARK    1  A    between atoms: C_1  and  C_2
REMARK    2  A    between atoms: C_2  and  N_3
REMARK    3  A    between atoms: N_3  and  C_4
REMARK    4  A    between atoms: C_4  and  C_5
REMARK    5  A    between atoms: N_7  and  C_8
REMARK    6  A    between atoms: C_14  and  C_15
REMARK    7  A    between atoms: C_16  and  C_18
REMARK    8  A    between atoms: C_20  and  N_21
REMARK    9  A    between atoms: C_26  and  N_27
REMARK                            x       y       z     vdW  Elec       q    Type
REMARK                         _______ _______ _______ _____ _____    ______ ____
ROOT
ATOM      1  N   UNL     1       1.021  12.353  19.745  0.00  0.00    +0.000 N 
ATOM      2  C   UNL     1      -0.024  13.045  19.069  0.00  0.00    +0.000 C 
ATOM      3  O   UNL     1       0.188  14.143  18.551  0.00  0.00    +0.000 OA
ENDROOT
BRANCH   2   4
ATOM      4  C   UNL     1      -1.409  12.481  18.909  0.00  0.00    +0.000 A 
ATOM      5  C   UNL     1      -1.712  11.903  17.665  0.00  0.00    +0.000 A 
ATOM      6  C   UNL     1      -2.971  11.360  17.394  0.00  0.00    +0.000 A 
ATOM      7  C   UNL     1      -3.996  11.475  18.322  0.00  0.00    +0.000 A 
ATOM      8  C   UNL     1      -3.738  12.149  19.515  0.00  0.00    +0.000 A 
ATOM      9  C   UNL     1      -2.460  12.699  19.846  0.00  0.00    +0.000 A 
BRANCH   9  10
ATOM     10  N   UNL     1      -2.375  13.446  21.006  0.00  0.00    +0.000 N 
ATOM     11  C   UNL     1      -3.049  14.752  21.140  0.00  0.00    +0.000 C 
ATOM     12  C   UNL     1      -2.101  15.741  21.840  0.00  0.00    +0.000 C 
ATOM     13  O   UNL     1      -1.710  15.246  23.131  0.00  0.00    +0.000 OA
ATOM     14  C   UNL     1      -0.994  14.004  22.981  0.00  0.00    +0.000 C 
ATOM     15  C   UNL     1      -1.850  12.928  22.280  0.00  0.00    +0.000 C 
ENDBRANCH   9  10
BRANCH   6  16
ATOM     16  N   UNL     1      -3.189  10.659  16.127  0.00  0.00    +0.000 N 
ATOM     17  O   UNL     1      -3.485  11.348  15.138  0.00  0.00    +0.000 OA
ATOM     18  O   UNL     1      -3.035   9.430  16.111  0.00  0.00    +0.000 OA
ENDBRANCH   6  16
ENDBRANCH   2   4
BRANCH   1  20
ATOM     19  C   UNL     1       2.483  13.863  21.085  0.00  0.00    +0.000 C 
ATOM     20  C   UNL     1       2.305  13.069  19.797  0.00  0.00    +0.000 C 
ENDBRANCH   1  20
BRANCH   1  21
ATOM     21  C   UNL     1       0.918  11.031  20.414  0.00  0.00    +0.000 C 
BRANCH  21  22
ATOM     22  C   UNL     1       0.891   9.651  19.692  0.00  0.00    +0.000 C 
ATOM     23  O   UNL     1       0.072   9.346  18.831  0.00  0.00    +0.000 OA
ATOM     24  N   UNL     1       1.832   8.760  20.218  0.00  0.00    +0.000 N 
ATOM     25  H   UNL     1       2.238   8.992  21.118  0.00  0.00    +0.000 HD
BRANCH  24  26
ATOM     26  C   UNL     1       2.016   7.429  19.771  0.00  0.00    +0.000 A 
ATOM     27  C   UNL     1       1.622   6.345  20.567  0.00  0.00    +0.000 A 
ATOM     28  C   UNL     1       1.781   5.037  20.114  0.00  0.00    +0.000 A 
ATOM     29 CL   UNL     1       1.282   3.720  21.106  0.00  0.00    +0.000 Cl
ATOM     30  C   UNL     1       2.333   4.783  18.866  0.00  0.00    +0.000 A 
ATOM     31  C   UNL     1       2.726   5.852  18.061  0.00  0.00    +0.000 A 
ATOM     32  C   UNL     1       2.582   7.184  18.503  0.00  0.00    +0.000 A 
ATOM     33  C   UNL     1       3.067   8.285  17.600  0.00  0.00    +0.000 C 
ENDBRANCH  24  26
ENDBRANCH  21  22
ENDBRANCH   1  21
TORSDOF 7
ENDMDL
MODEL 9
REMARK VINA RESULT:      -6.9      2.145      4.651
REMARK  Name = 
REMARK  9 active torsions:
REMARK  status: ('A' for Active; 'I' for Inactive)
REMARK    1  A    between atoms: C_1  and  C_2
REMARK    2  A    between atoms: C_2  and  N_3
REMARK    3  A    between atoms: N_3  and  C_4
REMARK    4  A    between atoms: C_4  and  C_5
REMARK    5  A    between atoms: N_7  and  C_8
REMARK    6  A    between atoms: C_14  and  C_15
REMARK    7  A    between atoms: C_16  and  C_18
REMARK    8  A    between atoms: C_20  and  N_21
REMARK    9  A    between atoms: C_26  and  N_27
REMARK                            x       y       z     vdW  Elec       q    Type
REMARK                         _______ _______ _______ _____ _____    ______ ____
ROOT
ATOM      1  N   UNL     1       0.176   9.863  21.359  0.00  0.00    +0.000 N 
ATOM      2  C   UNL     1      -0.636  11.000  21.081  0.00  0.00    +0.000 C 
ATOM      3  O   UNL     1      -1.715  11.152  21.657  0.00  0.00    +0.000 OA
ENDROOT
BRANCH   2   4
ATOM      4  C   UNL     1      -0.226  12.084  20.123  0.00  0.00    +0.000 A 
ATOM      5  C   UNL     1       0.619  13.085  20.631  0.00  0.00    +0.000 A 
ATOM      6  C   UNL     1       1.055  14.151  19.839  0.00  0.00    +0.000 A 
ATOM      7  C   UNL     1       0.572  14.305  18.548  0.00  0.00    +0.000 A 
ATOM      8  C   UNL     1      -0.357  13.380  18.072  0.00  0.00    +0.000 A 
ATOM      9  C   UNL     1      -0.813  12.261  18.836  0.00  0.00    +0.000 A 
BRANCH   9  10
ATOM     10  N   UNL     1      -1.824  11.492  18.290  0.00  0.00    +0.000 N 
ATOM     11  C   UNL     1      -1.545  10.215  17.606  0.00  0.00    +0.000 C 
ATOM     12  C   UNL     1      -2.403  10.126  16.332  0.00  0.00    +0.000 C 
ATOM     13  O   UNL     1      -3.800  10.227  16.650  0.00  0.00    +0.000 OA
ATOM     14  C   UNL     1      -4.071  11.506  17.257  0.00  0.00    +0.000 C 
ATOM     15  C   UNL     1      -3.256  11.713  18.552  0.00  0.00    +0.000 C 
ENDBRANCH   9  10
BRANCH   6  16
ATOM     16  N   UNL     1       2.033  15.094  20.385  0.00  0.00    +0.000 N 
ATOM     17  O   UNL     1       2.912  15.513  19.615  0.00  0.00    +0.000 OA
ATOM     18  O   UNL     1       1.908  15.438  21.568  0.00  0.00    +0.000 OA
ENDBRANCH   6  16
ENDBRANCH   2   4
BRANCH   1  20
ATOM     19  C   UNL     1      -0.042   9.255  23.766  0.00  0.00    +0.000 C 
ATOM     20  C   UNL     1      -0.399   8.914  22.325  0.00  0.00    +0.000 C 
ENDBRANCH   1  20
BRANCH   1  21
ATOM     21  C   UNL     1       1.492   9.546  20.748  0.00  0.00    +0.000 C 
BRANCH  21  22
ATOM     22  C   UNL     1       1.731   8.540  19.584  0.00  0.00    +0.000 C 
ATOM     23  O   UNL     1       1.302   8.698  18.445  0.00  0.00    +0.000 OA
ATOM     24  N   UNL     1       2.392   7.384  20.011  0.00  0.00    +0.000 N 
ATOM     25  H   UNL     1       2.424   7.211  21.009  0.00  0.00    +0.000 HD
BRANCH  24  26
ATOM     26  C   UNL     1       2.722   6.291  19.173  0.00  0.00    +0.000 A 
ATOM     27  C   UNL     1       3.656   6.437  18.139  0.00  0.00    +0.000 A 
ATOM     28  C   UNL     1       3.997   5.354  17.332  0.00  0.00    +0.000 A 
ATOM     29 CL   UNL     1       5.154   5.554  16.072  0.00  0.00    +0.000 Cl
ATOM     30  C   UNL     1       3.417   4.109  17.537  0.00  0.00    +0.000 A 
ATOM     31  C   UNL     1       2.489   3.948  18.565  0.00  0.00    +0.000 A 
ATOM     32  C   UNL     1       2.123   5.033  19.389  0.00  0.00    +0.000 A 
ATOM     33  C   UNL     1       1.083   4.795  20.450  0.00  0.00    +0.000 C 
ENDBRANCH  24  26
ENDBRANCH  21  22
ENDBRANCH   1  21
TORSDOF 7
ENDMDL
