MODEL 1
REMARK VINA RESULT:      -4.8      0.000      0.000
REMARK  Name = 
REMARK  7 active torsions:
REMARK  status: ('A' for Active; 'I' for Inactive)
REMARK    1  A    between atoms: C_1  and  C_2
REMARK    2  A    between atoms: C_2  and  C_3
REMARK    3  A    between atoms: C_2  and  N_8
REMARK    4  A    between atoms: C_3  and  C_4
REMARK    5  A    between atoms: C_4  and  C_5
REMARK    6  A    between atoms: C_5  and  O_7
REMARK    7  A    between atoms: N_8  and  O_9
REMARK                            x       y       z     vdW  Elec       q    Type
REMARK                         _______ _______ _______ _____ _____    ______ ____
ROOT
ATOM      1  C   UNL     1       2.803   2.984  17.405  0.00  0.00    +0.000 C 
ATOM      2  C   UNL     1       4.137   3.714  17.579  0.00  0.00    +0.000 C 
ENDROOT
BRANCH   2   3
ATOM      3  N   UNL     1       4.057   4.736  18.632  0.00  0.00    +0.000 N 
ATOM      4  C   UNL     1       5.125   5.212  19.356  0.00  0.00    +0.000 C 
ATOM      5  O   UNL     1       6.238   4.704  19.425  0.00  0.00    +0.000 OA
BRANCH   3   6
ATOM      6  O   UNL     1       3.033   5.682  18.409  0.00  0.00    +0.000 OA
ATOM      7  H   UNL     1       2.239   5.179  18.673  0.00  0.00    +0.000 HD
ENDBRANCH   3   6
ENDBRANCH   2   3
BRANCH   2   8
ATOM      8  C   UNL     1       4.665   4.322  16.263  0.00  0.00    +0.000 C 
BRANCH   8   9
ATOM      9  C   UNL     1       6.001   3.739  15.791  0.00  0.00    +0.000 C 
BRANCH   9  10
ATOM     10  C   UNL     1       7.164   4.644  16.119  0.00  0.00    +0.000 C 
ATOM     11  O   UNL     1       7.384   5.712  15.571  0.00  0.00    +0.000 OA
BRANCH  10  12
ATOM     12  O   UNL     1       7.963   4.152  17.089  0.00  0.00    +0.000 OA
ATOM     13  H   UNL     1       8.801   4.637  17.214  0.00  0.00    +0.000 HD
ENDBRANCH  10  12
ENDBRANCH   9  10
ENDBRANCH   8   9
ENDBRANCH   2   8
TORSDOF 6
ENDMDL
MODEL 2
REMARK VINA RESULT:      -4.6      1.946      3.648
REMARK  Name = 
REMARK  7 active torsions:
REMARK  status: ('A' for Active; 'I' for Inactive)
REMARK    1  A    between atoms: C_1  and  C_2
REMARK    2  A    between atoms: C_2  and  C_3
REMARK    3  A    between atoms: C_2  and  N_8
REMARK    4  A    between atoms: C_3  and  C_4
REMARK    5  A    between atoms: C_4  and  C_5
REMARK    6  A    between atoms: C_5  and  O_7
REMARK    7  A    between atoms: N_8  and  O_9
REMARK                            x       y       z     vdW  Elec       q    Type
REMARK                         _______ _______ _______ _____ _____    ______ ____
ROOT
ATOM      1  C   UNL     1       4.933   6.613  16.093  0.00  0.00    +0.000 C 
ATOM      2  C   UNL     1       5.488   5.778  17.249  0.00  0.00    +0.000 C 
ENDROOT
BRANCH   2   3
ATOM      3  N   UNL     1       6.826   6.235  17.649  0.00  0.00    +0.000 N 
ATOM      4  C   UNL     1       7.464   5.890  18.816  0.00  0.00    +0.000 C 
ATOM      5  O   UNL     1       6.947   5.373  19.800  0.00  0.00    +0.000 OA
BRANCH   3   6
ATOM      6  O   UNL     1       7.689   6.448  16.551  0.00  0.00    +0.000 OA
ATOM      7  H   UNL     1       7.404   7.331  16.246  0.00  0.00    +0.000 HD
ENDBRANCH   3   6
ENDBRANCH   2   3
BRANCH   2   8
ATOM      8  C   UNL     1       5.490   4.264  16.950  0.00  0.00    +0.000 C 
BRANCH   8   9
ATOM      9  C   UNL     1       4.242   3.523  17.438  0.00  0.00    +0.000 C 
BRANCH   9  10
ATOM     10  C   UNL     1       4.210   3.393  18.942  0.00  0.00    +0.000 C 
ATOM     11  O   UNL     1       3.269   3.725  19.644  0.00  0.00    +0.000 OA
BRANCH  10  12
ATOM     12  O   UNL     1       5.346   2.873  19.455  0.00  0.00    +0.000 OA
ATOM     13  H   UNL     1       5.211   2.222  20.169  0.00  0.00    +0.000 HD
ENDBRANCH  10  12
ENDBRANCH   9  10
ENDBRANCH   8   9
ENDBRANCH   2   8
TORSDOF 6
ENDMDL
MODEL 3
REMARK VINA RESULT:      -4.6      1.976      2.160
REMARK  Name = 
REMARK  7 active torsions:
REMARK  status: ('A' for Active; 'I' for Inactive)
REMARK    1  A    between atoms: C_1  and  C_2
REMARK    2  A    between atoms: C_2  and  C_3
REMARK    3  A    between atoms: C_2  and  N_8
REMARK    4  A    between atoms: C_3  and  C_4
REMARK    5  A    between atoms: C_4  and  C_5
REMARK    6  A    between atoms: C_5  and  O_7
REMARK    7  A    between atoms: N_8  and  O_9
REMARK                            x       y       z     vdW  Elec       q    Type
REMARK                         _______ _______ _______ _____ _____    ______ ____
ROOT
ATOM      1  C   UNL     1       2.931   4.874  18.172  0.00  0.00    +0.000 C 
ATOM      2  C   UNL     1       3.254   3.637  17.331  0.00  0.00    +0.000 C 
ENDROOT
BRANCH   2   3
ATOM      3  N   UNL     1       3.273   2.418  18.152  0.00  0.00    +0.000 N 
ATOM      4  C   UNL     1       4.002   2.252  19.306  0.00  0.00    +0.000 C 
ATOM      5  O   UNL     1       4.921   2.966  19.692  0.00  0.00    +0.000 OA
BRANCH   3   6
ATOM      6  O   UNL     1       2.049   1.714  18.128  0.00  0.00    +0.000 OA
ATOM      7  H   UNL     1       1.713   1.872  19.031  0.00  0.00    +0.000 HD
ENDBRANCH   3   6
ENDBRANCH   2   3
BRANCH   2   8
ATOM      8  C   UNL     1       4.564   3.781  16.530  0.00  0.00    +0.000 C 
BRANCH   8   9
ATOM      9  C   UNL     1       5.400   5.009  16.903  0.00  0.00    +0.000 C 
BRANCH   9  10
ATOM     10  C   UNL     1       6.856   4.664  17.111  0.00  0.00    +0.000 C 
ATOM     11  O   UNL     1       7.719   4.769  16.255  0.00  0.00    +0.000 OA
BRANCH  10  12
ATOM     12  O   UNL     1       7.122   4.210  18.354  0.00  0.00    +0.000 OA
ATOM     13  H   UNL     1       6.894   3.273  18.505  0.00  0.00    +0.000 HD
ENDBRANCH  10  12
ENDBRANCH   9  10
ENDBRANCH   8   9
ENDBRANCH   2   8
TORSDOF 6
ENDMDL
MODEL 4
REMARK VINA RESULT:      -4.5      1.894      3.839
REMARK  Name = 
REMARK  7 active torsions:
REMARK  status: ('A' for Active; 'I' for Inactive)
REMARK    1  A    between atoms: C_1  and  C_2
REMARK    2  A    between atoms: C_2  and  C_3
REMARK    3  A    between atoms: C_2  and  N_8
REMARK    4  A    between atoms: C_3  and  C_4
REMARK    5  A    between atoms: C_4  and  C_5
REMARK    6  A    between atoms: C_5  and  O_7
REMARK    7  A    between atoms: N_8  and  O_9
REMARK                            x       y       z     vdW  Elec       q    Type
REMARK                         _______ _______ _______ _____ _____    ______ ____
ROOT
ATOM      1  C   UNL     1       6.952   4.668  14.645  0.00  0.00    +0.000 C 
ATOM      2  C   UNL     1       6.341   4.991  16.010  0.00  0.00    +0.000 C 
ENDROOT
BRANCH   2   3
ATOM      3  N   UNL     1       7.380   5.249  17.016  0.00  0.00    +0.000 N 
ATOM      4  C   UNL     1       7.504   6.408  17.746  0.00  0.00    +0.000 C 
ATOM      5  O   UNL     1       6.952   7.476  17.510  0.00  0.00    +0.000 OA
BRANCH   3   6
ATOM      6  O   UNL     1       7.796   4.083  17.695  0.00  0.00    +0.000 OA
ATOM      7  H   UNL     1       7.066   3.466  17.492  0.00  0.00    +0.000 HD
ENDBRANCH   3   6
ENDBRANCH   2   3
BRANCH   2   8
ATOM      8  C   UNL     1       5.359   3.907  16.500  0.00  0.00    +0.000 C 
BRANCH   8   9
ATOM      9  C   UNL     1       4.205   4.440  17.354  0.00  0.00    +0.000 C 
BRANCH   9  10
ATOM     10  C   UNL     1       4.420   4.179  18.826  0.00  0.00    +0.000 C 
ATOM     11  O   UNL     1       3.784   4.709  19.722  0.00  0.00    +0.000 OA
BRANCH  10  12
ATOM     12  O   UNL     1       5.410   3.293  19.070  0.00  0.00    +0.000 OA
ATOM     13  H   UNL     1       5.441   2.957  19.985  0.00  0.00    +0.000 HD
ENDBRANCH  10  12
ENDBRANCH   9  10
ENDBRANCH   8   9
ENDBRANCH   2   8
TORSDOF 6
ENDMDL
MODEL 5
REMARK VINA RESULT:      -4.5      1.871      2.418
REMARK  Name = 
REMARK  7 active torsions:
REMARK  status: ('A' for Active; 'I' for Inactive)
REMARK    1  A    between atoms: C_1  and  C_2
REMARK    2  A    between atoms: C_2  and  C_3
REMARK    3  A    between atoms: C_2  and  N_8
REMARK    4  A    between atoms: C_3  and  C_4
REMARK    5  A    between atoms: C_4  and  C_5
REMARK    6  A    between atoms: C_5  and  O_7
REMARK    7  A    between atoms: N_8  and  O_9
REMARK                            x       y       z     vdW  Elec       q    Type
REMARK                         _______ _______ _______ _____ _____    ______ ____
ROOT
ATOM      1  C   UNL     1       2.648   4.950  17.960  0.00  0.00    +0.000 C 
ATOM      2  C   UNL     1       3.443   3.643  17.928  0.00  0.00    +0.000 C 
ENDROOT
BRANCH   2   3
ATOM      3  N   UNL     1       3.863   3.236  19.275  0.00  0.00    +0.000 N 
ATOM      4  C   UNL     1       3.076   2.567  20.182  0.00  0.00    +0.000 C 
ATOM      5  O   UNL     1       1.859   2.430  20.124  0.00  0.00    +0.000 OA
BRANCH   3   6
ATOM      6  O   UNL     1       5.239   2.927  19.356  0.00  0.00    +0.000 OA
ATOM      7  H   UNL     1       5.566   3.257  18.497  0.00  0.00    +0.000 HD
ENDBRANCH   3   6
ENDBRANCH   2   3
BRANCH   2   8
ATOM      8  C   UNL     1       4.649   3.698  16.968  0.00  0.00    +0.000 C 
BRANCH   8   9
ATOM      9  C   UNL     1       5.221   5.102  16.754  0.00  0.00    +0.000 C 
BRANCH   9  10
ATOM     10  C   UNL     1       6.727   5.126  16.868  0.00  0.00    +0.000 C 
ATOM     11  O   UNL     1       7.459   5.848  16.211  0.00  0.00    +0.000 OA
BRANCH  10  12
ATOM     12  O   UNL     1       7.205   4.251  17.779  0.00  0.00    +0.000 OA
ATOM     13  H   UNL     1       6.716   3.408  17.830  0.00  0.00    +0.000 HD
ENDBRANCH  10  12
ENDBRANCH   9  10
ENDBRANCH   8   9
ENDBRANCH   2   8
TORSDOF 6
ENDMDL
MODEL 6
REMARK VINA RESULT:      -4.5      2.084      3.148
REMARK  Name = 
REMARK  7 active torsions:
REMARK  status: ('A' for Active; 'I' for Inactive)
REMARK    1  A    between atoms: C_1  and  C_2
REMARK    2  A    between atoms: C_2  and  C_3
REMARK    3  A    between atoms: C_2  and  N_8
REMARK    4  A    between atoms: C_3  and  C_4
REMARK    5  A    between atoms: C_4  and  C_5
REMARK    6  A    between atoms: C_5  and  O_7
REMARK    7  A    between atoms: N_8  and  O_9
REMARK                            x       y       z     vdW  Elec       q    Type
REMARK                         _______ _______ _______ _____ _____    ______ ____
ROOT
ATOM      1  C   UNL     1       6.062   4.106  14.457  0.00  0.00    +0.000 C 
ATOM      2  C   UNL     1       6.048   4.470  15.943  0.00  0.00    +0.000 C 
ENDROOT
BRANCH   2   3
ATOM      3  N   UNL     1       5.121   5.577  16.216  0.00  0.00    +0.000 N 
ATOM      4  C   UNL     1       4.178   5.591  17.216  0.00  0.00    +0.000 C 
ATOM      5  O   UNL     1       3.789   4.623  17.860  0.00  0.00    +0.000 OA
BRANCH   3   6
ATOM      6  O   UNL     1       5.664   6.843  15.906  0.00  0.00    +0.000 OA
ATOM      7  H   UNL     1       4.857   7.370  15.750  0.00  0.00    +0.000 HD
ENDBRANCH   3   6
ENDBRANCH   2   3
BRANCH   2   8
ATOM      8  C   UNL     1       7.454   4.781  16.498  0.00  0.00    +0.000 C 
BRANCH   8   9
ATOM      9  C   UNL     1       7.610   4.523  17.999  0.00  0.00    +0.000 C 
BRANCH   9  10
ATOM     10  C   UNL     1       7.712   5.807  18.788  0.00  0.00    +0.000 C 
ATOM     11  O   UNL     1       7.730   6.922  18.294  0.00  0.00    +0.000 OA
BRANCH  10  12
ATOM     12  O   UNL     1       7.794   5.607  20.121  0.00  0.00    +0.000 OA
ATOM     13  H   UNL     1       8.312   4.824  20.385  0.00  0.00    +0.000 HD
ENDBRANCH  10  12
ENDBRANCH   9  10
ENDBRANCH   8   9
ENDBRANCH   2   8
TORSDOF 6
ENDMDL
MODEL 7
REMARK VINA RESULT:      -4.5      1.775      2.414
REMARK  Name = 
REMARK  7 active torsions:
REMARK  status: ('A' for Active; 'I' for Inactive)
REMARK    1  A    between atoms: C_1  and  C_2
REMARK    2  A    between atoms: C_2  and  C_3
REMARK    3  A    between atoms: C_2  and  N_8
REMARK    4  A    between atoms: C_3  and  C_4
REMARK    5  A    between atoms: C_4  and  C_5
REMARK    6  A    between atoms: C_5  and  O_7
REMARK    7  A    between atoms: N_8  and  O_9
REMARK                            x       y       z     vdW  Elec       q    Type
REMARK                         _______ _______ _______ _____ _____    ______ ____
ROOT
ATOM      1  C   UNL     1       3.395   7.082  17.882  0.00  0.00    +0.000 C 
ATOM      2  C   UNL     1       4.201   5.907  17.325  0.00  0.00    +0.000 C 
ENDROOT
BRANCH   2   3
ATOM      3  N   UNL     1       4.921   5.196  18.389  0.00  0.00    +0.000 N 
ATOM      4  C   UNL     1       4.826   3.848  18.646  0.00  0.00    +0.000 C 
ATOM      5  O   UNL     1       3.966   3.087  18.216  0.00  0.00    +0.000 OA
BRANCH   3   6
ATOM      6  O   UNL     1       6.186   5.757  18.674  0.00  0.00    +0.000 OA
ATOM      7  H   UNL     1       6.411   5.319  19.517  0.00  0.00    +0.000 HD
ENDBRANCH   3   6
ENDBRANCH   2   3
BRANCH   2   8
ATOM      8  C   UNL     1       5.164   6.324  16.193  0.00  0.00    +0.000 C 
BRANCH   8   9
ATOM      9  C   UNL     1       5.628   5.168  15.302  0.00  0.00    +0.000 C 
BRANCH   9  10
ATOM     10  C   UNL     1       7.125   4.970  15.361  0.00  0.00    +0.000 C 
ATOM     11  O   UNL     1       7.724   4.513  16.321  0.00  0.00    +0.000 OA
BRANCH  10  12
ATOM     12  O   UNL     1       7.757   5.363  14.235  0.00  0.00    +0.000 OA
ATOM     13  H   UNL     1       7.718   6.322  14.057  0.00  0.00    +0.000 HD
ENDBRANCH  10  12
ENDBRANCH   9  10
ENDBRANCH   8   9
ENDBRANCH   2   8
TORSDOF 6
ENDMDL
MODEL 8
REMARK VINA RESULT:      -4.5      2.737      3.505
REMARK  Name = 
REMARK  7 active torsions:
REMARK  status: ('A' for Active; 'I' for Inactive)
REMARK    1  A    between atoms: C_1  and  C_2
REMARK    2  A    between atoms: C_2  and  C_3
REMARK    3  A    between atoms: C_2  and  N_8
REMARK    4  A    between atoms: C_3  and  C_4
REMARK    5  A    between atoms: C_4  and  C_5
REMARK    6  A    between atoms: C_5  and  O_7
REMARK    7  A    between atoms: N_8  and  O_9
REMARK                            x       y       z     vdW  Elec       q    Type
REMARK                         _______ _______ _______ _____ _____    ______ ____
ROOT
ATOM      1  C   UNL     1       3.448   1.527  18.454  0.00  0.00    +0.000 C 
ATOM      2  C   UNL     1       3.054   2.706  19.346  0.00  0.00    +0.000 C 
ENDROOT
BRANCH   2   3
ATOM      3  N   UNL     1       1.787   2.452  20.045  0.00  0.00    +0.000 N 
ATOM      4  C   UNL     1       1.549   2.713  21.373  0.00  0.00    +0.000 C 
ATOM      5  O   UNL     1       2.394   2.951  22.228  0.00  0.00    +0.000 OA
BRANCH   3   6
ATOM      6  O   UNL     1       0.656   2.593  19.209  0.00  0.00    +0.000 OA
ATOM      7  H   UNL     1       0.413   3.526  19.364  0.00  0.00    +0.000 HD
ENDBRANCH   3   6
ENDBRANCH   2   3
BRANCH   2   8
ATOM      8  C   UNL     1       3.002   4.046  18.583  0.00  0.00    +0.000 C 
BRANCH   8   9
ATOM      9  C   UNL     1       4.271   4.368  17.788  0.00  0.00    +0.000 C 
BRANCH   9  10
ATOM     10  C   UNL     1       5.449   4.656  18.689  0.00  0.00    +0.000 C 
ATOM     11  O   UNL     1       5.422   5.425  19.635  0.00  0.00    +0.000 OA
BRANCH  10  12
ATOM     12  O   UNL     1       6.563   3.977  18.340  0.00  0.00    +0.000 OA
ATOM     13  H   UNL     1       7.391   4.486  18.414  0.00  0.00    +0.000 HD
ENDBRANCH  10  12
ENDBRANCH   9  10
ENDBRANCH   8   9
ENDBRANCH   2   8
TORSDOF 6
ENDMDL
MODEL 9
REMARK VINA RESULT:      -4.5      2.037      4.221
REMARK  Name = 
REMARK  7 active torsions:
REMARK  status: ('A' for Active; 'I' for Inactive)
REMARK    1  A    between atoms: C_1  and  C_2
REMARK    2  A    between atoms: C_2  and  C_3
REMARK    3  A    between atoms: C_2  and  N_8
REMARK    4  A    between atoms: C_3  and  C_4
REMARK    5  A    between atoms: C_4  and  C_5
REMARK    6  A    between atoms: C_5  and  O_7
REMARK    7  A    between atoms: N_8  and  O_9
REMARK                            x       y       z     vdW  Elec       q    Type
REMARK                         _______ _______ _______ _____ _____    ______ ____
ROOT
ATOM      1  C   UNL     1       6.110   3.952  15.039  0.00  0.00    +0.000 C 
ATOM      2  C   UNL     1       5.576   4.453  16.382  0.00  0.00    +0.000 C 
ENDROOT
BRANCH   2   3
ATOM      3  N   UNL     1       6.670   4.787  17.305  0.00  0.00    +0.000 N 
ATOM      4  C   UNL     1       7.259   6.023  17.420  0.00  0.00    +0.000 C 
ATOM      5  O   UNL     1       7.155   6.953  16.626  0.00  0.00    +0.000 OA
BRANCH   3   6
ATOM      6  O   UNL     1       6.626   4.046  18.507  0.00  0.00    +0.000 OA
ATOM      7  H   UNL     1       5.674   3.842  18.577  0.00  0.00    +0.000 HD
ENDBRANCH   3   6
ENDBRANCH   2   3
BRANCH   2   8
ATOM      8  C   UNL     1       4.585   3.469  17.038  0.00  0.00    +0.000 C 
BRANCH   8   9
ATOM      9  C   UNL     1       3.231   4.087  17.402  0.00  0.00    +0.000 C 
BRANCH   9  10
ATOM     10  C   UNL     1       2.196   3.036  17.728  0.00  0.00    +0.000 C 
ATOM     11  O   UNL     1       1.027   3.274  17.984  0.00  0.00    +0.000 OA
BRANCH  10  12
ATOM     12  O   UNL     1       2.693   1.780  17.721  0.00  0.00    +0.000 OA
ATOM     13  H   UNL     1       2.139   1.119  18.176  0.00  0.00    +0.000 HD
ENDBRANCH  10  12
ENDBRANCH   9  10
ENDBRANCH   8   9
ENDBRANCH   2   8
TORSDOF 6
ENDMDL
