MODEL 1
REMARK VINA RESULT:      -5.9      0.000      0.000
REMARK  Name = 
REMARK  20 active torsions:
REMARK  status: ('A' for Active; 'I' for Inactive)
REMARK    1  A    between atoms: C_1  and  O_2
REMARK    2  A    between atoms: O_2  and  C_3
REMARK    3  A    between atoms: C_3  and  C_4
REMARK    4  A    between atoms: C_4  and  N_5
REMARK    5  A    between atoms: N_5  and  C_6
REMARK    6  A    between atoms: N_5  and  S_10
REMARK    7  A    between atoms: C_6  and  C_7
REMARK    8  A    between atoms: C_7  and  O_8
REMARK    9  A    between atoms: O_8  and  C_9
REMARK   10  A    between atoms: S_10  and  N_13
REMARK   11  A    between atoms: N_13  and  C_14
REMARK   12  A    between atoms: N_13  and  C_22
REMARK   13  A    between atoms: C_14  and  C_15
REMARK   14  A    between atoms: C_15  and  O_16
REMARK   15  A    between atoms: C_15  and  C_17
REMARK   16  A    between atoms: C_17  and  C_18
REMARK   17  A    between atoms: C_18  and  C_19
REMARK   18  A    between atoms: C_18  and  C_20
REMARK   19  A    between atoms: C_18  and  C_21
REMARK   20  A    between atoms: N_25  and  C_26
REMARK                            x       y       z     vdW  Elec       q    Type
REMARK                         _______ _______ _______ _____ _____    ______ ____
ROOT
ATOM      1  N   UNL     1       3.550   6.287  17.718  0.00  0.00    +0.000 NA
ENDROOT
BRANCH   1   2
ATOM      2  C   UNL     1       2.504   7.287  18.174  0.00  0.00    +0.000 C 
ATOM      3  C   UNL     1       2.578   8.653  17.508  0.00  0.00    +0.000 C 
ATOM      4  C   UNL     1       1.398   9.524  17.939  0.00  0.00    +0.000 C 
ATOM      5  N   UNL     1       1.357   9.650  19.395  0.00  0.00    +0.000 NA
ATOM      6  C   UNL     1       0.293  10.567  19.804  0.00  0.00    +0.000 C 
ATOM      7  C   UNL     1       1.192   8.339  20.039  0.00  0.00    +0.000 C 
ATOM      8  C   UNL     1       2.353   7.410  19.689  0.00  0.00    +0.000 C 
ENDBRANCH   1   2
BRANCH   1   9
ATOM      9  S   UNL     1       4.875   6.782  16.759  0.00  0.00    +0.000 S 
ATOM     10  O   UNL     1       5.717   7.607  17.590  0.00  0.00    +0.000 OA
ATOM     11  O   UNL     1       4.320   7.343  15.542  0.00  0.00    +0.000 OA
BRANCH   9  12
ATOM     12  N   UNL     1       5.803   5.434  16.326  0.00  0.00    +0.000 NA
BRANCH  12  13
ATOM     13  C   UNL     1       5.532   4.993  14.902  0.00  0.00    +0.000 C 
BRANCH  13  14
ATOM     14  C   UNL     1       6.758   4.784  13.997  0.00  0.00    +0.000 C 
BRANCH  14  16
ATOM     15  C   UNL     1       5.244   3.598  12.589  0.00  0.00    +0.000 C 
ATOM     16  O   UNL     1       6.596   3.788  12.988  0.00  0.00    +0.000 OA
ENDBRANCH  14  16
ENDBRANCH  13  14
ENDBRANCH  12  13
BRANCH  12  17
ATOM     17  C   UNL     1       7.258   5.404  16.699  0.00  0.00    +0.000 C 
BRANCH  17  18
ATOM     18  C   UNL     1       7.717   4.302  17.654  0.00  0.00    +0.000 C 
BRANCH  18  19
ATOM     19  O   UNL     1       7.259   4.659  18.967  0.00  0.00    +0.000 OA
ATOM     20  C   UNL     1       7.913   5.806  19.491  0.00  0.00    +0.000 C 
ENDBRANCH  18  19
ENDBRANCH  17  18
ENDBRANCH  12  17
ENDBRANCH   9  12
ENDBRANCH   1   9
BRANCH   1  21
ATOM     21  C   UNL     1       4.047   5.411  18.918  0.00  0.00    +0.000 C 
BRANCH  21  22
ATOM     22  C   UNL     1       3.594   3.924  18.810  0.00  0.00    +0.000 C 
BRANCH  22  23
ATOM     23  O   UNL     1       4.607   3.203  18.110  0.00  0.00    +0.000 OA
ATOM     24  H   UNL     1       5.186   3.851  17.673  0.00  0.00    +0.000 HD
ENDBRANCH  22  23
BRANCH  22  25
ATOM     25  C   UNL     1       3.237   3.186  20.130  0.00  0.00    +0.000 C 
BRANCH  25  26
ATOM     26  C   UNL     1       1.691   3.086  20.449  0.00  0.00    +0.000 C 
ATOM     27  C   UNL     1       0.949   2.190  19.440  0.00  0.00    +0.000 C 
ATOM     28  C   UNL     1       1.474   2.463  21.847  0.00  0.00    +0.000 C 
ATOM     29  C   UNL     1       1.015   4.473  20.466  0.00  0.00    +0.000 C 
ENDBRANCH  25  26
ENDBRANCH  22  25
ENDBRANCH  21  22
ENDBRANCH   1  21
TORSDOF 14
ENDMDL
MODEL 2
REMARK VINA RESULT:      -5.7      2.324      6.714
REMARK  Name = 
REMARK  20 active torsions:
REMARK  status: ('A' for Active; 'I' for Inactive)
REMARK    1  A    between atoms: C_1  and  O_2
REMARK    2  A    between atoms: O_2  and  C_3
REMARK    3  A    between atoms: C_3  and  C_4
REMARK    4  A    between atoms: C_4  and  N_5
REMARK    5  A    between atoms: N_5  and  C_6
REMARK    6  A    between atoms: N_5  and  S_10
REMARK    7  A    between atoms: C_6  and  C_7
REMARK    8  A    between atoms: C_7  and  O_8
REMARK    9  A    between atoms: O_8  and  C_9
REMARK   10  A    between atoms: S_10  and  N_13
REMARK   11  A    between atoms: N_13  and  C_14
REMARK   12  A    between atoms: N_13  and  C_22
REMARK   13  A    between atoms: C_14  and  C_15
REMARK   14  A    between atoms: C_15  and  O_16
REMARK   15  A    between atoms: C_15  and  C_17
REMARK   16  A    between atoms: C_17  and  C_18
REMARK   17  A    between atoms: C_18  and  C_19
REMARK   18  A    between atoms: C_18  and  C_20
REMARK   19  A    between atoms: C_18  and  C_21
REMARK   20  A    between atoms: N_25  and  C_26
REMARK                            x       y       z     vdW  Elec       q    Type
REMARK                         _______ _______ _______ _____ _____    ______ ____
ROOT
ATOM      1  N   UNL     1       5.625   4.683  17.182  0.00  0.00    +0.000 NA
ENDROOT
BRANCH   1   2
ATOM      2  C   UNL     1       6.286   5.938  17.720  0.00  0.00    +0.000 C 
ATOM      3  C   UNL     1       6.187   7.160  16.819  0.00  0.00    +0.000 C 
ATOM      4  C   UNL     1       6.761   8.391  17.520  0.00  0.00    +0.000 C 
ATOM      5  N   UNL     1       8.143   8.151  17.932  0.00  0.00    +0.000 NA
ATOM      6  C   UNL     1       8.728   9.360  18.509  0.00  0.00    +0.000 C 
ATOM      7  C   UNL     1       8.231   7.028  18.877  0.00  0.00    +0.000 C 
ATOM      8  C   UNL     1       7.708   5.741  18.242  0.00  0.00    +0.000 C 
ENDBRANCH   1   2
BRANCH   1   9
ATOM      9  S   UNL     1       4.488   3.820  18.122  0.00  0.00    +0.000 S 
ATOM     10  O   UNL     1       5.104   3.553  19.398  0.00  0.00    +0.000 OA
ATOM     11  O   UNL     1       4.040   2.704  17.310  0.00  0.00    +0.000 OA
BRANCH   9  12
ATOM     12  N   UNL     1       3.143   4.799  18.434  0.00  0.00    +0.000 NA
BRANCH  12  13
ATOM     13  C   UNL     1       1.839   4.051  18.244  0.00  0.00    +0.000 C 
BRANCH  13  14
ATOM     14  C   UNL     1       1.131   3.558  19.517  0.00  0.00    +0.000 C 
BRANCH  14  16
ATOM     15  C   UNL     1       1.877   2.666  21.598  0.00  0.00    +0.000 C 
ATOM     16  O   UNL     1       1.786   2.484  20.191  0.00  0.00    +0.000 OA
ENDBRANCH  14  16
ENDBRANCH  13  14
ENDBRANCH  12  13
BRANCH  12  17
ATOM     17  C   UNL     1       3.156   5.685  19.647  0.00  0.00    +0.000 C 
BRANCH  17  18
ATOM     18  C   UNL     1       2.370   6.994  19.570  0.00  0.00    +0.000 C 
BRANCH  18  19
ATOM     19  O   UNL     1       1.534   7.057  20.736  0.00  0.00    +0.000 OA
ATOM     20  C   UNL     1       1.255   8.387  21.150  0.00  0.00    +0.000 C 
ENDBRANCH  18  19
ENDBRANCH  17  18
ENDBRANCH  12  17
ENDBRANCH   9  12
ENDBRANCH   1   9
BRANCH   1  21
ATOM     21  C   UNL     1       5.065   4.921  15.739  0.00  0.00    +0.000 C 
BRANCH  21  22
ATOM     22  C   UNL     1       5.788   4.061  14.659  0.00  0.00    +0.000 C 
BRANCH  22  23
ATOM     23  O   UNL     1       6.593   3.094  15.331  0.00  0.00    +0.000 OA
ATOM     24  H   UNL     1       6.099   2.781  16.108  0.00  0.00    +0.000 HD
ENDBRANCH  22  23
BRANCH  22  25
ATOM     25  C   UNL     1       4.903   3.361  13.590  0.00  0.00    +0.000 C 
BRANCH  25  26
ATOM     26  C   UNL     1       5.515   3.320  12.132  0.00  0.00    +0.000 C 
ATOM     27  C   UNL     1       4.525   3.843  11.075  0.00  0.00    +0.000 C 
ATOM     28  C   UNL     1       6.771   4.220  12.057  0.00  0.00    +0.000 C 
ATOM     29  C   UNL     1       5.959   1.897  11.732  0.00  0.00    +0.000 C 
ENDBRANCH  25  26
ENDBRANCH  22  25
ENDBRANCH  21  22
ENDBRANCH   1  21
TORSDOF 14
ENDMDL
MODEL 3
REMARK VINA RESULT:      -5.7      2.001      3.915
REMARK  Name = 
REMARK  20 active torsions:
REMARK  status: ('A' for Active; 'I' for Inactive)
REMARK    1  A    between atoms: C_1  and  O_2
REMARK    2  A    between atoms: O_2  and  C_3
REMARK    3  A    between atoms: C_3  and  C_4
REMARK    4  A    between atoms: C_4  and  N_5
REMARK    5  A    between atoms: N_5  and  C_6
REMARK    6  A    between atoms: N_5  and  S_10
REMARK    7  A    between atoms: C_6  and  C_7
REMARK    8  A    between atoms: C_7  and  O_8
REMARK    9  A    between atoms: O_8  and  C_9
REMARK   10  A    between atoms: S_10  and  N_13
REMARK   11  A    between atoms: N_13  and  C_14
REMARK   12  A    between atoms: N_13  and  C_22
REMARK   13  A    between atoms: C_14  and  C_15
REMARK   14  A    between atoms: C_15  and  O_16
REMARK   15  A    between atoms: C_15  and  C_17
REMARK   16  A    between atoms: C_17  and  C_18
REMARK   17  A    between atoms: C_18  and  C_19
REMARK   18  A    between atoms: C_18  and  C_20
REMARK   19  A    between atoms: C_18  and  C_21
REMARK   20  A    between atoms: N_25  and  C_26
REMARK                            x       y       z     vdW  Elec       q    Type
REMARK                         _______ _______ _______ _____ _____    ______ ____
ROOT
ATOM      1  N   UNL     1       4.798   5.254  18.807  0.00  0.00    +0.000 NA
ENDROOT
BRANCH   1   2
ATOM      2  C   UNL     1       3.979   6.529  18.887  0.00  0.00    +0.000 C 
ATOM      3  C   UNL     1       2.783   6.473  19.825  0.00  0.00    +0.000 C 
ATOM      4  C   UNL     1       2.120   7.847  19.932  0.00  0.00    +0.000 C 
ATOM      5  N   UNL     1       1.730   8.333  18.610  0.00  0.00    +0.000 NA
ATOM      6  C   UNL     1       1.004   9.598  18.717  0.00  0.00    +0.000 C 
ATOM      7  C   UNL     1       2.898   8.477  17.728  0.00  0.00    +0.000 C 
ATOM      8  C   UNL     1       3.604   7.136  17.537  0.00  0.00    +0.000 C 
ENDBRANCH   1   2
BRANCH   1   9
ATOM      9  S   UNL     1       6.503   5.312  18.713  0.00  0.00    +0.000 S 
ATOM     10  O   UNL     1       6.938   4.083  18.099  0.00  0.00    +0.000 OA
ATOM     11  O   UNL     1       6.981   5.642  20.043  0.00  0.00    +0.000 OA
BRANCH   9  12
ATOM     12  N   UNL     1       6.976   6.562  17.673  0.00  0.00    +0.000 NA
BRANCH  12  13
ATOM     13  C   UNL     1       8.095   7.397  18.262  0.00  0.00    +0.000 C 
BRANCH  13  14
ATOM     14  C   UNL     1       8.117   8.888  17.886  0.00  0.00    +0.000 C 
BRANCH  14  16
ATOM     15  C   UNL     1       9.139  11.011  18.252  0.00  0.00    +0.000 C 
ATOM     16  O   UNL     1       8.854   9.722  18.781  0.00  0.00    +0.000 OA
ENDBRANCH  14  16
ENDBRANCH  13  14
ENDBRANCH  12  13
BRANCH  12  17
ATOM     17  C   UNL     1       7.155   6.262  16.213  0.00  0.00    +0.000 C 
BRANCH  17  18
ATOM     18  C   UNL     1       6.021   5.524  15.502  0.00  0.00    +0.000 C 
BRANCH  18  19
ATOM     19  O   UNL     1       6.598   4.382  14.852  0.00  0.00    +0.000 OA
ATOM     20  C   UNL     1       7.077   4.667  13.545  0.00  0.00    +0.000 C 
ENDBRANCH  18  19
ENDBRANCH  17  18
ENDBRANCH  12  17
ENDBRANCH   9  12
ENDBRANCH   1   9
BRANCH   1  21
ATOM     21  C   UNL     1       4.351   4.233  19.908  0.00  0.00    +0.000 C 
BRANCH  21  22
ATOM     22  C   UNL     1       4.066   2.812  19.335  0.00  0.00    +0.000 C 
BRANCH  22  23
ATOM     23  O   UNL     1       5.144   1.958  19.715  0.00  0.00    +0.000 OA
ATOM     24  H   UNL     1       5.826   2.508  20.136  0.00  0.00    +0.000 HD
ENDBRANCH  22  23
BRANCH  22  25
ATOM     25  C   UNL     1       2.711   2.148  19.706  0.00  0.00    +0.000 C 
BRANCH  25  26
ATOM     26  C   UNL     1       1.427   2.874  19.133  0.00  0.00    +0.000 C 
ATOM     27  C   UNL     1       1.739   3.678  17.857  0.00  0.00    +0.000 C 
ATOM     28  C   UNL     1       0.350   1.831  18.755  0.00  0.00    +0.000 C 
ATOM     29  C   UNL     1       0.790   3.822  20.170  0.00  0.00    +0.000 C 
ENDBRANCH  25  26
ENDBRANCH  22  25
ENDBRANCH  21  22
ENDBRANCH   1  21
TORSDOF 14
ENDMDL
MODEL 4
REMARK VINA RESULT:      -5.3      1.431      4.325
REMARK  Name = 
REMARK  20 active torsions:
REMARK  status: ('A' for Active; 'I' for Inactive)
REMARK    1  A    between atoms: C_1  and  O_2
REMARK    2  A    between atoms: O_2  and  C_3
REMARK    3  A    between atoms: C_3  and  C_4
REMARK    4  A    between atoms: C_4  and  N_5
REMARK    5  A    between atoms: N_5  and  C_6
REMARK    6  A    between atoms: N_5  and  S_10
REMARK    7  A    between atoms: C_6  and  C_7
REMARK    8  A    between atoms: C_7  and  O_8
REMARK    9  A    between atoms: O_8  and  C_9
REMARK   10  A    between atoms: S_10  and  N_13
REMARK   11  A    between atoms: N_13  and  C_14
REMARK   12  A    between atoms: N_13  and  C_22
REMARK   13  A    between atoms: C_14  and  C_15
REMARK   14  A    between atoms: C_15  and  O_16
REMARK   15  A    between atoms: C_15  and  C_17
REMARK   16  A    between atoms: C_17  and  C_18
REMARK   17  A    between atoms: C_18  and  C_19
REMARK   18  A    between atoms: C_18  and  C_20
REMARK   19  A    between atoms: C_18  and  C_21
REMARK   20  A    between atoms: N_25  and  C_26
REMARK                            x       y       z     vdW  Elec       q    Type
REMARK                         _______ _______ _______ _____ _____    ______ ____
ROOT
ATOM      1  N   UNL     1       3.998   6.928  17.690  0.00  0.00    +0.000 NA
ENDROOT
BRANCH   1   2
ATOM      2  C   UNL     1       3.446   5.659  18.313  0.00  0.00    +0.000 C 
ATOM      3  C   UNL     1       2.098   5.205  17.772  0.00  0.00    +0.000 C 
ATOM      4  C   UNL     1       1.710   3.851  18.367  0.00  0.00    +0.000 C 
ATOM      5  N   UNL     1       1.696   3.917  19.828  0.00  0.00    +0.000 NA
ATOM      6  C   UNL     1       1.225   2.655  20.397  0.00  0.00    +0.000 C 
ATOM      7  C   UNL     1       3.022   4.265  20.358  0.00  0.00    +0.000 C 
ATOM      8  C   UNL     1       3.476   5.628  19.840  0.00  0.00    +0.000 C 
ENDBRANCH   1   2
BRANCH   1   9
ATOM      9  S   UNL     1       5.274   6.863  16.555  0.00  0.00    +0.000 S 
ATOM     10  O   UNL     1       6.369   7.626  17.102  0.00  0.00    +0.000 OA
ATOM     11  O   UNL     1       4.712   7.256  15.277  0.00  0.00    +0.000 OA
BRANCH   9  12
ATOM     12  N   UNL     1       5.826   5.270  16.406  0.00  0.00    +0.000 NA
BRANCH  12  13
ATOM     13  C   UNL     1       5.142   4.537  15.270  0.00  0.00    +0.000 C 
BRANCH  13  14
ATOM     14  C   UNL     1       6.016   3.588  14.432  0.00  0.00    +0.000 C 
BRANCH  14  16
ATOM     15  C   UNL     1       6.111   3.187  12.084  0.00  0.00    +0.000 C 
ATOM     16  O   UNL     1       6.385   4.090  13.148  0.00  0.00    +0.000 OA
ENDBRANCH  14  16
ENDBRANCH  13  14
ENDBRANCH  12  13
BRANCH  12  17
ATOM     17  C   UNL     1       7.302   5.002  16.492  0.00  0.00    +0.000 C 
BRANCH  17  18
ATOM     18  C   UNL     1       7.835   4.414  17.798  0.00  0.00    +0.000 C 
BRANCH  18  19
ATOM     19  O   UNL     1       6.867   4.699  18.819  0.00  0.00    +0.000 OA
ATOM     20  C   UNL     1       7.317   5.664  19.760  0.00  0.00    +0.000 C 
ENDBRANCH  18  19
ENDBRANCH  17  18
ENDBRANCH  12  17
ENDBRANCH   9  12
ENDBRANCH   1   9
BRANCH   1  21
ATOM     21  C   UNL     1       2.840   7.836  17.152  0.00  0.00    +0.000 C 
BRANCH  21  22
ATOM     22  C   UNL     1       2.505   9.020  18.108  0.00  0.00    +0.000 C 
BRANCH  22  23
ATOM     23  O   UNL     1       2.092  10.128  17.311  0.00  0.00    +0.000 OA
ATOM     24  H   UNL     1       2.587  10.911  17.608  0.00  0.00    +0.000 HD
ENDBRANCH  22  23
BRANCH  22  25
ATOM     25  C   UNL     1       1.466   8.761  19.233  0.00  0.00    +0.000 C 
BRANCH  25  26
ATOM     26  C   UNL     1       0.459   9.951  19.506  0.00  0.00    +0.000 C 
ATOM     27  C   UNL     1      -0.545  10.134  18.353  0.00  0.00    +0.000 C 
ATOM     28  C   UNL     1      -0.368   9.665  20.781  0.00  0.00    +0.000 C 
ATOM     29  C   UNL     1       1.194  11.287  19.737  0.00  0.00    +0.000 C 
ENDBRANCH  25  26
ENDBRANCH  22  25
ENDBRANCH  21  22
ENDBRANCH   1  21
TORSDOF 14
ENDMDL
MODEL 5
REMARK VINA RESULT:      -5.3      1.383      1.984
REMARK  Name = 
REMARK  20 active torsions:
REMARK  status: ('A' for Active; 'I' for Inactive)
REMARK    1  A    between atoms: C_1  and  O_2
REMARK    2  A    between atoms: O_2  and  C_3
REMARK    3  A    between atoms: C_3  and  C_4
REMARK    4  A    between atoms: C_4  and  N_5
REMARK    5  A    between atoms: N_5  and  C_6
REMARK    6  A    between atoms: N_5  and  S_10
REMARK    7  A    between atoms: C_6  and  C_7
REMARK    8  A    between atoms: C_7  and  O_8
REMARK    9  A    between atoms: O_8  and  C_9
REMARK   10  A    between atoms: S_10  and  N_13
REMARK   11  A    between atoms: N_13  and  C_14
REMARK   12  A    between atoms: N_13  and  C_22
REMARK   13  A    between atoms: C_14  and  C_15
REMARK   14  A    between atoms: C_15  and  O_16
REMARK   15  A    between atoms: C_15  and  C_17
REMARK   16  A    between atoms: C_17  and  C_18
REMARK   17  A    between atoms: C_18  and  C_19
REMARK   18  A    between atoms: C_18  and  C_20
REMARK   19  A    between atoms: C_18  and  C_21
REMARK   20  A    between atoms: N_25  and  C_26
REMARK                            x       y       z     vdW  Elec       q    Type
REMARK                         _______ _______ _______ _____ _____    ______ ____
ROOT
ATOM      1  N   UNL     1       3.897   6.061  17.911  0.00  0.00    +0.000 NA
ENDROOT
BRANCH   1   2
ATOM      2  C   UNL     1       3.211   7.300  18.455  0.00  0.00    +0.000 C 
ATOM      3  C   UNL     1       2.352   7.075  19.691  0.00  0.00    +0.000 C 
ATOM      4  C   UNL     1       1.828   8.407  20.228  0.00  0.00    +0.000 C 
ATOM      5  N   UNL     1       1.084   9.123  19.193  0.00  0.00    +0.000 NA
ATOM      6  C   UNL     1       0.494  10.347  19.733  0.00  0.00    +0.000 C 
ATOM      7  C   UNL     1       1.938   9.423  18.034  0.00  0.00    +0.000 C 
ATOM      8  C   UNL     1       2.480   8.139  17.409  0.00  0.00    +0.000 C 
ENDBRANCH   1   2
BRANCH   1   9
ATOM      9  S   UNL     1       4.887   6.146  16.520  0.00  0.00    +0.000 S 
ATOM     10  O   UNL     1       4.911   7.525  16.099  0.00  0.00    +0.000 OA
ATOM     11  O   UNL     1       4.397   5.137  15.600  0.00  0.00    +0.000 OA
BRANCH   9  12
ATOM     12  N   UNL     1       6.480   5.740  16.926  0.00  0.00    +0.000 NA
BRANCH  12  13
ATOM     13  C   UNL     1       6.917   4.443  16.278  0.00  0.00    +0.000 C 
BRANCH  13  14
ATOM     14  C   UNL     1       7.164   4.475  14.760  0.00  0.00    +0.000 C 
BRANCH  14  16
ATOM     15  C   UNL     1       6.475   3.734  12.602  0.00  0.00    +0.000 C 
ATOM     16  O   UNL     1       6.399   3.533  14.008  0.00  0.00    +0.000 OA
ENDBRANCH  14  16
ENDBRANCH  13  14
ENDBRANCH  12  13
BRANCH  12  17
ATOM     17  C   UNL     1       7.532   6.812  16.896  0.00  0.00    +0.000 C 
BRANCH  17  18
ATOM     18  C   UNL     1       7.788   7.583  18.191  0.00  0.00    +0.000 C 
BRANCH  18  19
ATOM     19  O   UNL     1       7.863   8.975  17.850  0.00  0.00    +0.000 OA
ATOM     20  C   UNL     1       8.824   9.686  18.618  0.00  0.00    +0.000 C 
ENDBRANCH  18  19
ENDBRANCH  17  18
ENDBRANCH  12  17
ENDBRANCH   9  12
ENDBRANCH   1   9
BRANCH   1  21
ATOM     21  C   UNL     1       4.635   5.283  19.054  0.00  0.00    +0.000 C 
BRANCH  21  22
ATOM     22  C   UNL     1       4.296   3.762  19.068  0.00  0.00    +0.000 C 
BRANCH  22  23
ATOM     23  O   UNL     1       5.505   3.041  19.298  0.00  0.00    +0.000 OA
ATOM     24  H   UNL     1       6.249   3.647  19.138  0.00  0.00    +0.000 HD
ENDBRANCH  22  23
BRANCH  22  25
ATOM     25  C   UNL     1       3.198   3.283  20.058  0.00  0.00    +0.000 C 
BRANCH  25  26
ATOM     26  C   UNL     1       1.744   3.169  19.446  0.00  0.00    +0.000 C 
ATOM     27  C   UNL     1       1.248   1.712  19.402  0.00  0.00    +0.000 C 
ATOM     28  C   UNL     1       0.738   3.960  20.314  0.00  0.00    +0.000 C 
ATOM     29  C   UNL     1       1.669   3.759  18.022  0.00  0.00    +0.000 C 
ENDBRANCH  25  26
ENDBRANCH  22  25
ENDBRANCH  21  22
ENDBRANCH   1  21
TORSDOF 14
ENDMDL
MODEL 6
REMARK VINA RESULT:      -5.3      0.900      1.560
REMARK  Name = 
REMARK  20 active torsions:
REMARK  status: ('A' for Active; 'I' for Inactive)
REMARK    1  A    between atoms: C_1  and  O_2
REMARK    2  A    between atoms: O_2  and  C_3
REMARK    3  A    between atoms: C_3  and  C_4
REMARK    4  A    between atoms: C_4  and  N_5
REMARK    5  A    between atoms: N_5  and  C_6
REMARK    6  A    between atoms: N_5  and  S_10
REMARK    7  A    between atoms: C_6  and  C_7
REMARK    8  A    between atoms: C_7  and  O_8
REMARK    9  A    between atoms: O_8  and  C_9
REMARK   10  A    between atoms: S_10  and  N_13
REMARK   11  A    between atoms: N_13  and  C_14
REMARK   12  A    between atoms: N_13  and  C_22
REMARK   13  A    between atoms: C_14  and  C_15
REMARK   14  A    between atoms: C_15  and  O_16
REMARK   15  A    between atoms: C_15  and  C_17
REMARK   16  A    between atoms: C_17  and  C_18
REMARK   17  A    between atoms: C_18  and  C_19
REMARK   18  A    between atoms: C_18  and  C_20
REMARK   19  A    between atoms: C_18  and  C_21
REMARK   20  A    between atoms: N_25  and  C_26
REMARK                            x       y       z     vdW  Elec       q    Type
REMARK                         _______ _______ _______ _____ _____    ______ ____
ROOT
ATOM      1  N   UNL     1       3.375   6.647  17.518  0.00  0.00    +0.000 NA
ENDROOT
BRANCH   1   2
ATOM      2  C   UNL     1       2.805   7.832  18.275  0.00  0.00    +0.000 C 
ATOM      3  C   UNL     1       2.057   7.484  19.554  0.00  0.00    +0.000 C 
ATOM      4  C   UNL     1       1.652   8.756  20.301  0.00  0.00    +0.000 C 
ATOM      5  N   UNL     1       0.849   9.624  19.440  0.00  0.00    +0.000 NA
ATOM      6  C   UNL     1       0.373  10.790  20.182  0.00  0.00    +0.000 C 
ATOM      7  C   UNL     1       1.603  10.037  18.247  0.00  0.00    +0.000 C 
ATOM      8  C   UNL     1       2.019   8.823  17.419  0.00  0.00    +0.000 C 
ENDBRANCH   1   2
BRANCH   1   9
ATOM      9  S   UNL     1       4.886   6.758  16.727  0.00  0.00    +0.000 S 
ATOM     10  O   UNL     1       5.768   7.498  17.594  0.00  0.00    +0.000 OA
ATOM     11  O   UNL     1       4.620   7.266  15.394  0.00  0.00    +0.000 OA
BRANCH   9  12
ATOM     12  N   UNL     1       5.560   5.214  16.562  0.00  0.00    +0.000 NA
BRANCH  12  13
ATOM     13  C   UNL     1       6.309   5.058  15.255  0.00  0.00    +0.000 C 
BRANCH  13  14
ATOM     14  C   UNL     1       5.722   4.070  14.233  0.00  0.00    +0.000 C 
BRANCH  14  16
ATOM     15  C   UNL     1       5.891   3.040  12.090  0.00  0.00    +0.000 C 
ATOM     16  O   UNL     1       6.435   3.988  12.999  0.00  0.00    +0.000 OA
ENDBRANCH  14  16
ENDBRANCH  13  14
ENDBRANCH  12  13
BRANCH  12  17
ATOM     17  C   UNL     1       6.267   4.602  17.737  0.00  0.00    +0.000 C 
BRANCH  17  18
ATOM     18  C   UNL     1       7.783   4.436  17.638  0.00  0.00    +0.000 C 
BRANCH  18  19
ATOM     19  O   UNL     1       8.339   4.840  18.899  0.00  0.00    +0.000 OA
ATOM     20  C   UNL     1       7.452   5.640  19.667  0.00  0.00    +0.000 C 
ENDBRANCH  18  19
ENDBRANCH  17  18
ENDBRANCH  12  17
ENDBRANCH   9  12
ENDBRANCH   1   9
BRANCH   1  21
ATOM     21  C   UNL     1       3.313   5.346  18.388  0.00  0.00    +0.000 C 
BRANCH  21  22
ATOM     22  C   UNL     1       2.265   4.318  17.865  0.00  0.00    +0.000 C 
BRANCH  22  23
ATOM     23  O   UNL     1       2.940   3.388  17.021  0.00  0.00    +0.000 OA
ATOM     24  H   UNL     1       3.574   3.885  16.476  0.00  0.00    +0.000 HD
ENDBRANCH  22  23
BRANCH  22  25
ATOM     25  C   UNL     1       1.421   3.554  18.923  0.00  0.00    +0.000 C 
BRANCH  25  26
ATOM     26  C   UNL     1       2.137   3.322  20.315  0.00  0.00    +0.000 C 
ATOM     27  C   UNL     1       2.321   4.635  21.097  0.00  0.00    +0.000 C 
ATOM     28  C   UNL     1       1.284   2.386  21.202  0.00  0.00    +0.000 C 
ATOM     29  C   UNL     1       3.515   2.649  20.150  0.00  0.00    +0.000 C 
ENDBRANCH  25  26
ENDBRANCH  22  25
ENDBRANCH  21  22
ENDBRANCH   1  21
TORSDOF 14
ENDMDL
MODEL 7
REMARK VINA RESULT:      -5.3      2.225      6.622
REMARK  Name = 
REMARK  20 active torsions:
REMARK  status: ('A' for Active; 'I' for Inactive)
REMARK    1  A    between atoms: C_1  and  O_2
REMARK    2  A    between atoms: O_2  and  C_3
REMARK    3  A    between atoms: C_3  and  C_4
REMARK    4  A    between atoms: C_4  and  N_5
REMARK    5  A    between atoms: N_5  and  C_6
REMARK    6  A    between atoms: N_5  and  S_10
REMARK    7  A    between atoms: C_6  and  C_7
REMARK    8  A    between atoms: C_7  and  O_8
REMARK    9  A    between atoms: O_8  and  C_9
REMARK   10  A    between atoms: S_10  and  N_13
REMARK   11  A    between atoms: N_13  and  C_14
REMARK   12  A    between atoms: N_13  and  C_22
REMARK   13  A    between atoms: C_14  and  C_15
REMARK   14  A    between atoms: C_15  and  O_16
REMARK   15  A    between atoms: C_15  and  C_17
REMARK   16  A    between atoms: C_17  and  C_18
REMARK   17  A    between atoms: C_18  and  C_19
REMARK   18  A    between atoms: C_18  and  C_20
REMARK   19  A    between atoms: C_18  and  C_21
REMARK   20  A    between atoms: N_25  and  C_26
REMARK                            x       y       z     vdW  Elec       q    Type
REMARK                         _______ _______ _______ _____ _____    ______ ____
ROOT
ATOM      1  N   UNL     1       5.840   4.883  17.011  0.00  0.00    +0.000 NA
ENDROOT
BRANCH   1   2
ATOM      2  C   UNL     1       6.463   6.105  17.660  0.00  0.00    +0.000 C 
ATOM      3  C   UNL     1       6.433   7.373  16.819  0.00  0.00    +0.000 C 
ATOM      4  C   UNL     1       6.956   8.563  17.623  0.00  0.00    +0.000 C 
ATOM      5  N   UNL     1       8.304   8.294  18.121  0.00  0.00    +0.000 NA
ATOM      6  C   UNL     1       8.848   9.468  18.801  0.00  0.00    +0.000 C 
ATOM      7  C   UNL     1       8.321   7.122  19.010  0.00  0.00    +0.000 C 
ATOM      8  C   UNL     1       7.843   5.873  18.272  0.00  0.00    +0.000 C 
ENDBRANCH   1   2
BRANCH   1   9
ATOM      9  S   UNL     1       4.677   3.947  17.841  0.00  0.00    +0.000 S 
ATOM     10  O   UNL     1       5.163   3.757  19.185  0.00  0.00    +0.000 OA
ATOM     11  O   UNL     1       4.415   2.783  17.016  0.00  0.00    +0.000 OA
BRANCH   9  12
ATOM     12  N   UNL     1       3.231   4.817  17.973  0.00  0.00    +0.000 NA
BRANCH  12  13
ATOM     13  C   UNL     1       2.018   3.908  17.965  0.00  0.00    +0.000 C 
BRANCH  13  14
ATOM     14  C   UNL     1       2.134   2.593  18.756  0.00  0.00    +0.000 C 
BRANCH  14  16
ATOM     15  C   UNL     1       1.007   3.483  20.659  0.00  0.00    +0.000 C 
ATOM     16  O   UNL     1       2.122   2.744  20.175  0.00  0.00    +0.000 OA
ENDBRANCH  14  16
ENDBRANCH  13  14
ENDBRANCH  12  13
BRANCH  12  17
ATOM     17  C   UNL     1       3.142   5.929  18.978  0.00  0.00    +0.000 C 
BRANCH  17  18
ATOM     18  C   UNL     1       2.432   7.213  18.547  0.00  0.00    +0.000 C 
BRANCH  18  19
ATOM     19  O   UNL     1       2.163   7.971  19.736  0.00  0.00    +0.000 OA
ATOM     20  C   UNL     1       1.508   7.212  20.744  0.00  0.00    +0.000 C 
ENDBRANCH  18  19
ENDBRANCH  17  18
ENDBRANCH  12  17
ENDBRANCH   9  12
ENDBRANCH   1   9
BRANCH   1  21
ATOM     21  C   UNL     1       5.337   5.215  15.564  0.00  0.00    +0.000 C 
BRANCH  21  22
ATOM     22  C   UNL     1       6.294   4.686  14.454  0.00  0.00    +0.000 C 
BRANCH  22  23
ATOM     23  O   UNL     1       7.619   4.674  14.982  0.00  0.00    +0.000 OA
ATOM     24  H   UNL     1       7.555   4.591  15.948  0.00  0.00    +0.000 HD
ENDBRANCH  22  23
BRANCH  22  25
ATOM     25  C   UNL     1       5.965   3.306  13.822  0.00  0.00    +0.000 C 
BRANCH  25  26
ATOM     26  C   UNL     1       5.970   3.271  12.240  0.00  0.00    +0.000 C 
ATOM     27  C   UNL     1       6.301   1.870  11.694  0.00  0.00    +0.000 C 
ATOM     28  C   UNL     1       4.574   3.649  11.695  0.00  0.00    +0.000 C 
ATOM     29  C   UNL     1       6.973   4.282  11.645  0.00  0.00    +0.000 C 
ENDBRANCH  25  26
ENDBRANCH  22  25
ENDBRANCH  21  22
ENDBRANCH   1  21
TORSDOF 14
ENDMDL
MODEL 8
REMARK VINA RESULT:      -5.2      2.107      6.635
REMARK  Name = 
REMARK  20 active torsions:
REMARK  status: ('A' for Active; 'I' for Inactive)
REMARK    1  A    between atoms: C_1  and  O_2
REMARK    2  A    between atoms: O_2  and  C_3
REMARK    3  A    between atoms: C_3  and  C_4
REMARK    4  A    between atoms: C_4  and  N_5
REMARK    5  A    between atoms: N_5  and  C_6
REMARK    6  A    between atoms: N_5  and  S_10
REMARK    7  A    between atoms: C_6  and  C_7
REMARK    8  A    between atoms: C_7  and  O_8
REMARK    9  A    between atoms: O_8  and  C_9
REMARK   10  A    between atoms: S_10  and  N_13
REMARK   11  A    between atoms: N_13  and  C_14
REMARK   12  A    between atoms: N_13  and  C_22
REMARK   13  A    between atoms: C_14  and  C_15
REMARK   14  A    between atoms: C_15  and  O_16
REMARK   15  A    between atoms: C_15  and  C_17
REMARK   16  A    between atoms: C_17  and  C_18
REMARK   17  A    between atoms: C_18  and  C_19
REMARK   18  A    between atoms: C_18  and  C_20
REMARK   19  A    between atoms: C_18  and  C_21
REMARK   20  A    between atoms: N_25  and  C_26
REMARK                            x       y       z     vdW  Elec       q    Type
REMARK                         _______ _______ _______ _____ _____    ______ ____
ROOT
ATOM      1  N   UNL     1       5.782   4.883  17.178  0.00  0.00    +0.000 NA
ENDROOT
BRANCH   1   2
ATOM      2  C   UNL     1       6.439   6.115  17.774  0.00  0.00    +0.000 C 
ATOM      3  C   UNL     1       6.474   7.335  16.865  0.00  0.00    +0.000 C 
ATOM      4  C   UNL     1       7.027   8.546  17.615  0.00  0.00    +0.000 C 
ATOM      5  N   UNL     1       8.354   8.254  18.155  0.00  0.00    +0.000 NA
ATOM      6  C   UNL     1       8.930   9.443  18.783  0.00  0.00    +0.000 C 
ATOM      7  C   UNL     1       8.308   7.134  19.106  0.00  0.00    +0.000 C 
ATOM      8  C   UNL     1       7.797   5.864  18.427  0.00  0.00    +0.000 C 
ENDBRANCH   1   2
BRANCH   1   9
ATOM      9  S   UNL     1       4.615   4.000  18.060  0.00  0.00    +0.000 S 
ATOM     10  O   UNL     1       5.289   3.415  19.192  0.00  0.00    +0.000 OA
ATOM     11  O   UNL     1       3.950   3.128  17.109  0.00  0.00    +0.000 OA
BRANCH   9  12
ATOM     12  N   UNL     1       3.451   5.057  18.687  0.00  0.00    +0.000 NA
BRANCH  12  13
ATOM     13  C   UNL     1       3.109   4.735  20.127  0.00  0.00    +0.000 C 
BRANCH  13  14
ATOM     14  C   UNL     1       1.968   3.730  20.360  0.00  0.00    +0.000 C 
BRANCH  14  16
ATOM     15  C   UNL     1       0.893   2.338  18.751  0.00  0.00    +0.000 C 
ATOM     16  O   UNL     1       1.018   3.644  19.299  0.00  0.00    +0.000 OA
ENDBRANCH  14  16
ENDBRANCH  13  14
ENDBRANCH  12  13
BRANCH  12  17
ATOM     17  C   UNL     1       3.586   6.528  18.416  0.00  0.00    +0.000 C 
BRANCH  17  18
ATOM     18  C   UNL     1       2.344   7.269  17.921  0.00  0.00    +0.000 C 
BRANCH  18  19
ATOM     19  O   UNL     1       2.224   8.468  18.704  0.00  0.00    +0.000 OA
ATOM     20  C   UNL     1       1.807   9.591  17.940  0.00  0.00    +0.000 C 
ENDBRANCH  18  19
ENDBRANCH  17  18
ENDBRANCH  12  17
ENDBRANCH   9  12
ENDBRANCH   1   9
BRANCH   1  21
ATOM     21  C   UNL     1       5.261   5.174  15.729  0.00  0.00    +0.000 C 
BRANCH  21  22
ATOM     22  C   UNL     1       6.243   4.681  14.623  0.00  0.00    +0.000 C 
BRANCH  22  23
ATOM     23  O   UNL     1       7.558   4.666  15.174  0.00  0.00    +0.000 OA
ATOM     24  H   UNL     1       8.021   3.888  14.819  0.00  0.00    +0.000 HD
ENDBRANCH  22  23
BRANCH  22  25
ATOM     25  C   UNL     1       5.935   3.316  13.949  0.00  0.00    +0.000 C 
BRANCH  25  26
ATOM     26  C   UNL     1       5.969   3.323  12.367  0.00  0.00    +0.000 C 
ATOM     27  C   UNL     1       4.615   3.734  11.762  0.00  0.00    +0.000 C 
ATOM     28  C   UNL     1       7.016   4.343  11.862  0.00  0.00    +0.000 C 
ATOM     29  C   UNL     1       6.369   1.948  11.793  0.00  0.00    +0.000 C 
ENDBRANCH  25  26
ENDBRANCH  22  25
ENDBRANCH  21  22
ENDBRANCH   1  21
TORSDOF 14
ENDMDL
MODEL 9
REMARK VINA RESULT:      -5.0      5.562     10.366
REMARK  Name = 
REMARK  20 active torsions:
REMARK  status: ('A' for Active; 'I' for Inactive)
REMARK    1  A    between atoms: C_1  and  O_2
REMARK    2  A    between atoms: O_2  and  C_3
REMARK    3  A    between atoms: C_3  and  C_4
REMARK    4  A    between atoms: C_4  and  N_5
REMARK    5  A    between atoms: N_5  and  C_6
REMARK    6  A    between atoms: N_5  and  S_10
REMARK    7  A    between atoms: C_6  and  C_7
REMARK    8  A    between atoms: C_7  and  O_8
REMARK    9  A    between atoms: O_8  and  C_9
REMARK   10  A    between atoms: S_10  and  N_13
REMARK   11  A    between atoms: N_13  and  C_14
REMARK   12  A    between atoms: N_13  and  C_22
REMARK   13  A    between atoms: C_14  and  C_15
REMARK   14  A    between atoms: C_15  and  O_16
REMARK   15  A    between atoms: C_15  and  C_17
REMARK   16  A    between atoms: C_17  and  C_18
REMARK   17  A    between atoms: C_18  and  C_19
REMARK   18  A    between atoms: C_18  and  C_20
REMARK   19  A    between atoms: C_18  and  C_21
REMARK   20  A    between atoms: N_25  and  C_26
REMARK                            x       y       z     vdW  Elec       q    Type
REMARK                         _______ _______ _______ _____ _____    ______ ____
ROOT
ATOM      1  N   UNL     1      -0.132  10.588  20.111  0.00  0.00    +0.000 NA
ENDROOT
BRANCH   1   2
ATOM      2  C   UNL     1       0.594   9.362  19.592  0.00  0.00    +0.000 C 
ATOM      3  C   UNL     1       1.309   8.535  20.651  0.00  0.00    +0.000 C 
ATOM      4  C   UNL     1       1.883   7.258  20.037  0.00  0.00    +0.000 C 
ATOM      5  N   UNL     1       2.779   7.579  18.927  0.00  0.00    +0.000 NA
ATOM      6  C   UNL     1       3.410   6.367  18.405  0.00  0.00    +0.000 C 
ATOM      7  C   UNL     1       2.068   8.298  17.859  0.00  0.00    +0.000 C 
ATOM      8  C   UNL     1       1.489   9.612  18.379  0.00  0.00    +0.000 C 
ENDBRANCH   1   2
BRANCH   1   9
ATOM      9  S   UNL     1       0.406  11.396  21.518  0.00  0.00    +0.000 S 
ATOM     10  O   UNL     1       1.732  11.890  21.244  0.00  0.00    +0.000 OA
ATOM     11  O   UNL     1       0.212  10.477  22.624  0.00  0.00    +0.000 OA
BRANCH   9  12
ATOM     12  N   UNL     1      -0.563  12.754  21.804  0.00  0.00    +0.000 NA
BRANCH  12  13
ATOM     13  C   UNL     1      -1.424  12.587  23.040  0.00  0.00    +0.000 C 
BRANCH  13  14
ATOM     14  C   UNL     1      -2.939  12.447  22.815  0.00  0.00    +0.000 C 
BRANCH  14  16
ATOM     15  C   UNL     1      -3.378  14.342  24.193  0.00  0.00    +0.000 C 
ATOM     16  O   UNL     1      -3.684  13.652  22.988  0.00  0.00    +0.000 OA
ENDBRANCH  14  16
ENDBRANCH  13  14
ENDBRANCH  12  13
BRANCH  12  17
ATOM     17  C   UNL     1       0.047  14.120  21.676  0.00  0.00    +0.000 C 
BRANCH  17  18
ATOM     18  C   UNL     1      -0.902  15.295  21.442  0.00  0.00    +0.000 C 
BRANCH  18  19
ATOM     19  O   UNL     1      -1.132  15.380  20.027  0.00  0.00    +0.000 OA
ATOM     20  C   UNL     1      -1.031  16.706  19.525  0.00  0.00    +0.000 C 
ENDBRANCH  18  19
ENDBRANCH  17  18
ENDBRANCH  12  17
ENDBRANCH   9  12
ENDBRANCH   1   9
BRANCH   1  21
ATOM     21  C   UNL     1      -0.383  11.619  18.958  0.00  0.00    +0.000 C 
BRANCH  21  22
ATOM     22  C   UNL     1      -1.891  11.757  18.588  0.00  0.00    +0.000 C 
BRANCH  22  23
ATOM     23  O   UNL     1      -2.378  12.969  19.161  0.00  0.00    +0.000 OA
ATOM     24  H   UNL     1      -3.194  13.213  18.692  0.00  0.00    +0.000 HD
ENDBRANCH  22  23
BRANCH  22  25
ATOM     25  C   UNL     1      -2.267  11.696  17.081  0.00  0.00    +0.000 C 
BRANCH  25  26
ATOM     26  C   UNL     1      -3.412  10.669  16.714  0.00  0.00    +0.000 C 
ATOM     27  C   UNL     1      -3.424   9.454  17.660  0.00  0.00    +0.000 C 
ATOM     28  C   UNL     1      -4.796  11.348  16.837  0.00  0.00    +0.000 C 
ATOM     29  C   UNL     1      -3.289  10.162  15.262  0.00  0.00    +0.000 C 
ENDBRANCH  25  26
ENDBRANCH  22  25
ENDBRANCH  21  22
ENDBRANCH   1  21
TORSDOF 14
ENDMDL
