MODEL 1
REMARK VINA RESULT:      -6.5      0.000      0.000
REMARK  Name = 
REMARK  10 active torsions:
REMARK  status: ('A' for Active; 'I' for Inactive)
REMARK    1  A    between atoms: C_1  and  C_2
REMARK    2  A    between atoms: C_2  and  S_3
REMARK    3  A    between atoms: S_3  and  C_4
REMARK    4  A    between atoms: C_4  and  S_6
REMARK    5  A    between atoms: S_6  and  C_7
REMARK    6  A    between atoms: C_7  and  C_8
REMARK    7  A    between atoms: C_8  and  C_10
REMARK    8  A    between atoms: C_13  and  C_14
REMARK    9  A    between atoms: N_16  and  C_17
REMARK   10  A    between atoms: C_17  and  C_18
REMARK                            x       y       z     vdW  Elec       q    Type
REMARK                         _______ _______ _______ _____ _____    ______ ____
ROOT
ATOM      1  C   UNL     1       2.817   5.205  19.539  0.00  0.00    +0.000 A 
ATOM      2  C   UNL     1       2.243   5.765  20.664  0.00  0.00    +0.000 A 
ATOM      3  C   UNL     1       1.792   7.106  20.451  0.00  0.00    +0.000 A 
ATOM      4  C   UNL     1       2.012   7.552  19.161  0.00  0.00    +0.000 A 
ATOM      5  S   UNL     1       2.778   6.322  18.232  0.00  0.00    +0.000 S 
ENDROOT
BRANCH   4   6
ATOM      6  C   UNL     1       1.695   8.832  18.524  0.00  0.00    +0.000 C 
ATOM      7  O   UNL     1       2.236   9.242  17.499  0.00  0.00    +0.000 OA
ATOM      8  N   UNL     1       0.711   9.579  19.150  0.00  0.00    +0.000 N 
ATOM      9  H   UNL     1       0.292   9.255  20.005  0.00  0.00    +0.000 HD
BRANCH   8  10
ATOM     10  C   UNL     1       0.254  10.855  18.638  0.00  0.00    +0.000 C 
BRANCH  10  11
ATOM     11  C   UNL     1      -1.196  10.786  18.231  0.00  0.00    +0.000 A 
ATOM     12  C   UNL     1      -1.608   9.869  17.254  0.00  0.00    +0.000 A 
ATOM     13  C   UNL     1      -2.945   9.807  16.856  0.00  0.00    +0.000 A 
ATOM     14  C   UNL     1      -3.883  10.666  17.425  0.00  0.00    +0.000 A 
ATOM     15  C   UNL     1      -3.486  11.584  18.396  0.00  0.00    +0.000 A 
ATOM     16  C   UNL     1      -2.150  11.646  18.797  0.00  0.00    +0.000 A 
ENDBRANCH  10  11
ENDBRANCH   8  10
ENDBRANCH   4   6
BRANCH   1  17
ATOM     17  C   UNL     1       3.406   3.872  19.330  0.00  0.00    +0.000 C 
ATOM     18  O   UNL     1       2.883   2.842  19.752  0.00  0.00    +0.000 OA
BRANCH  17  19
ATOM     19  C   UNL     1       4.767   3.830  18.620  0.00  0.00    +0.000 C 
BRANCH  19  20
ATOM     20  S   UNL     1       4.594   3.612  16.822  0.00  0.00    +0.000 S 
BRANCH  20  21
ATOM     21  C   UNL     1       6.059   4.348  16.170  0.00  0.00    +0.000 C 
ATOM     22  S   UNL     1       6.580   4.231  14.581  0.00  0.00    +0.000 S 
BRANCH  21  23
ATOM     23  S   UNL     1       7.048   5.084  17.438  0.00  0.00    +0.000 S 
BRANCH  23  25
ATOM     24  C   UNL     1       7.856   7.674  17.803  0.00  0.00    +0.000 C 
ATOM     25  C   UNL     1       6.760   6.853  17.141  0.00  0.00    +0.000 C 
ENDBRANCH  23  25
ENDBRANCH  21  23
ENDBRANCH  20  21
ENDBRANCH  19  20
ENDBRANCH  17  19
ENDBRANCH   1  17
TORSDOF 9
ENDMDL
MODEL 2
REMARK VINA RESULT:      -6.4      2.442      3.573
REMARK  Name = 
REMARK  10 active torsions:
REMARK  status: ('A' for Active; 'I' for Inactive)
REMARK    1  A    between atoms: C_1  and  C_2
REMARK    2  A    between atoms: C_2  and  S_3
REMARK    3  A    between atoms: S_3  and  C_4
REMARK    4  A    between atoms: C_4  and  S_6
REMARK    5  A    between atoms: S_6  and  C_7
REMARK    6  A    between atoms: C_7  and  C_8
REMARK    7  A    between atoms: C_8  and  C_10
REMARK    8  A    between atoms: C_13  and  C_14
REMARK    9  A    between atoms: N_16  and  C_17
REMARK   10  A    between atoms: C_17  and  C_18
REMARK                            x       y       z     vdW  Elec       q    Type
REMARK                         _______ _______ _______ _____ _____    ______ ____
ROOT
ATOM      1  C   UNL     1       2.893   6.692  19.291  0.00  0.00    +0.000 A 
ATOM      2  C   UNL     1       2.177   6.784  20.470  0.00  0.00    +0.000 A 
ATOM      3  C   UNL     1       1.382   7.970  20.548  0.00  0.00    +0.000 A 
ATOM      4  C   UNL     1       1.487   8.767  19.424  0.00  0.00    +0.000 A 
ATOM      5  S   UNL     1       2.568   8.051  18.291  0.00  0.00    +0.000 S 
ENDROOT
BRANCH   4   6
ATOM      6  C   UNL     1       0.843  10.039  19.087  0.00  0.00    +0.000 C 
ATOM      7  O   UNL     1       1.431  10.995  18.587  0.00  0.00    +0.000 OA
ATOM      8  N   UNL     1      -0.514  10.107  19.360  0.00  0.00    +0.000 N 
ATOM      9  H   UNL     1      -0.985   9.333  19.797  0.00  0.00    +0.000 HD
BRANCH   8  10
ATOM     10  C   UNL     1      -1.312  11.279  19.064  0.00  0.00    +0.000 C 
BRANCH  10  11
ATOM     11  C   UNL     1      -2.256  11.013  17.918  0.00  0.00    +0.000 A 
ATOM     12  C   UNL     1      -3.528  11.603  17.906  0.00  0.00    +0.000 A 
ATOM     13  C   UNL     1      -4.418  11.350  16.859  0.00  0.00    +0.000 A 
ATOM     14  C   UNL     1      -4.049  10.500  15.818  0.00  0.00    +0.000 A 
ATOM     15  C   UNL     1      -2.788   9.906  15.820  0.00  0.00    +0.000 A 
ATOM     16  C   UNL     1      -1.897  10.158  16.864  0.00  0.00    +0.000 A 
ENDBRANCH  10  11
ENDBRANCH   8  10
ENDBRANCH   4   6
BRANCH   1  17
ATOM     17  C   UNL     1       3.823   5.654  18.818  0.00  0.00    +0.000 C 
ATOM     18  O   UNL     1       4.862   5.372  19.414  0.00  0.00    +0.000 OA
BRANCH  17  19
ATOM     19  C   UNL     1       3.475   4.982  17.482  0.00  0.00    +0.000 C 
BRANCH  19  20
ATOM     20  S   UNL     1       1.860   4.145  17.538  0.00  0.00    +0.000 S 
BRANCH  20  21
ATOM     21  C   UNL     1       2.185   2.671  18.453  0.00  0.00    +0.000 C 
ATOM     22  S   UNL     1       3.538   1.697  18.276  0.00  0.00    +0.000 S 
BRANCH  21  23
ATOM     23  S   UNL     1       0.813   2.210  19.468  0.00  0.00    +0.000 S 
BRANCH  23  25
ATOM     24  C   UNL     1       2.437   3.094  21.488  0.00  0.00    +0.000 C 
ATOM     25  C   UNL     1       1.046   3.295  20.906  0.00  0.00    +0.000 C 
ENDBRANCH  23  25
ENDBRANCH  21  23
ENDBRANCH  20  21
ENDBRANCH  19  20
ENDBRANCH  17  19
ENDBRANCH   1  17
TORSDOF 9
ENDMDL
MODEL 3
REMARK VINA RESULT:      -6.4      5.286     10.096
REMARK  Name = 
REMARK  10 active torsions:
REMARK  status: ('A' for Active; 'I' for Inactive)
REMARK    1  A    between atoms: C_1  and  C_2
REMARK    2  A    between atoms: C_2  and  S_3
REMARK    3  A    between atoms: S_3  and  C_4
REMARK    4  A    between atoms: C_4  and  S_6
REMARK    5  A    between atoms: S_6  and  C_7
REMARK    6  A    between atoms: C_7  and  C_8
REMARK    7  A    between atoms: C_8  and  C_10
REMARK    8  A    between atoms: C_13  and  C_14
REMARK    9  A    between atoms: N_16  and  C_17
REMARK   10  A    between atoms: C_17  and  C_18
REMARK                            x       y       z     vdW  Elec       q    Type
REMARK                         _______ _______ _______ _____ _____    ______ ____
ROOT
ATOM      1  C   UNL     1      -0.395  11.125  21.179  0.00  0.00    +0.000 A 
ATOM      2  C   UNL     1      -0.597  11.659  19.921  0.00  0.00    +0.000 A 
ATOM      3  C   UNL     1       0.113  10.956  18.897  0.00  0.00    +0.000 A 
ATOM      4  C   UNL     1       0.838   9.883  19.381  0.00  0.00    +0.000 A 
ATOM      5  S   UNL     1       0.644   9.759  21.087  0.00  0.00    +0.000 S 
ENDROOT
BRANCH   4   6
ATOM      6  C   UNL     1       1.678   8.904  18.686  0.00  0.00    +0.000 C 
ATOM      7  O   UNL     1       2.092   9.047  17.538  0.00  0.00    +0.000 OA
ATOM      8  N   UNL     1       2.004   7.776  19.421  0.00  0.00    +0.000 N 
ATOM      9  H   UNL     1       1.638   7.649  20.349  0.00  0.00    +0.000 HD
BRANCH   8  10
ATOM     10  C   UNL     1       2.850   6.722  18.899  0.00  0.00    +0.000 C 
BRANCH  10  11
ATOM     11  C   UNL     1       2.210   5.370  19.095  0.00  0.00    +0.000 A 
ATOM     12  C   UNL     1       2.063   4.499  18.006  0.00  0.00    +0.000 A 
ATOM     13  C   UNL     1       1.457   3.251  18.171  0.00  0.00    +0.000 A 
ATOM     14  C   UNL     1       0.985   2.865  19.424  0.00  0.00    +0.000 A 
ATOM     15  C   UNL     1       1.124   3.723  20.514  0.00  0.00    +0.000 A 
ATOM     16  C   UNL     1       1.730   4.969  20.351  0.00  0.00    +0.000 A 
ENDBRANCH  10  11
ENDBRANCH   8  10
ENDBRANCH   4   6
BRANCH   1  17
ATOM     17  C   UNL     1      -0.924  11.541  22.489  0.00  0.00    +0.000 C 
ATOM     18  O   UNL     1      -0.805  10.854  23.501  0.00  0.00    +0.000 OA
BRANCH  17  19
ATOM     19  C   UNL     1      -1.713  12.858  22.520  0.00  0.00    +0.000 C 
BRANCH  19  20
ATOM     20  S   UNL     1      -3.489  12.584  22.809  0.00  0.00    +0.000 S 
BRANCH  20  21
ATOM     21  C   UNL     1      -3.982  13.994  23.748  0.00  0.00    +0.000 C 
ATOM     22  S   UNL     1      -3.021  14.807  24.855  0.00  0.00    +0.000 S 
BRANCH  21  23
ATOM     23  S   UNL     1      -5.699  14.359  23.538  0.00  0.00    +0.000 S 
BRANCH  23  25
ATOM     24  C   UNL     1      -7.482  12.360  22.971  0.00  0.00    +0.000 C 
ATOM     25  C   UNL     1      -6.465  12.784  24.019  0.00  0.00    +0.000 C 
ENDBRANCH  23  25
ENDBRANCH  21  23
ENDBRANCH  20  21
ENDBRANCH  19  20
ENDBRANCH  17  19
ENDBRANCH   1  17
TORSDOF 9
ENDMDL
MODEL 4
REMARK VINA RESULT:      -6.3      3.937      8.276
REMARK  Name = 
REMARK  10 active torsions:
REMARK  status: ('A' for Active; 'I' for Inactive)
REMARK    1  A    between atoms: C_1  and  C_2
REMARK    2  A    between atoms: C_2  and  S_3
REMARK    3  A    between atoms: S_3  and  C_4
REMARK    4  A    between atoms: C_4  and  S_6
REMARK    5  A    between atoms: S_6  and  C_7
REMARK    6  A    between atoms: C_7  and  C_8
REMARK    7  A    between atoms: C_8  and  C_10
REMARK    8  A    between atoms: C_13  and  C_14
REMARK    9  A    between atoms: N_16  and  C_17
REMARK   10  A    between atoms: C_17  and  C_18
REMARK                            x       y       z     vdW  Elec       q    Type
REMARK                         _______ _______ _______ _____ _____    ______ ____
ROOT
ATOM      1  C   UNL     1       4.927   3.663  18.933  0.00  0.00    +0.000 A 
ATOM      2  C   UNL     1       5.478   4.880  19.291  0.00  0.00    +0.000 A 
ATOM      3  C   UNL     1       5.881   5.662  18.163  0.00  0.00    +0.000 A 
ATOM      4  C   UNL     1       5.621   5.043  16.955  0.00  0.00    +0.000 A 
ATOM      5  S   UNL     1       4.894   3.506  17.222  0.00  0.00    +0.000 S 
ENDROOT
BRANCH   4   6
ATOM      6  C   UNL     1       5.854   5.491  15.579  0.00  0.00    +0.000 C 
ATOM      7  O   UNL     1       5.505   6.587  15.146  0.00  0.00    +0.000 OA
ATOM      8  N   UNL     1       6.522   4.589  14.768  0.00  0.00    +0.000 N 
ATOM      9  H   UNL     1       6.779   3.682  15.117  0.00  0.00    +0.000 HD
BRANCH   8  10
ATOM     10  C   UNL     1       6.860   4.881  13.389  0.00  0.00    +0.000 C 
BRANCH  10  11
ATOM     11  C   UNL     1       6.547   3.707  12.497  0.00  0.00    +0.000 A 
ATOM     12  C   UNL     1       7.587   2.994  11.884  0.00  0.00    +0.000 A 
ATOM     13  C   UNL     1       7.309   1.916  11.041  0.00  0.00    +0.000 A 
ATOM     14  C   UNL     1       5.988   1.543  10.796  0.00  0.00    +0.000 A 
ATOM     15  C   UNL     1       4.945   2.245  11.399  0.00  0.00    +0.000 A 
ATOM     16  C   UNL     1       5.221   3.322  12.242  0.00  0.00    +0.000 A 
ENDBRANCH  10  11
ENDBRANCH   8  10
ENDBRANCH   4   6
BRANCH   1  17
ATOM     17  C   UNL     1       4.399   2.573  19.769  0.00  0.00    +0.000 C 
ATOM     18  O   UNL     1       4.934   2.223  20.820  0.00  0.00    +0.000 OA
BRANCH  17  19
ATOM     19  C   UNL     1       3.175   1.824  19.221  0.00  0.00    +0.000 C 
BRANCH  19  20
ATOM     20  S   UNL     1       1.618   2.459  19.916  0.00  0.00    +0.000 S 
BRANCH  20  21
ATOM     21  C   UNL     1       1.574   4.139  19.379  0.00  0.00    +0.000 C 
ATOM     22  S   UNL     1       1.441   4.646  17.787  0.00  0.00    +0.000 S 
BRANCH  21  23
ATOM     23  S   UNL     1       1.885   5.263  20.708  0.00  0.00    +0.000 S 
BRANCH  23  25
ATOM     24  C   UNL     1       1.615   7.978  20.472  0.00  0.00    +0.000 C 
ATOM     25  C   UNL     1       2.288   6.788  19.806  0.00  0.00    +0.000 C 
ENDBRANCH  23  25
ENDBRANCH  21  23
ENDBRANCH  20  21
ENDBRANCH  19  20
ENDBRANCH  17  19
ENDBRANCH   1  17
TORSDOF 9
ENDMDL
MODEL 5
REMARK VINA RESULT:      -6.3      5.226      9.941
REMARK  Name = 
REMARK  10 active torsions:
REMARK  status: ('A' for Active; 'I' for Inactive)
REMARK    1  A    between atoms: C_1  and  C_2
REMARK    2  A    between atoms: C_2  and  S_3
REMARK    3  A    between atoms: S_3  and  C_4
REMARK    4  A    between atoms: C_4  and  S_6
REMARK    5  A    between atoms: S_6  and  C_7
REMARK    6  A    between atoms: C_7  and  C_8
REMARK    7  A    between atoms: C_8  and  C_10
REMARK    8  A    between atoms: C_13  and  C_14
REMARK    9  A    between atoms: N_16  and  C_17
REMARK   10  A    between atoms: C_17  and  C_18
REMARK                            x       y       z     vdW  Elec       q    Type
REMARK                         _______ _______ _______ _____ _____    ______ ____
ROOT
ATOM      1  C   UNL     1      -0.043  11.024  21.260  0.00  0.00    +0.000 A 
ATOM      2  C   UNL     1       0.176  11.845  20.170  0.00  0.00    +0.000 A 
ATOM      3  C   UNL     1       0.860  11.182  19.103  0.00  0.00    +0.000 A 
ATOM      4  C   UNL     1       1.143   9.858  19.381  0.00  0.00    +0.000 A 
ATOM      5  S   UNL     1       0.573   9.450  20.954  0.00  0.00    +0.000 S 
ENDROOT
BRANCH   4   6
ATOM      6  C   UNL     1       1.805   8.830  18.574  0.00  0.00    +0.000 C 
ATOM      7  O   UNL     1       2.077   8.962  17.383  0.00  0.00    +0.000 OA
ATOM      8  N   UNL     1       2.130   7.665  19.249  0.00  0.00    +0.000 N 
ATOM      9  H   UNL     1       1.879   7.549  20.216  0.00  0.00    +0.000 HD
BRANCH   8  10
ATOM     10  C   UNL     1       2.814   6.558  18.612  0.00  0.00    +0.000 C 
BRANCH  10  11
ATOM     11  C   UNL     1       2.162   5.245  18.966  0.00  0.00    +0.000 A 
ATOM     12  C   UNL     1       1.943   4.279  17.974  0.00  0.00    +0.000 A 
ATOM     13  C   UNL     1       1.324   3.067  18.287  0.00  0.00    +0.000 A 
ATOM     14  C   UNL     1       0.911   2.810  19.593  0.00  0.00    +0.000 A 
ATOM     15  C   UNL     1       1.122   3.763  20.588  0.00  0.00    +0.000 A 
ATOM     16  C   UNL     1       1.741   4.975  20.278  0.00  0.00    +0.000 A 
ENDBRANCH  10  11
ENDBRANCH   8  10
ENDBRANCH   4   6
BRANCH   1  17
ATOM     17  C   UNL     1      -0.696  11.305  22.549  0.00  0.00    +0.000 C 
ATOM     18  O   UNL     1      -0.762  10.475  23.455  0.00  0.00    +0.000 OA
BRANCH  17  19
ATOM     19  C   UNL     1      -1.373  12.676  22.689  0.00  0.00    +0.000 C 
BRANCH  19  20
ATOM     20  S   UNL     1      -2.965  12.746  21.809  0.00  0.00    +0.000 S 
BRANCH  20  21
ATOM     21  C   UNL     1      -4.082  13.383  23.017  0.00  0.00    +0.000 C 
ATOM     22  S   UNL     1      -4.509  12.617  24.445  0.00  0.00    +0.000 S 
BRANCH  21  23
ATOM     23  S   UNL     1      -4.874  14.865  22.465  0.00  0.00    +0.000 S 
BRANCH  23  25
ATOM     24  C   UNL     1      -4.949  16.602  24.580  0.00  0.00    +0.000 C 
ATOM     25  C   UNL     1      -5.700  15.422  23.984  0.00  0.00    +0.000 C 
ENDBRANCH  23  25
ENDBRANCH  21  23
ENDBRANCH  20  21
ENDBRANCH  19  20
ENDBRANCH  17  19
ENDBRANCH   1  17
TORSDOF 9
ENDMDL
MODEL 6
REMARK VINA RESULT:      -6.2      3.514      9.083
REMARK  Name = 
REMARK  10 active torsions:
REMARK  status: ('A' for Active; 'I' for Inactive)
REMARK    1  A    between atoms: C_1  and  C_2
REMARK    2  A    between atoms: C_2  and  S_3
REMARK    3  A    between atoms: S_3  and  C_4
REMARK    4  A    between atoms: C_4  and  S_6
REMARK    5  A    between atoms: S_6  and  C_7
REMARK    6  A    between atoms: C_7  and  C_8
REMARK    7  A    between atoms: C_8  and  C_10
REMARK    8  A    between atoms: C_13  and  C_14
REMARK    9  A    between atoms: N_16  and  C_17
REMARK   10  A    between atoms: C_17  and  C_18
REMARK                            x       y       z     vdW  Elec       q    Type
REMARK                         _______ _______ _______ _____ _____    ______ ____
ROOT
ATOM      1  C   UNL     1       1.024  10.060  19.723  0.00  0.00    +0.000 A 
ATOM      2  C   UNL     1       1.373   9.953  18.390  0.00  0.00    +0.000 A 
ATOM      3  C   UNL     1       1.934   8.678  18.062  0.00  0.00    +0.000 A 
ATOM      4  C   UNL     1       1.995   7.820  19.143  0.00  0.00    +0.000 A 
ATOM      5  S   UNL     1       1.370   8.593  20.549  0.00  0.00    +0.000 S 
ENDROOT
BRANCH   4   6
ATOM      6  C   UNL     1       2.475   6.439  19.244  0.00  0.00    +0.000 C 
ATOM      7  O   UNL     1       2.432   5.771  20.275  0.00  0.00    +0.000 OA
ATOM      8  N   UNL     1       2.987   5.902  18.075  0.00  0.00    +0.000 N 
ATOM      9  H   UNL     1       3.048   6.462  17.241  0.00  0.00    +0.000 HD
BRANCH   8  10
ATOM     10  C   UNL     1       3.478   4.542  17.989  0.00  0.00    +0.000 C 
BRANCH  10  11
ATOM     11  C   UNL     1       4.842   4.500  17.348  0.00  0.00    +0.000 A 
ATOM     12  C   UNL     1       4.966   4.236  15.977  0.00  0.00    +0.000 A 
ATOM     13  C   UNL     1       6.225   4.177  15.376  0.00  0.00    +0.000 A 
ATOM     14  C   UNL     1       7.374   4.375  16.140  0.00  0.00    +0.000 A 
ATOM     15  C   UNL     1       7.264   4.636  17.505  0.00  0.00    +0.000 A 
ATOM     16  C   UNL     1       6.006   4.697  18.107  0.00  0.00    +0.000 A 
ENDBRANCH  10  11
ENDBRANCH   8  10
ENDBRANCH   4   6
BRANCH   1  17
ATOM     17  C   UNL     1       0.430  11.183  20.467  0.00  0.00    +0.000 C 
ATOM     18  O   UNL     1       0.556  11.314  21.683  0.00  0.00    +0.000 OA
BRANCH  17  19
ATOM     19  C   UNL     1      -0.435  12.158  19.656  0.00  0.00    +0.000 C 
BRANCH  19  20
ATOM     20  S   UNL     1      -2.164  12.174  20.223  0.00  0.00    +0.000 S 
BRANCH  20  21
ATOM     21  C   UNL     1      -3.088  11.858  18.754  0.00  0.00    +0.000 C 
ATOM     22  S   UNL     1      -4.758  11.750  18.662  0.00  0.00    +0.000 S 
BRANCH  21  23
ATOM     23  S   UNL     1      -2.038  11.468  17.386  0.00  0.00    +0.000 S 
BRANCH  23  25
ATOM     24  C   UNL     1      -3.029   9.785  15.467  0.00  0.00    +0.000 C 
ATOM     25  C   UNL     1      -3.254  11.162  16.071  0.00  0.00    +0.000 C 
ENDBRANCH  23  25
ENDBRANCH  21  23
ENDBRANCH  20  21
ENDBRANCH  19  20
ENDBRANCH  17  19
ENDBRANCH   1  17
TORSDOF 9
ENDMDL
MODEL 7
REMARK VINA RESULT:      -6.2      4.861      9.730
REMARK  Name = 
REMARK  10 active torsions:
REMARK  status: ('A' for Active; 'I' for Inactive)
REMARK    1  A    between atoms: C_1  and  C_2
REMARK    2  A    between atoms: C_2  and  S_3
REMARK    3  A    between atoms: S_3  and  C_4
REMARK    4  A    between atoms: C_4  and  S_6
REMARK    5  A    between atoms: S_6  and  C_7
REMARK    6  A    between atoms: C_7  and  C_8
REMARK    7  A    between atoms: C_8  and  C_10
REMARK    8  A    between atoms: C_13  and  C_14
REMARK    9  A    between atoms: N_16  and  C_17
REMARK   10  A    between atoms: C_17  and  C_18
REMARK                            x       y       z     vdW  Elec       q    Type
REMARK                         _______ _______ _______ _____ _____    ______ ____
ROOT
ATOM      1  C   UNL     1      -0.046  11.122  21.263  0.00  0.00    +0.000 A 
ATOM      2  C   UNL     1       0.255  11.979  20.221  0.00  0.00    +0.000 A 
ATOM      3  C   UNL     1       0.938  11.330  19.145  0.00  0.00    +0.000 A 
ATOM      4  C   UNL     1       1.140   9.981  19.369  0.00  0.00    +0.000 A 
ATOM      5  S   UNL     1       0.496   9.532  20.900  0.00  0.00    +0.000 S 
ENDROOT
BRANCH   4   6
ATOM      6  C   UNL     1       1.774   8.956  18.534  0.00  0.00    +0.000 C 
ATOM      7  O   UNL     1       2.037   9.107  17.343  0.00  0.00    +0.000 OA
ATOM      8  N   UNL     1       2.083   7.772  19.182  0.00  0.00    +0.000 N 
ATOM      9  H   UNL     1       1.839   7.642  20.149  0.00  0.00    +0.000 HD
BRANCH   8  10
ATOM     10  C   UNL     1       2.738   6.665  18.516  0.00  0.00    +0.000 C 
BRANCH  10  11
ATOM     11  C   UNL     1       2.113   5.351  18.911  0.00  0.00    +0.000 A 
ATOM     12  C   UNL     1       1.803   5.097  20.255  0.00  0.00    +0.000 A 
ATOM     13  C   UNL     1       1.240   3.877  20.636  0.00  0.00    +0.000 A 
ATOM     14  C   UNL     1       0.987   2.895  19.679  0.00  0.00    +0.000 A 
ATOM     15  C   UNL     1       1.292   3.135  18.340  0.00  0.00    +0.000 A 
ATOM     16  C   UNL     1       1.854   4.354  17.957  0.00  0.00    +0.000 A 
ENDBRANCH  10  11
ENDBRANCH   8  10
ENDBRANCH   4   6
BRANCH   1  17
ATOM     17  C   UNL     1      -0.727  11.378  22.543  0.00  0.00    +0.000 C 
ATOM     18  O   UNL     1      -0.781  10.542  23.444  0.00  0.00    +0.000 OA
BRANCH  17  19
ATOM     19  C   UNL     1      -1.447  12.727  22.676  0.00  0.00    +0.000 C 
BRANCH  19  20
ATOM     20  S   UNL     1      -3.041  12.742  21.799  0.00  0.00    +0.000 S 
BRANCH  20  21
ATOM     21  C   UNL     1      -4.203  13.181  23.053  0.00  0.00    +0.000 C 
ATOM     22  S   UNL     1      -4.285  12.500  24.583  0.00  0.00    +0.000 S 
BRANCH  21  23
ATOM     23  S   UNL     1      -5.427  14.306  22.451  0.00  0.00    +0.000 S 
BRANCH  23  25
ATOM     24  C   UNL     1      -5.993  14.240  19.773  0.00  0.00    +0.000 C 
ATOM     25  C   UNL     1      -4.869  14.570  20.743  0.00  0.00    +0.000 C 
ENDBRANCH  23  25
ENDBRANCH  21  23
ENDBRANCH  20  21
ENDBRANCH  19  20
ENDBRANCH  17  19
ENDBRANCH   1  17
TORSDOF 9
ENDMDL
MODEL 8
REMARK VINA RESULT:      -6.2      3.646      5.368
REMARK  Name = 
REMARK  10 active torsions:
REMARK  status: ('A' for Active; 'I' for Inactive)
REMARK    1  A    between atoms: C_1  and  C_2
REMARK    2  A    between atoms: C_2  and  S_3
REMARK    3  A    between atoms: S_3  and  C_4
REMARK    4  A    between atoms: C_4  and  S_6
REMARK    5  A    between atoms: S_6  and  C_7
REMARK    6  A    between atoms: C_7  and  C_8
REMARK    7  A    between atoms: C_8  and  C_10
REMARK    8  A    between atoms: C_13  and  C_14
REMARK    9  A    between atoms: N_16  and  C_17
REMARK   10  A    between atoms: C_17  and  C_18
REMARK                            x       y       z     vdW  Elec       q    Type
REMARK                         _______ _______ _______ _____ _____    ______ ____
ROOT
ATOM      1  C   UNL     1       1.356   8.852  19.491  0.00  0.00    +0.000 A 
ATOM      2  C   UNL     1       0.636   9.894  18.937  0.00  0.00    +0.000 A 
ATOM      3  C   UNL     1      -0.103  10.639  19.909  0.00  0.00    +0.000 A 
ATOM      4  C   UNL     1       0.070  10.168  21.197  0.00  0.00    +0.000 A 
ATOM      5  S   UNL     1       1.131   8.813  21.195  0.00  0.00    +0.000 S 
ENDROOT
BRANCH   4   6
ATOM      6  C   UNL     1      -0.480  10.640  22.471  0.00  0.00    +0.000 C 
ATOM      7  O   UNL     1      -0.116  10.228  23.570  0.00  0.00    +0.000 OA
ATOM      8  N   UNL     1      -1.456  11.617  22.370  0.00  0.00    +0.000 N 
ATOM      9  H   UNL     1      -1.772  11.931  21.468  0.00  0.00    +0.000 HD
BRANCH   8  10
ATOM     10  C   UNL     1      -2.085  12.216  23.529  0.00  0.00    +0.000 C 
BRANCH  10  11
ATOM     11  C   UNL     1      -3.543  12.499  23.267  0.00  0.00    +0.000 A 
ATOM     12  C   UNL     1      -4.454  12.537  24.331  0.00  0.00    +0.000 A 
ATOM     13  C   UNL     1      -5.809  12.781  24.099  0.00  0.00    +0.000 A 
ATOM     14  C   UNL     1      -6.269  12.982  22.799  0.00  0.00    +0.000 A 
ATOM     15  C   UNL     1      -5.374  12.945  21.731  0.00  0.00    +0.000 A 
ATOM     16  C   UNL     1      -4.019  12.703  21.962  0.00  0.00    +0.000 A 
ENDBRANCH  10  11
ENDBRANCH   8  10
ENDBRANCH   4   6
BRANCH   1  17
ATOM     17  C   UNL     1       2.231   7.852  18.856  0.00  0.00    +0.000 C 
ATOM     18  O   UNL     1       2.751   8.030  17.756  0.00  0.00    +0.000 OA
BRANCH  17  19
ATOM     19  C   UNL     1       2.405   6.523  19.604  0.00  0.00    +0.000 C 
BRANCH  19  20
ATOM     20  S   UNL     1       2.541   5.110  18.466  0.00  0.00    +0.000 S 
BRANCH  20  21
ATOM     21  C   UNL     1       3.984   4.262  19.024  0.00  0.00    +0.000 C 
ATOM     22  S   UNL     1       5.534   4.899  19.057  0.00  0.00    +0.000 S 
BRANCH  21  23
ATOM     23  S   UNL     1       3.653   2.560  19.375  0.00  0.00    +0.000 S 
BRANCH  23  25
ATOM     24  C   UNL     1       2.023   2.842  21.557  0.00  0.00    +0.000 C 
ATOM     25  C   UNL     1       1.969   2.651  20.050  0.00  0.00    +0.000 C 
ENDBRANCH  23  25
ENDBRANCH  21  23
ENDBRANCH  20  21
ENDBRANCH  19  20
ENDBRANCH  17  19
ENDBRANCH   1  17
TORSDOF 9
ENDMDL
MODEL 9
REMARK VINA RESULT:      -6.1      5.356      9.941
REMARK  Name = 
REMARK  10 active torsions:
REMARK  status: ('A' for Active; 'I' for Inactive)
REMARK    1  A    between atoms: C_1  and  C_2
REMARK    2  A    between atoms: C_2  and  S_3
REMARK    3  A    between atoms: S_3  and  C_4
REMARK    4  A    between atoms: C_4  and  S_6
REMARK    5  A    between atoms: S_6  and  C_7
REMARK    6  A    between atoms: C_7  and  C_8
REMARK    7  A    between atoms: C_8  and  C_10
REMARK    8  A    between atoms: C_13  and  C_14
REMARK    9  A    between atoms: N_16  and  C_17
REMARK   10  A    between atoms: C_17  and  C_18
REMARK                            x       y       z     vdW  Elec       q    Type
REMARK                         _______ _______ _______ _____ _____    ______ ____
ROOT
ATOM      1  C   UNL     1      -0.141  10.650  21.240  0.00  0.00    +0.000 A 
ATOM      2  C   UNL     1      -0.349  11.283  20.030  0.00  0.00    +0.000 A 
ATOM      3  C   UNL     1       0.324  10.642  18.942  0.00  0.00    +0.000 A 
ATOM      4  C   UNL     1       1.029   9.518  19.330  0.00  0.00    +0.000 A 
ATOM      5  S   UNL     1       0.861   9.270  21.025  0.00  0.00    +0.000 S 
ENDROOT
BRANCH   4   6
ATOM      6  C   UNL     1       1.832   8.575  18.548  0.00  0.00    +0.000 C 
ATOM      7  O   UNL     1       2.218   8.788  17.401  0.00  0.00    +0.000 OA
ATOM      8  N   UNL     1       2.156   7.394  19.195  0.00  0.00    +0.000 N 
ATOM      9  H   UNL     1       1.813   7.210  20.123  0.00  0.00    +0.000 HD
BRANCH   8  10
ATOM     10  C   UNL     1       2.967   6.363  18.580  0.00  0.00    +0.000 C 
BRANCH  10  11
ATOM     11  C   UNL     1       2.355   5.000  18.785  0.00  0.00    +0.000 A 
ATOM     12  C   UNL     1       2.477   4.019  17.791  0.00  0.00    +0.000 A 
ATOM     13  C   UNL     1       1.900   2.759  17.961  0.00  0.00    +0.000 A 
ATOM     14  C   UNL     1       1.188   2.468  19.124  0.00  0.00    +0.000 A 
ATOM     15  C   UNL     1       1.058   3.436  20.119  0.00  0.00    +0.000 A 
ATOM     16  C   UNL     1       1.635   4.696  19.951  0.00  0.00    +0.000 A 
ENDBRANCH  10  11
ENDBRANCH   8  10
ENDBRANCH   4   6
BRANCH   1  17
ATOM     17  C   UNL     1      -0.637  10.978  22.587  0.00  0.00    +0.000 C 
ATOM     18  O   UNL     1      -0.784  10.130  23.465  0.00  0.00    +0.000 OA
BRANCH  17  19
ATOM     19  C   UNL     1      -1.044  12.439  22.828  0.00  0.00    +0.000 C 
BRANCH  19  20
ATOM     20  S   UNL     1      -2.842  12.622  23.038  0.00  0.00    +0.000 S 
BRANCH  20  21
ATOM     21  C   UNL     1      -3.089  14.369  23.013  0.00  0.00    +0.000 C 
ATOM     22  S   UNL     1      -1.994  15.497  22.433  0.00  0.00    +0.000 S 
BRANCH  21  23
ATOM     23  S   UNL     1      -4.570  14.837  23.860  0.00  0.00    +0.000 S 
BRANCH  23  25
ATOM     24  C   UNL     1      -4.987  17.290  25.002  0.00  0.00    +0.000 C 
ATOM     25  C   UNL     1      -3.964  16.166  24.941  0.00  0.00    +0.000 C 
ENDBRANCH  23  25
ENDBRANCH  21  23
ENDBRANCH  20  21
ENDBRANCH  19  20
ENDBRANCH  17  19
ENDBRANCH   1  17
TORSDOF 9
ENDMDL
