MODEL 1
REMARK VINA RESULT:      -7.3      0.000      0.000
REMARK  Name = 
REMARK  2 active torsions:
REMARK  status: ('A' for Active; 'I' for Inactive)
REMARK    1  A    between atoms: C_4  and  C_5
REMARK    2  A    between atoms: C_9  and  C_10
REMARK                            x       y       z     vdW  Elec       q    Type
REMARK                         _______ _______ _______ _____ _____    ______ ____
ROOT
ATOM      1  C   UNL     1       6.313   4.513  16.030  0.00  0.00    +0.000 A 
ATOM      2  C   UNL     1       7.205   5.069  16.948  0.00  0.00    +0.000 A 
ATOM      3  C   UNL     1       6.873   5.097  18.298  0.00  0.00    +0.000 A 
ATOM      4  C   UNL     1       5.647   4.590  18.703  0.00  0.00    +0.000 A 
ATOM      5  C   UNL     1       4.781   4.083  17.739  0.00  0.00    +0.000 A 
ATOM      6  N   UNL     1       5.106   4.023  16.420  0.00  0.00    +0.000 NA
ENDROOT
BRANCH   1  10
ATOM      7  C   UNL     1       7.152   4.363  11.801  0.00  0.00    +0.000 A 
ATOM      8  C   UNL     1       7.850   5.246  12.617  0.00  0.00    +0.000 A 
ATOM      9  C   UNL     1       7.592   5.279  13.991  0.00  0.00    +0.000 A 
ATOM     10  C   UNL     1       6.623   4.444  14.584  0.00  0.00    +0.000 A 
ATOM     11  C   UNL     1       5.946   3.549  13.735  0.00  0.00    +0.000 A 
ATOM     12  C   UNL     1       6.204   3.509  12.359  0.00  0.00    +0.000 A 
ENDBRANCH   1  10
BRANCH   5  13
ATOM     13  C   UNL     1       3.440   3.579  18.067  0.00  0.00    +0.000 A 
ATOM     14  C   UNL     1       2.219   4.223  17.950  0.00  0.00    +0.000 A 
ATOM     15  C   UNL     1       1.124   3.427  18.398  0.00  0.00    +0.000 A 
ATOM     16  C   UNL     1       1.537   2.197  18.857  0.00  0.00    +0.000 A 
ATOM     17  S   UNL     1       3.229   2.008  18.738  0.00  0.00    +0.000 S 
ENDBRANCH   5  13
TORSDOF 2
ENDMDL
MODEL 2
REMARK VINA RESULT:      -7.2      0.405      1.233
REMARK  Name = 
REMARK  2 active torsions:
REMARK  status: ('A' for Active; 'I' for Inactive)
REMARK    1  A    between atoms: C_4  and  C_5
REMARK    2  A    between atoms: C_9  and  C_10
REMARK                            x       y       z     vdW  Elec       q    Type
REMARK                         _______ _______ _______ _____ _____    ______ ____
ROOT
ATOM      1  C   UNL     1       6.225   4.680  16.073  0.00  0.00    +0.000 A 
ATOM      2  C   UNL     1       7.081   5.397  16.909  0.00  0.00    +0.000 A 
ATOM      3  C   UNL     1       6.794   5.497  18.266  0.00  0.00    +0.000 A 
ATOM      4  C   UNL     1       5.644   4.897  18.758  0.00  0.00    +0.000 A 
ATOM      5  C   UNL     1       4.806   4.228  17.872  0.00  0.00    +0.000 A 
ATOM      6  N   UNL     1       5.091   4.099  16.549  0.00  0.00    +0.000 NA
ENDROOT
BRANCH   1  10
ATOM      7  C   UNL     1       7.060   4.189  11.869  0.00  0.00    +0.000 A 
ATOM      8  C   UNL     1       6.028   3.470  12.462  0.00  0.00    +0.000 A 
ATOM      9  C   UNL     1       5.745   3.645  13.820  0.00  0.00    +0.000 A 
ATOM     10  C   UNL     1       6.491   4.530  14.624  0.00  0.00    +0.000 A 
ATOM     11  C   UNL     1       7.517   5.257  13.992  0.00  0.00    +0.000 A 
ATOM     12  C   UNL     1       7.801   5.088  12.631  0.00  0.00    +0.000 A 
ENDBRANCH   1  10
BRANCH   5  13
ATOM     13  C   UNL     1       3.538   3.614  18.292  0.00  0.00    +0.000 A 
ATOM     14  C   UNL     1       2.270   3.799  17.767  0.00  0.00    +0.000 A 
ATOM     15  C   UNL     1       1.267   3.054  18.458  0.00  0.00    +0.000 A 
ATOM     16  C   UNL     1       1.794   2.328  19.501  0.00  0.00    +0.000 A 
ATOM     17  S   UNL     1       3.484   2.540  19.636  0.00  0.00    +0.000 S 
ENDBRANCH   5  13
TORSDOF 2
ENDMDL
MODEL 3
REMARK VINA RESULT:      -7.2      1.172      1.172
REMARK  Name = 
REMARK  2 active torsions:
REMARK  status: ('A' for Active; 'I' for Inactive)
REMARK    1  A    between atoms: C_4  and  C_5
REMARK    2  A    between atoms: C_9  and  C_10
REMARK                            x       y       z     vdW  Elec       q    Type
REMARK                         _______ _______ _______ _____ _____    ______ ____
ROOT
ATOM      1  C   UNL     1       5.402   5.186  15.601  0.00  0.00    +0.000 A 
ATOM      2  C   UNL     1       5.698   6.444  16.125  0.00  0.00    +0.000 A 
ATOM      3  C   UNL     1       5.125   6.841  17.328  0.00  0.00    +0.000 A 
ATOM      4  C   UNL     1       4.248   5.981  17.974  0.00  0.00    +0.000 A 
ATOM      5  C   UNL     1       3.960   4.754  17.386  0.00  0.00    +0.000 A 
ATOM      6  N   UNL     1       4.536   4.343  16.225  0.00  0.00    +0.000 NA
ENDROOT
BRANCH   1  10
ATOM      7  C   UNL     1       7.089   3.846  11.863  0.00  0.00    +0.000 A 
ATOM      8  C   UNL     1       7.768   4.780  12.637  0.00  0.00    +0.000 A 
ATOM      9  C   UNL     1       7.230   5.198  13.859  0.00  0.00    +0.000 A 
ATOM     10  C   UNL     1       5.997   4.707  14.332  0.00  0.00    +0.000 A 
ATOM     11  C   UNL     1       5.342   3.750  13.536  0.00  0.00    +0.000 A 
ATOM     12  C   UNL     1       5.879   3.325  12.314  0.00  0.00    +0.000 A 
ENDBRANCH   1  10
BRANCH   5  13
ATOM     13  C   UNL     1       2.999   3.805  17.966  0.00  0.00    +0.000 A 
ATOM     14  C   UNL     1       1.617   3.804  17.875  0.00  0.00    +0.000 A 
ATOM     15  C   UNL     1       1.010   2.736  18.600  0.00  0.00    +0.000 A 
ATOM     16  C   UNL     1       1.945   1.953  19.239  0.00  0.00    +0.000 A 
ATOM     17  S   UNL     1       3.537   2.502  18.955  0.00  0.00    +0.000 S 
ENDBRANCH   5  13
TORSDOF 2
ENDMDL
MODEL 4
REMARK VINA RESULT:      -7.1      0.794      1.022
REMARK  Name = 
REMARK  2 active torsions:
REMARK  status: ('A' for Active; 'I' for Inactive)
REMARK    1  A    between atoms: C_4  and  C_5
REMARK    2  A    between atoms: C_9  and  C_10
REMARK                            x       y       z     vdW  Elec       q    Type
REMARK                         _______ _______ _______ _____ _____    ______ ____
ROOT
ATOM      1  C   UNL     1       6.278   4.618  16.118  0.00  0.00    +0.000 A 
ATOM      2  C   UNL     1       7.120   5.331  16.972  0.00  0.00    +0.000 A 
ATOM      3  C   UNL     1       6.813   5.418  18.325  0.00  0.00    +0.000 A 
ATOM      4  C   UNL     1       5.658   4.810  18.796  0.00  0.00    +0.000 A 
ATOM      5  C   UNL     1       4.836   4.146  17.892  0.00  0.00    +0.000 A 
ATOM      6  N   UNL     1       5.140   4.029  16.572  0.00  0.00    +0.000 NA
ENDROOT
BRANCH   1  10
ATOM      7  C   UNL     1       7.056   4.272  11.889  0.00  0.00    +0.000 A 
ATOM      8  C   UNL     1       7.810   5.144  12.665  0.00  0.00    +0.000 A 
ATOM      9  C   UNL     1       7.571   5.240  14.040  0.00  0.00    +0.000 A 
ATOM     10  C   UNL     1       6.566   4.481  14.672  0.00  0.00    +0.000 A 
ATOM     11  C   UNL     1       5.832   3.594  13.863  0.00  0.00    +0.000 A 
ATOM     12  C   UNL     1       6.071   3.491  12.487  0.00  0.00    +0.000 A 
ENDBRANCH   1  10
BRANCH   5  13
ATOM     13  C   UNL     1       3.563   3.525  18.289  0.00  0.00    +0.000 A 
ATOM     14  C   UNL     1       3.341   2.261  18.810  0.00  0.00    +0.000 A 
ATOM     15  C   UNL     1       1.960   1.991  19.046  0.00  0.00    +0.000 A 
ATOM     16  C   UNL     1       1.160   3.052  18.688  0.00  0.00    +0.000 A 
ATOM     17  S   UNL     1       2.073   4.361  18.081  0.00  0.00    +0.000 S 
ENDBRANCH   5  13
TORSDOF 2
ENDMDL
MODEL 5
REMARK VINA RESULT:      -6.8      1.986      6.067
REMARK  Name = 
REMARK  2 active torsions:
REMARK  status: ('A' for Active; 'I' for Inactive)
REMARK    1  A    between atoms: C_4  and  C_5
REMARK    2  A    between atoms: C_9  and  C_10
REMARK                            x       y       z     vdW  Elec       q    Type
REMARK                         _______ _______ _______ _____ _____    ______ ____
ROOT
ATOM      1  C   UNL     1       4.797   4.480  18.024  0.00  0.00    +0.000 A 
ATOM      2  C   UNL     1       5.875   4.868  18.819  0.00  0.00    +0.000 A 
ATOM      3  C   UNL     1       7.109   5.121  18.229  0.00  0.00    +0.000 A 
ATOM      4  C   UNL     1       7.247   4.961  16.858  0.00  0.00    +0.000 A 
ATOM      5  C   UNL     1       6.147   4.535  16.120  0.00  0.00    +0.000 A 
ATOM      6  N   UNL     1       4.929   4.312  16.681  0.00  0.00    +0.000 NA
ENDROOT
BRANCH   1  10
ATOM      7  C   UNL     1       0.923   3.628  19.722  0.00  0.00    +0.000 A 
ATOM      8  C   UNL     1       1.855   4.361  20.448  0.00  0.00    +0.000 A 
ATOM      9  C   UNL     1       3.102   4.655  19.888  0.00  0.00    +0.000 A 
ATOM     10  C   UNL     1       3.458   4.213  18.598  0.00  0.00    +0.000 A 
ATOM     11  C   UNL     1       2.488   3.489  17.881  0.00  0.00    +0.000 A 
ATOM     12  C   UNL     1       1.236   3.197  18.435  0.00  0.00    +0.000 A 
ENDBRANCH   1  10
BRANCH   5  13
ATOM     13  C   UNL     1       6.216   4.280  14.674  0.00  0.00    +0.000 A 
ATOM     14  C   UNL     1       5.367   3.521  13.886  0.00  0.00    +0.000 A 
ATOM     15  C   UNL     1       5.769   3.475  12.518  0.00  0.00    +0.000 A 
ATOM     16  C   UNL     1       6.923   4.192  12.297  0.00  0.00    +0.000 A 
ATOM     17  S   UNL     1       7.506   4.918  13.728  0.00  0.00    +0.000 S 
ENDBRANCH   5  13
TORSDOF 2
ENDMDL
MODEL 6
REMARK VINA RESULT:      -6.8      5.498      7.680
REMARK  Name = 
REMARK  2 active torsions:
REMARK  status: ('A' for Active; 'I' for Inactive)
REMARK    1  A    between atoms: C_4  and  C_5
REMARK    2  A    between atoms: C_9  and  C_10
REMARK                            x       y       z     vdW  Elec       q    Type
REMARK                         _______ _______ _______ _____ _____    ______ ____
ROOT
ATOM      1  C   UNL     1       2.253   6.813  19.492  0.00  0.00    +0.000 A 
ATOM      2  C   UNL     1       2.519   7.312  18.217  0.00  0.00    +0.000 A 
ATOM      3  C   UNL     1       2.162   8.617  17.900  0.00  0.00    +0.000 A 
ATOM      4  C   UNL     1       1.524   9.393  18.857  0.00  0.00    +0.000 A 
ATOM      5  C   UNL     1       1.248   8.831  20.100  0.00  0.00    +0.000 A 
ATOM      6  N   UNL     1       1.619   7.566  20.431  0.00  0.00    +0.000 NA
ENDROOT
BRANCH   1  10
ATOM      7  C   UNL     1       3.285   2.770  20.588  0.00  0.00    +0.000 A 
ATOM      8  C   UNL     1       4.035   3.443  19.631  0.00  0.00    +0.000 A 
ATOM      9  C   UNL     1       3.712   4.761  19.292  0.00  0.00    +0.000 A 
ATOM     10  C   UNL     1       2.626   5.435  19.886  0.00  0.00    +0.000 A 
ATOM     11  C   UNL     1       1.898   4.734  20.865  0.00  0.00    +0.000 A 
ATOM     12  C   UNL     1       2.220   3.416  21.212  0.00  0.00    +0.000 A 
ENDBRANCH   1  10
BRANCH   5  13
ATOM     13  C   UNL     1       0.524   9.556  21.154  0.00  0.00    +0.000 A 
ATOM     14  C   UNL     1       0.077   9.089  22.378  0.00  0.00    +0.000 A 
ATOM     15  C   UNL     1      -0.621  10.079  23.132  0.00  0.00    +0.000 A 
ATOM     16  C   UNL     1      -0.700  11.276  22.458  0.00  0.00    +0.000 A 
ATOM     17  S   UNL     1       0.070  11.202  20.935  0.00  0.00    +0.000 S 
ENDBRANCH   5  13
TORSDOF 2
ENDMDL
MODEL 7
REMARK VINA RESULT:      -6.7      5.359      8.416
REMARK  Name = 
REMARK  2 active torsions:
REMARK  status: ('A' for Active; 'I' for Inactive)
REMARK    1  A    between atoms: C_4  and  C_5
REMARK    2  A    between atoms: C_9  and  C_10
REMARK                            x       y       z     vdW  Elec       q    Type
REMARK                         _______ _______ _______ _____ _____    ______ ____
ROOT
ATOM      1  C   UNL     1       1.444   8.461  19.978  0.00  0.00    +0.000 A 
ATOM      2  C   UNL     1       1.897   8.937  18.748  0.00  0.00    +0.000 A 
ATOM      3  C   UNL     1       2.556   8.076  17.878  0.00  0.00    +0.000 A 
ATOM      4  C   UNL     1       2.771   6.761  18.263  0.00  0.00    +0.000 A 
ATOM      5  C   UNL     1       2.331   6.351  19.518  0.00  0.00    +0.000 A 
ATOM      6  N   UNL     1       1.660   7.175  20.365  0.00  0.00    +0.000 NA
ENDROOT
BRANCH   1  10
ATOM      7  C   UNL     1      -0.726  10.970  22.736  0.00  0.00    +0.000 A 
ATOM      8  C   UNL     1      -0.293   9.712  23.135  0.00  0.00    +0.000 A 
ATOM      9  C   UNL     1       0.429   8.907  22.247  0.00  0.00    +0.000 A 
ATOM     10  C   UNL     1       0.723   9.331  20.936  0.00  0.00    +0.000 A 
ATOM     11  C   UNL     1       0.288  10.617  20.567  0.00  0.00    +0.000 A 
ATOM     12  C   UNL     1      -0.432  11.428  21.454  0.00  0.00    +0.000 A 
ENDBRANCH   1  10
BRANCH   5  13
ATOM     13  C   UNL     1       2.566   4.995  20.035  0.00  0.00    +0.000 A 
ATOM     14  C   UNL     1       1.941   4.347  21.087  0.00  0.00    +0.000 A 
ATOM     15  C   UNL     1       2.458   3.039  21.323  0.00  0.00    +0.000 A 
ATOM     16  C   UNL     1       3.475   2.724  20.451  0.00  0.00    +0.000 A 
ATOM     17  S   UNL     1       3.792   3.995  19.356  0.00  0.00    +0.000 S 
ENDBRANCH   5  13
TORSDOF 2
ENDMDL
MODEL 8
REMARK VINA RESULT:      -6.7      5.301      8.350
REMARK  Name = 
REMARK  2 active torsions:
REMARK  status: ('A' for Active; 'I' for Inactive)
REMARK    1  A    between atoms: C_4  and  C_5
REMARK    2  A    between atoms: C_9  and  C_10
REMARK                            x       y       z     vdW  Elec       q    Type
REMARK                         _______ _______ _______ _____ _____    ______ ____
ROOT
ATOM      1  C   UNL     1       1.448   8.387  19.957  0.00  0.00    +0.000 A 
ATOM      2  C   UNL     1       1.942   8.893  18.755  0.00  0.00    +0.000 A 
ATOM      3  C   UNL     1       2.658   8.061  17.901  0.00  0.00    +0.000 A 
ATOM      4  C   UNL     1       2.886   6.745  18.275  0.00  0.00    +0.000 A 
ATOM      5  C   UNL     1       2.403   6.305  19.504  0.00  0.00    +0.000 A 
ATOM      6  N   UNL     1       1.677   7.101  20.333  0.00  0.00    +0.000 NA
ENDROOT
BRANCH   1  10
ATOM      7  C   UNL     1      -0.758  10.867  22.713  0.00  0.00    +0.000 A 
ATOM      8  C   UNL     1      -0.682  11.218  21.371  0.00  0.00    +0.000 A 
ATOM      9  C   UNL     1       0.016  10.402  20.474  0.00  0.00    +0.000 A 
ATOM     10  C   UNL     1       0.667   9.225  20.895  0.00  0.00    +0.000 A 
ATOM     11  C   UNL     1       0.556   8.886  22.257  0.00  0.00    +0.000 A 
ATOM     12  C   UNL     1      -0.145   9.698  23.157  0.00  0.00    +0.000 A 
ENDBRANCH   1  10
BRANCH   5  13
ATOM     13  C   UNL     1       2.647   4.947  20.010  0.00  0.00    +0.000 A 
ATOM     14  C   UNL     1       2.042   4.295  21.071  0.00  0.00    +0.000 A 
ATOM     15  C   UNL     1       2.562   2.985  21.290  0.00  0.00    +0.000 A 
ATOM     16  C   UNL     1       3.561   2.672  20.397  0.00  0.00    +0.000 A 
ATOM     17  S   UNL     1       3.858   3.948  19.302  0.00  0.00    +0.000 S 
ENDBRANCH   5  13
TORSDOF 2
ENDMDL
MODEL 9
REMARK VINA RESULT:      -6.7      3.557      6.710
REMARK  Name = 
REMARK  2 active torsions:
REMARK  status: ('A' for Active; 'I' for Inactive)
REMARK    1  A    between atoms: C_4  and  C_5
REMARK    2  A    between atoms: C_9  and  C_10
REMARK                            x       y       z     vdW  Elec       q    Type
REMARK                         _______ _______ _______ _____ _____    ______ ____
ROOT
ATOM      1  C   UNL     1       2.817   6.284  19.181  0.00  0.00    +0.000 A 
ATOM      2  C   UNL     1       2.528   5.287  20.113  0.00  0.00    +0.000 A 
ATOM      3  C   UNL     1       3.183   4.063  20.037  0.00  0.00    +0.000 A 
ATOM      4  C   UNL     1       4.099   3.850  19.018  0.00  0.00    +0.000 A 
ATOM      5  C   UNL     1       4.320   4.866  18.093  0.00  0.00    +0.000 A 
ATOM      6  N   UNL     1       3.708   6.077  18.174  0.00  0.00    +0.000 NA
ENDROOT
BRANCH   1  10
ATOM      7  C   UNL     1       0.834  10.113  19.282  0.00  0.00    +0.000 A 
ATOM      8  C   UNL     1       0.907   9.338  20.433  0.00  0.00    +0.000 A 
ATOM      9  C   UNL     1       1.568   8.106  20.404  0.00  0.00    +0.000 A 
ATOM     10  C   UNL     1       2.160   7.610  19.225  0.00  0.00    +0.000 A 
ATOM     11  C   UNL     1       2.086   8.425  18.081  0.00  0.00    +0.000 A 
ATOM     12  C   UNL     1       1.428   9.662  18.106  0.00  0.00    +0.000 A 
ENDBRANCH   1  10
BRANCH   5  13
ATOM     13  C   UNL     1       5.227   4.710  16.947  0.00  0.00    +0.000 A 
ATOM     14  C   UNL     1       5.025   4.007  15.771  0.00  0.00    +0.000 A 
ATOM     15  C   UNL     1       6.150   4.053  14.894  0.00  0.00    +0.000 A 
ATOM     16  C   UNL     1       7.188   4.781  15.428  0.00  0.00    +0.000 A 
ATOM     17  S   UNL     1       6.801   5.408  16.969  0.00  0.00    +0.000 S 
ENDBRANCH   5  13
TORSDOF 2
ENDMDL
