MODEL 1
REMARK VINA RESULT:      -6.8      0.000      0.000
REMARK  Name = 
REMARK  7 active torsions:
REMARK  status: ('A' for Active; 'I' for Inactive)
REMARK    1  A    between atoms: C_1  and  O_2
REMARK    2  A    between atoms: O_2  and  C_3
REMARK    3  A    between atoms: C_6  and  C_7
REMARK    4  A    between atoms: C_9  and  C_10
REMARK    5  A    between atoms: C_9  and  C_12
REMARK    6  A    between atoms: C_20  and  O_21
REMARK    7  A    between atoms: O_21  and  C_22
REMARK                            x       y       z     vdW  Elec       q    Type
REMARK                         _______ _______ _______ _____ _____    ______ ____
ROOT
ATOM      1  C   UNL     1       2.235   6.695  19.646  0.00  0.00    +0.000 C 
ATOM      2 CL   UNL     1       1.531   5.829  20.998  0.00  0.00    +0.000 Cl
ATOM      3  C   UNL     1       1.991   8.012  19.453  0.00  0.00    +0.000 C 
ENDROOT
BRANCH   3   4
ATOM      4  C   UNL     1       1.127   8.779  20.379  0.00  0.00    +0.000 A 
ATOM      5  C   UNL     1       0.164   9.664  19.880  0.00  0.00    +0.000 A 
ATOM      6  C   UNL     1      -0.609  10.429  20.757  0.00  0.00    +0.000 A 
ATOM      7  C   UNL     1      -0.426  10.308  22.133  0.00  0.00    +0.000 A 
ATOM      8 CL   UNL     1      -1.355  11.278  23.208  0.00  0.00    +0.000 Cl
ATOM      9  C   UNL     1       0.513   9.413  22.643  0.00  0.00    +0.000 A 
ATOM     10  C   UNL     1       1.288   8.647  21.768  0.00  0.00    +0.000 A 
ENDBRANCH   3   4
BRANCH   1  14
ATOM     11  C   UNL     1       4.726   4.074  17.320  0.00  0.00    +0.000 A 
ATOM     12  C   UNL     1       3.360   4.221  17.028  0.00  0.00    +0.000 A 
ATOM     13  C   UNL     1       2.553   5.097  17.762  0.00  0.00    +0.000 A 
ATOM     14  C   UNL     1       3.092   5.819  18.828  0.00  0.00    +0.000 A 
ATOM     15  C   UNL     1       4.439   5.620  19.161  0.00  0.00    +0.000 A 
ATOM     16  C   UNL     1       5.261   4.742  18.432  0.00  0.00    +0.000 A 
BRANCH  11  18
ATOM     17  C   UNL     1       6.098   3.857  15.403  0.00  0.00    +0.000 C 
ATOM     18  O   UNL     1       5.523   3.257  16.564  0.00  0.00    +0.000 OA
ENDBRANCH  11  18
BRANCH  16  19
ATOM     19  O   UNL     1       6.523   4.663  18.961  0.00  0.00    +0.000 OA
ATOM     20  C   UNL     1       7.510   5.598  18.559  0.00  0.00    +0.000 C 
ENDBRANCH  16  19
ENDBRANCH   1  14
BRANCH   3  21
ATOM     21  C   UNL     1       2.589   8.780  18.319  0.00  0.00    +0.000 C 
ATOM     22  O   UNL     1       2.114   8.856  17.191  0.00  0.00    +0.000 OA
ENDBRANCH   3  21
TORSDOF 5
ENDMDL
MODEL 2
REMARK VINA RESULT:      -6.8      0.107      1.038
REMARK  Name = 
REMARK  7 active torsions:
REMARK  status: ('A' for Active; 'I' for Inactive)
REMARK    1  A    between atoms: C_1  and  O_2
REMARK    2  A    between atoms: O_2  and  C_3
REMARK    3  A    between atoms: C_6  and  C_7
REMARK    4  A    between atoms: C_9  and  C_10
REMARK    5  A    between atoms: C_9  and  C_12
REMARK    6  A    between atoms: C_20  and  O_21
REMARK    7  A    between atoms: O_21  and  C_22
REMARK                            x       y       z     vdW  Elec       q    Type
REMARK                         _______ _______ _______ _____ _____    ______ ____
ROOT
ATOM      1  C   UNL     1       2.206   6.730  19.684  0.00  0.00    +0.000 C 
ATOM      2 CL   UNL     1       1.504   5.891  21.053  0.00  0.00    +0.000 Cl
ATOM      3  C   UNL     1       1.986   8.051  19.481  0.00  0.00    +0.000 C 
ENDROOT
BRANCH   3   4
ATOM      4  C   UNL     1       1.151   8.843  20.412  0.00  0.00    +0.000 A 
ATOM      5  C   UNL     1       1.306   8.703  21.798  0.00  0.00    +0.000 A 
ATOM      6  C   UNL     1       0.477   9.408  22.672  0.00  0.00    +0.000 A 
ATOM      7  C   UNL     1      -0.505  10.258  22.167  0.00  0.00    +0.000 A 
ATOM      8 CL   UNL     1      -1.548  11.097  23.247  0.00  0.00    +0.000 Cl
ATOM      9  C   UNL     1      -0.653  10.425  20.791  0.00  0.00    +0.000 A 
ATOM     10  C   UNL     1       0.175   9.720  19.914  0.00  0.00    +0.000 A 
ENDBRANCH   3   4
BRANCH   1  14
ATOM     11  C   UNL     1       4.614   4.040  17.348  0.00  0.00    +0.000 A 
ATOM     12  C   UNL     1       3.243   4.200  17.083  0.00  0.00    +0.000 A 
ATOM     13  C   UNL     1       2.463   5.098  17.820  0.00  0.00    +0.000 A 
ATOM     14  C   UNL     1       3.034   5.831  18.862  0.00  0.00    +0.000 A 
ATOM     15  C   UNL     1       4.386   5.619  19.169  0.00  0.00    +0.000 A 
ATOM     16  C   UNL     1       5.181   4.719  18.437  0.00  0.00    +0.000 A 
BRANCH  11  18
ATOM     17  C   UNL     1       6.026   3.800  15.464  0.00  0.00    +0.000 C 
ATOM     18  O   UNL     1       5.383   3.200  16.589  0.00  0.00    +0.000 OA
ENDBRANCH  11  18
BRANCH  16  19
ATOM     19  O   UNL     1       6.452   4.632  18.940  0.00  0.00    +0.000 OA
ATOM     20  C   UNL     1       7.385   5.665  18.668  0.00  0.00    +0.000 C 
ENDBRANCH  16  19
ENDBRANCH   1  14
BRANCH   3  21
ATOM     21  C   UNL     1       2.583   8.796  18.332  0.00  0.00    +0.000 C 
ATOM     22  O   UNL     1       2.153   8.783  17.184  0.00  0.00    +0.000 OA
ENDBRANCH   3  21
TORSDOF 5
ENDMDL
MODEL 3
REMARK VINA RESULT:      -6.5      1.184      1.184
REMARK  Name = 
REMARK  7 active torsions:
REMARK  status: ('A' for Active; 'I' for Inactive)
REMARK    1  A    between atoms: C_1  and  O_2
REMARK    2  A    between atoms: O_2  and  C_3
REMARK    3  A    between atoms: C_6  and  C_7
REMARK    4  A    between atoms: C_9  and  C_10
REMARK    5  A    between atoms: C_9  and  C_12
REMARK    6  A    between atoms: C_20  and  O_21
REMARK    7  A    between atoms: O_21  and  C_22
REMARK                            x       y       z     vdW  Elec       q    Type
REMARK                         _______ _______ _______ _____ _____    ______ ____
ROOT
ATOM      1  C   UNL     1       2.295   6.991  19.110  0.00  0.00    +0.000 C 
ATOM      2 CL   UNL     1       1.902   6.085  20.557  0.00  0.00    +0.000 Cl
ATOM      3  C   UNL     1       1.860   8.261  18.936  0.00  0.00    +0.000 C 
ENDROOT
BRANCH   3   4
ATOM      4  C   UNL     1       1.042   8.941  19.966  0.00  0.00    +0.000 A 
ATOM      5  C   UNL     1      -0.025   9.769  19.591  0.00  0.00    +0.000 A 
ATOM      6  C   UNL     1      -0.757  10.454  20.562  0.00  0.00    +0.000 A 
ATOM      7  C   UNL     1      -0.431  10.312  21.910  0.00  0.00    +0.000 A 
ATOM      8 CL   UNL     1      -1.313  11.186  23.100  0.00  0.00    +0.000 Cl
ATOM      9  C   UNL     1       0.612   9.472  22.297  0.00  0.00    +0.000 A 
ATOM     10  C   UNL     1       1.347   8.786  21.327  0.00  0.00    +0.000 A 
ENDBRANCH   3   4
BRANCH   1  14
ATOM     11  C   UNL     1       4.805   4.680  16.493  0.00  0.00    +0.000 A 
ATOM     12  C   UNL     1       3.658   4.118  17.077  0.00  0.00    +0.000 A 
ATOM     13  C   UNL     1       2.821   4.876  17.904  0.00  0.00    +0.000 A 
ATOM     14  C   UNL     1       3.136   6.206  18.190  0.00  0.00    +0.000 A 
ATOM     15  C   UNL     1       4.317   6.744  17.661  0.00  0.00    +0.000 A 
ATOM     16  C   UNL     1       5.167   5.994  16.829  0.00  0.00    +0.000 A 
BRANCH  11  18
ATOM     17  C   UNL     1       5.499   4.303  14.261  0.00  0.00    +0.000 C 
ATOM     18  O   UNL     1       5.591   3.950  15.641  0.00  0.00    +0.000 OA
ENDBRANCH  11  18
BRANCH  16  19
ATOM     19  O   UNL     1       6.285   6.699  16.469  0.00  0.00    +0.000 OA
ATOM     20  C   UNL     1       7.396   6.749  17.349  0.00  0.00    +0.000 C 
ENDBRANCH  16  19
ENDBRANCH   1  14
BRANCH   3  21
ATOM     21  C   UNL     1       2.191   9.063  17.720  0.00  0.00    +0.000 C 
ATOM     22  O   UNL     1       2.469  10.257  17.717  0.00  0.00    +0.000 OA
ENDBRANCH   3  21
TORSDOF 5
ENDMDL
MODEL 4
REMARK VINA RESULT:      -6.5      1.134      1.801
REMARK  Name = 
REMARK  7 active torsions:
REMARK  status: ('A' for Active; 'I' for Inactive)
REMARK    1  A    between atoms: C_1  and  O_2
REMARK    2  A    between atoms: O_2  and  C_3
REMARK    3  A    between atoms: C_6  and  C_7
REMARK    4  A    between atoms: C_9  and  C_10
REMARK    5  A    between atoms: C_9  and  C_12
REMARK    6  A    between atoms: C_20  and  O_21
REMARK    7  A    between atoms: O_21  and  C_22
REMARK                            x       y       z     vdW  Elec       q    Type
REMARK                         _______ _______ _______ _____ _____    ______ ____
ROOT
ATOM      1  C   UNL     1       2.251   6.796  19.431  0.00  0.00    +0.000 C 
ATOM      2 CL   UNL     1       1.602   5.871  20.771  0.00  0.00    +0.000 Cl
ATOM      3  C   UNL     1       1.977   8.115  19.291  0.00  0.00    +0.000 C 
ENDROOT
BRANCH   3   4
ATOM      4  C   UNL     1       1.126   8.832  20.267  0.00  0.00    +0.000 A 
ATOM      5  C   UNL     1       0.140   9.725  19.827  0.00  0.00    +0.000 A 
ATOM      6  C   UNL     1      -0.621  10.443  20.751  0.00  0.00    +0.000 A 
ATOM      7  C   UNL     1      -0.404  10.268  22.117  0.00  0.00    +0.000 A 
ATOM      8 CL   UNL     1      -1.319  11.181  23.252  0.00  0.00    +0.000 Cl
ATOM      9  C   UNL     1       0.557   9.364  22.568  0.00  0.00    +0.000 A 
ATOM     10  C   UNL     1       1.320   8.645  21.645  0.00  0.00    +0.000 A 
ENDBRANCH   3   4
BRANCH   1  14
ATOM     11  C   UNL     1       4.669   4.384  16.820  0.00  0.00    +0.000 A 
ATOM     12  C   UNL     1       4.916   5.759  16.969  0.00  0.00    +0.000 A 
ATOM     13  C   UNL     1       4.152   6.541  17.842  0.00  0.00    +0.000 A 
ATOM     14  C   UNL     1       3.100   5.967  18.559  0.00  0.00    +0.000 A 
ATOM     15  C   UNL     1       2.812   4.610  18.357  0.00  0.00    +0.000 A 
ATOM     16  C   UNL     1       3.572   3.812  17.482  0.00  0.00    +0.000 A 
BRANCH  11  18
ATOM     17  C   UNL     1       6.418   4.322  15.226  0.00  0.00    +0.000 C 
ATOM     18  O   UNL     1       5.455   3.613  16.006  0.00  0.00    +0.000 OA
ENDBRANCH  11  18
BRANCH  16  19
ATOM     19  O   UNL     1       3.085   2.534  17.400  0.00  0.00    +0.000 OA
ATOM     20  C   UNL     1       3.462   1.577  18.376  0.00  0.00    +0.000 C 
ENDBRANCH  16  19
ENDBRANCH   1  14
BRANCH   3  21
ATOM     21  C   UNL     1       2.527   8.933  18.168  0.00  0.00    +0.000 C 
ATOM     22  O   UNL     1       1.948   9.160  17.112  0.00  0.00    +0.000 OA
ENDBRANCH   3  21
TORSDOF 5
ENDMDL
MODEL 5
REMARK VINA RESULT:      -6.4      1.942      2.791
REMARK  Name = 
REMARK  7 active torsions:
REMARK  status: ('A' for Active; 'I' for Inactive)
REMARK    1  A    between atoms: C_1  and  O_2
REMARK    2  A    between atoms: O_2  and  C_3
REMARK    3  A    between atoms: C_6  and  C_7
REMARK    4  A    between atoms: C_9  and  C_10
REMARK    5  A    between atoms: C_9  and  C_12
REMARK    6  A    between atoms: C_20  and  O_21
REMARK    7  A    between atoms: O_21  and  C_22
REMARK                            x       y       z     vdW  Elec       q    Type
REMARK                         _______ _______ _______ _____ _____    ______ ____
ROOT
ATOM      1  C   UNL     1       2.461   7.531  18.806  0.00  0.00    +0.000 C 
ATOM      2 CL   UNL     1       2.330   9.012  17.879  0.00  0.00    +0.000 Cl
ATOM      3  C   UNL     1       1.896   7.416  20.031  0.00  0.00    +0.000 C 
ENDROOT
BRANCH   3   4
ATOM      4  C   UNL     1       1.135   8.534  20.634  0.00  0.00    +0.000 A 
ATOM      5  C   UNL     1       1.168   8.748  22.018  0.00  0.00    +0.000 A 
ATOM      6  C   UNL     1       0.404   9.768  22.590  0.00  0.00    +0.000 A 
ATOM      7  C   UNL     1      -0.392  10.578  21.782  0.00  0.00    +0.000 A 
ATOM      8 CL   UNL     1      -1.359  11.809  22.494  0.00  0.00    +0.000 Cl
ATOM      9  C   UNL     1      -0.414  10.391  20.400  0.00  0.00    +0.000 A 
ATOM     10  C   UNL     1       0.350   9.372  19.826  0.00  0.00    +0.000 A 
ENDBRANCH   3   4
BRANCH   1  14
ATOM     11  C   UNL     1       4.615   4.534  16.598  0.00  0.00    +0.000 A 
ATOM     12  C   UNL     1       5.146   5.823  16.776  0.00  0.00    +0.000 A 
ATOM     13  C   UNL     1       4.463   6.791  17.521  0.00  0.00    +0.000 A 
ATOM     14  C   UNL     1       3.215   6.498  18.076  0.00  0.00    +0.000 A 
ATOM     15  C   UNL     1       2.657   5.234  17.839  0.00  0.00    +0.000 A 
ATOM     16  C   UNL     1       3.332   4.252  17.092  0.00  0.00    +0.000 A 
BRANCH  11  18
ATOM     17  C   UNL     1       6.188   4.057  14.896  0.00  0.00    +0.000 C 
ATOM     18  O   UNL     1       5.312   3.575  15.915  0.00  0.00    +0.000 OA
ENDBRANCH  11  18
BRANCH  16  19
ATOM     19  O   UNL     1       2.582   3.115  16.944  0.00  0.00    +0.000 OA
ATOM     20  C   UNL     1       2.688   2.076  17.903  0.00  0.00    +0.000 C 
ENDBRANCH  16  19
ENDBRANCH   1  14
BRANCH   3  21
ATOM     21  C   UNL     1       1.978   6.162  20.839  0.00  0.00    +0.000 C 
ATOM     22  O   UNL     1       1.189   5.227  20.772  0.00  0.00    +0.000 OA
ENDBRANCH   3  21
TORSDOF 5
ENDMDL
MODEL 6
REMARK VINA RESULT:      -6.4      1.903      2.282
REMARK  Name = 
REMARK  7 active torsions:
REMARK  status: ('A' for Active; 'I' for Inactive)
REMARK    1  A    between atoms: C_1  and  O_2
REMARK    2  A    between atoms: O_2  and  C_3
REMARK    3  A    between atoms: C_6  and  C_7
REMARK    4  A    between atoms: C_9  and  C_10
REMARK    5  A    between atoms: C_9  and  C_12
REMARK    6  A    between atoms: C_20  and  O_21
REMARK    7  A    between atoms: O_21  and  C_22
REMARK                            x       y       z     vdW  Elec       q    Type
REMARK                         _______ _______ _______ _____ _____    ______ ____
ROOT
ATOM      1  C   UNL     1       2.592   7.572  18.677  0.00  0.00    +0.000 C 
ATOM      2 CL   UNL     1       2.387   9.067  17.787  0.00  0.00    +0.000 Cl
ATOM      3  C   UNL     1       2.033   7.400  19.898  0.00  0.00    +0.000 C 
ENDROOT
BRANCH   3   4
ATOM      4  C   UNL     1       1.219   8.464  20.529  0.00  0.00    +0.000 A 
ATOM      5  C   UNL     1       1.216   8.622  21.921  0.00  0.00    +0.000 A 
ATOM      6  C   UNL     1       0.402   9.589  22.515  0.00  0.00    +0.000 A 
ATOM      7  C   UNL     1      -0.406  10.402  21.723  0.00  0.00    +0.000 A 
ATOM      8 CL   UNL     1      -1.434  11.567  22.462  0.00  0.00    +0.000 Cl
ATOM      9  C   UNL     1      -0.393  10.271  20.335  0.00  0.00    +0.000 A 
ATOM     10  C   UNL     1       0.420   9.305  19.738  0.00  0.00    +0.000 A 
ENDBRANCH   3   4
BRANCH   1  14
ATOM     11  C   UNL     1       4.984   4.704  16.546  0.00  0.00    +0.000 A 
ATOM     12  C   UNL     1       3.729   4.352  17.070  0.00  0.00    +0.000 A 
ATOM     13  C   UNL     1       2.934   5.291  17.736  0.00  0.00    +0.000 A 
ATOM     14  C   UNL     1       3.395   6.596  17.921  0.00  0.00    +0.000 A 
ATOM     15  C   UNL     1       4.676   6.926  17.458  0.00  0.00    +0.000 A 
ATOM     16  C   UNL     1       5.487   5.992  16.788  0.00  0.00    +0.000 A 
BRANCH  11  18
ATOM     17  C   UNL     1       5.869   4.052  14.450  0.00  0.00    +0.000 C 
ATOM     18  O   UNL     1       5.734   3.796  15.848  0.00  0.00    +0.000 OA
ENDBRANCH  11  18
BRANCH  16  19
ATOM     19  O   UNL     1       6.713   6.512  16.470  0.00  0.00    +0.000 OA
ATOM     20  C   UNL     1       7.437   7.246  17.444  0.00  0.00    +0.000 C 
ENDBRANCH  16  19
ENDBRANCH   1  14
BRANCH   3  21
ATOM     21  C   UNL     1       2.178   6.132  20.675  0.00  0.00    +0.000 C 
ATOM     22  O   UNL     1       1.342   5.238  20.728  0.00  0.00    +0.000 OA
ENDBRANCH   3  21
TORSDOF 5
ENDMDL
MODEL 7
REMARK VINA RESULT:      -6.4      1.957      2.570
REMARK  Name = 
REMARK  7 active torsions:
REMARK  status: ('A' for Active; 'I' for Inactive)
REMARK    1  A    between atoms: C_1  and  O_2
REMARK    2  A    between atoms: O_2  and  C_3
REMARK    3  A    between atoms: C_6  and  C_7
REMARK    4  A    between atoms: C_9  and  C_10
REMARK    5  A    between atoms: C_9  and  C_12
REMARK    6  A    between atoms: C_20  and  O_21
REMARK    7  A    between atoms: O_21  and  C_22
REMARK                            x       y       z     vdW  Elec       q    Type
REMARK                         _______ _______ _______ _____ _____    ______ ____
ROOT
ATOM      1  C   UNL     1       2.543   7.490  18.739  0.00  0.00    +0.000 C 
ATOM      2 CL   UNL     1       2.386   8.975  17.823  0.00  0.00    +0.000 Cl
ATOM      3  C   UNL     1       1.965   7.350  19.955  0.00  0.00    +0.000 C 
ENDROOT
BRANCH   3   4
ATOM      4  C   UNL     1       1.167   8.442  20.558  0.00  0.00    +0.000 A 
ATOM      5  C   UNL     1       0.473   9.346  19.743  0.00  0.00    +0.000 A 
ATOM      6  C   UNL     1      -0.230  10.409  20.313  0.00  0.00    +0.000 A 
ATOM      7  C   UNL     1      -0.246  10.571  21.697  0.00  0.00    +0.000 A 
ATOM      8 CL   UNL     1      -1.083  11.902  22.394  0.00  0.00    +0.000 Cl
ATOM      9  C   UNL     1       0.421   9.664  22.520  0.00  0.00    +0.000 A 
ATOM     10  C   UNL     1       1.125   8.599  21.952  0.00  0.00    +0.000 A 
ENDBRANCH   3   4
BRANCH   1  14
ATOM     11  C   UNL     1       4.798   4.565  16.536  0.00  0.00    +0.000 A 
ATOM     12  C   UNL     1       5.251   5.890  16.653  0.00  0.00    +0.000 A 
ATOM     13  C   UNL     1       4.536   6.836  17.396  0.00  0.00    +0.000 A 
ATOM     14  C   UNL     1       3.333   6.483  18.009  0.00  0.00    +0.000 A 
ATOM     15  C   UNL     1       2.849   5.180  17.834  0.00  0.00    +0.000 A 
ATOM     16  C   UNL     1       3.556   4.219  17.090  0.00  0.00    +0.000 A 
BRANCH  11  18
ATOM     17  C   UNL     1       6.047   4.052  14.592  0.00  0.00    +0.000 C 
ATOM     18  O   UNL     1       5.528   3.630  15.853  0.00  0.00    +0.000 OA
ENDBRANCH  11  18
BRANCH  16  19
ATOM     19  O   UNL     1       2.876   3.032  17.007  0.00  0.00    +0.000 OA
ATOM     20  C   UNL     1       2.902   2.132  18.103  0.00  0.00    +0.000 C 
ENDBRANCH  16  19
ENDBRANCH   1  14
BRANCH   3  21
ATOM     21  C   UNL     1       2.069   6.091  20.753  0.00  0.00    +0.000 C 
ATOM     22  O   UNL     1       1.230   5.198  20.774  0.00  0.00    +0.000 OA
ENDBRANCH   3  21
TORSDOF 5
ENDMDL
MODEL 8
REMARK VINA RESULT:      -6.3      2.840      7.927
REMARK  Name = 
REMARK  7 active torsions:
REMARK  status: ('A' for Active; 'I' for Inactive)
REMARK    1  A    between atoms: C_1  and  O_2
REMARK    2  A    between atoms: O_2  and  C_3
REMARK    3  A    between atoms: C_6  and  C_7
REMARK    4  A    between atoms: C_9  and  C_10
REMARK    5  A    between atoms: C_9  and  C_12
REMARK    6  A    between atoms: C_20  and  O_21
REMARK    7  A    between atoms: O_21  and  C_22
REMARK                            x       y       z     vdW  Elec       q    Type
REMARK                         _______ _______ _______ _____ _____    ______ ____
ROOT
ATOM      1  C   UNL     1       2.080   7.739  19.372  0.00  0.00    +0.000 C 
ATOM      2 CL   UNL     1       2.745   8.584  17.988  0.00  0.00    +0.000 Cl
ATOM      3  C   UNL     1       2.352   6.432  19.594  0.00  0.00    +0.000 C 
ENDROOT
BRANCH   3   4
ATOM      4  C   UNL     1       3.229   5.663  18.681  0.00  0.00    +0.000 A 
ATOM      5  C   UNL     1       4.616   5.854  18.705  0.00  0.00    +0.000 A 
ATOM      6  C   UNL     1       5.435   5.170  17.803  0.00  0.00    +0.000 A 
ATOM      7  C   UNL     1       4.872   4.291  16.880  0.00  0.00    +0.000 A 
ATOM      8 CL   UNL     1       5.879   3.479  15.747  0.00  0.00    +0.000 Cl
ATOM      9  C   UNL     1       3.494   4.074  16.863  0.00  0.00    +0.000 A 
ATOM     10  C   UNL     1       2.674   4.757  17.764  0.00  0.00    +0.000 A 
ENDBRANCH   3   4
BRANCH   1  14
ATOM     11  C   UNL     1      -0.399  10.281  21.798  0.00  0.00    +0.000 A 
ATOM     12  C   UNL     1       0.475   9.350  22.384  0.00  0.00    +0.000 A 
ATOM     13  C   UNL     1       1.307   8.544  21.599  0.00  0.00    +0.000 A 
ATOM     14  C   UNL     1       1.254   8.629  20.206  0.00  0.00    +0.000 A 
ATOM     15  C   UNL     1       0.332   9.509  19.622  0.00  0.00    +0.000 A 
ATOM     16  C   UNL     1      -0.510  10.325  20.400  0.00  0.00    +0.000 A 
BRANCH  11  18
ATOM     17  C   UNL     1      -0.777  12.477  22.596  0.00  0.00    +0.000 C 
ATOM     18  O   UNL     1      -1.171  11.105  22.572  0.00  0.00    +0.000 OA
ENDBRANCH  11  18
BRANCH  16  19
ATOM     19  O   UNL     1      -1.363  11.066  19.625  0.00  0.00    +0.000 OA
ATOM     20  C   UNL     1      -1.753  10.581  18.351  0.00  0.00    +0.000 C 
ENDBRANCH  16  19
ENDBRANCH   1  14
BRANCH   3  21
ATOM     21  C   UNL     1       1.811   5.689  20.772  0.00  0.00    +0.000 C 
ATOM     22  O   UNL     1       2.304   4.674  21.252  0.00  0.00    +0.000 OA
ENDBRANCH   3  21
TORSDOF 5
ENDMDL
MODEL 9
REMARK VINA RESULT:      -6.3      1.915      2.056
REMARK  Name = 
REMARK  7 active torsions:
REMARK  status: ('A' for Active; 'I' for Inactive)
REMARK    1  A    between atoms: C_1  and  O_2
REMARK    2  A    between atoms: O_2  and  C_3
REMARK    3  A    between atoms: C_6  and  C_7
REMARK    4  A    between atoms: C_9  and  C_10
REMARK    5  A    between atoms: C_9  and  C_12
REMARK    6  A    between atoms: C_20  and  O_21
REMARK    7  A    between atoms: O_21  and  C_22
REMARK                            x       y       z     vdW  Elec       q    Type
REMARK                         _______ _______ _______ _____ _____    ______ ____
ROOT
ATOM      1  C   UNL     1       2.466   7.604  18.717  0.00  0.00    +0.000 C 
ATOM      2 CL   UNL     1       2.243   9.109  17.849  0.00  0.00    +0.000 Cl
ATOM      3  C   UNL     1       1.914   7.408  19.937  0.00  0.00    +0.000 C 
ENDROOT
BRANCH   3   4
ATOM      4  C   UNL     1       1.091   8.454  20.586  0.00  0.00    +0.000 A 
ATOM      5  C   UNL     1       0.325   9.334  19.811  0.00  0.00    +0.000 A 
ATOM      6  C   UNL     1      -0.404  10.357  20.423  0.00  0.00    +0.000 A 
ATOM      7  C   UNL     1      -0.374  10.500  21.809  0.00  0.00    +0.000 A 
ATOM      8 CL   UNL     1      -1.244  11.782  22.556  0.00  0.00    +0.000 Cl
ATOM      9  C   UNL     1       0.366   9.615  22.593  0.00  0.00    +0.000 A 
ATOM     10  C   UNL     1       1.096   8.592  21.983  0.00  0.00    +0.000 A 
ENDBRANCH   3   4
BRANCH   1  14
ATOM     11  C   UNL     1       4.882   4.795  16.535  0.00  0.00    +0.000 A 
ATOM     12  C   UNL     1       3.657   4.407  17.103  0.00  0.00    +0.000 A 
ATOM     13  C   UNL     1       2.853   5.326  17.786  0.00  0.00    +0.000 A 
ATOM     14  C   UNL     1       3.277   6.647  17.944  0.00  0.00    +0.000 A 
ATOM     15  C   UNL     1       4.530   7.014  17.436  0.00  0.00    +0.000 A 
ATOM     16  C   UNL     1       5.349   6.101  16.748  0.00  0.00    +0.000 A 
BRANCH  11  18
ATOM     17  C   UNL     1       5.677   4.120  14.410  0.00  0.00    +0.000 C 
ATOM     18  O   UNL     1       5.639   3.905  15.821  0.00  0.00    +0.000 OA
ENDBRANCH  11  18
BRANCH  16  19
ATOM     19  O   UNL     1       6.547   6.658  16.385  0.00  0.00    +0.000 OA
ATOM     20  C   UNL     1       7.547   6.871  17.367  0.00  0.00    +0.000 C 
ENDBRANCH  16  19
ENDBRANCH   1  14
BRANCH   3  21
ATOM     21  C   UNL     1       2.075   6.131  20.695  0.00  0.00    +0.000 C 
ATOM     22  O   UNL     1       1.230   5.247  20.774  0.00  0.00    +0.000 OA
ENDBRANCH   3  21
TORSDOF 5
ENDMDL
