MODEL 1
REMARK VINA RESULT:      -7.3      0.000      0.000
REMARK  Name = 
REMARK  9 active torsions:
REMARK  status: ('A' for Active; 'I' for Inactive)
REMARK    1  A    between atoms: C_1  and  O_2
REMARK    2  A    between atoms: O_2  and  C_3
REMARK    3  A    between atoms: C_13  and  C_14
REMARK    4  A    between atoms: C_14  and  C_15
REMARK    5  A    between atoms: C_15  and  N_16
REMARK    6  A    between atoms: N_16  and  C_17
REMARK    7  A    between atoms: C_17  and  C_18
REMARK    8  A    between atoms: C_18  and  O_19
REMARK    9  A    between atoms: O_19  and  C_20
REMARK                            x       y       z     vdW  Elec       q    Type
REMARK                         _______ _______ _______ _____ _____    ______ ____
ROOT
ATOM      1  C   UNL     1       7.299   6.841  17.669  0.00  0.00    +0.000 A 
ATOM      2  C   UNL     1       7.817   6.527  18.926  0.00  0.00    +0.000 A 
ATOM      3  C   UNL     1       7.389   5.385  19.594  0.00  0.00    +0.000 A 
ATOM      4  C   UNL     1       6.413   4.569  19.026  0.00  0.00    +0.000 A 
ATOM      5  C   UNL     1       5.827   4.888  17.789  0.00  0.00    +0.000 A 
ATOM      6  C   UNL     1       6.302   6.025  17.094  0.00  0.00    +0.000 A 
ATOM      7  C   UNL     1       5.721   6.350  15.737  0.00  0.00    +0.000 C 
ATOM      8  C   UNL     1       5.503   5.061  14.959  0.00  0.00    +0.000 C 
ATOM      9  C   UNL     1       4.543   4.133  15.695  0.00  0.00    +0.000 C 
ATOM     10  C   UNL     1       4.760   4.034  17.193  0.00  0.00    +0.000 C 
ATOM     11  C   UNL     1       3.943   3.283  17.966  0.00  0.00    +0.000 C 
ENDROOT
BRANCH   1  13
ATOM     12  C   UNL     1       8.082   9.069  17.739  0.00  0.00    +0.000 C 
ATOM     13  O   UNL     1       7.699   7.943  16.954  0.00  0.00    +0.000 OA
ENDBRANCH   1  13
BRANCH  11  14
ATOM     14  C   UNL     1       2.814   2.408  17.477  0.00  0.00    +0.000 C 
BRANCH  14  15
ATOM     15  C   UNL     1       1.674   2.358  18.500  0.00  0.00    +0.000 C 
BRANCH  15  16
ATOM     16  N   UNL     1       2.102   2.900  19.795  0.00  0.00    +0.000 NA
ATOM     17  H   UNL     1       3.059   3.242  19.717  0.00  0.00    +0.000 HD
BRANCH  16  18
ATOM     18  C   UNL     1       1.234   3.995  20.254  0.00  0.00    +0.000 C 
BRANCH  18  19
ATOM     19  C   UNL     1       1.995   5.143  20.933  0.00  0.00    +0.000 C 
BRANCH  19  20
ATOM     20  O   UNL     1       2.972   5.693  20.041  0.00  0.00    +0.000 OA
BRANCH  20  21
ATOM     21  C   UNL     1       2.529   6.887  19.496  0.00  0.00    +0.000 A 
ATOM     22  C   UNL     1       2.870   7.140  18.178  0.00  0.00    +0.000 A 
ATOM     23  C   UNL     1       2.429   8.330  17.606  0.00  0.00    +0.000 A 
ATOM     24  C   UNL     1       1.669   9.218  18.360  0.00  0.00    +0.000 A 
ATOM     25  C   UNL     1       1.377   8.876  19.668  0.00  0.00    +0.000 A 
ATOM     26  N   UNL     1       1.792   7.733  20.250  0.00  0.00    +0.000 NA
ENDBRANCH  20  21
ENDBRANCH  19  20
ENDBRANCH  18  19
ENDBRANCH  16  18
ENDBRANCH  15  16
ENDBRANCH  14  15
ENDBRANCH  11  14
TORSDOF 8
ENDMDL
MODEL 2
REMARK VINA RESULT:      -6.8      2.475      6.215
REMARK  Name = 
REMARK  9 active torsions:
REMARK  status: ('A' for Active; 'I' for Inactive)
REMARK    1  A    between atoms: C_1  and  O_2
REMARK    2  A    between atoms: O_2  and  C_3
REMARK    3  A    between atoms: C_13  and  C_14
REMARK    4  A    between atoms: C_14  and  C_15
REMARK    5  A    between atoms: C_15  and  N_16
REMARK    6  A    between atoms: N_16  and  C_17
REMARK    7  A    between atoms: C_17  and  C_18
REMARK    8  A    between atoms: C_18  and  O_19
REMARK    9  A    between atoms: O_19  and  C_20
REMARK                            x       y       z     vdW  Elec       q    Type
REMARK                         _______ _______ _______ _____ _____    ______ ____
ROOT
ATOM      1  C   UNL     1      -0.087  11.035  19.942  0.00  0.00    +0.000 A 
ATOM      2  C   UNL     1      -0.447  11.248  21.274  0.00  0.00    +0.000 A 
ATOM      3  C   UNL     1      -0.110  10.314  22.247  0.00  0.00    +0.000 A 
ATOM      4  C   UNL     1       0.554   9.143  21.891  0.00  0.00    +0.000 A 
ATOM      5  C   UNL     1       0.878   8.868  20.551  0.00  0.00    +0.000 A 
ATOM      6  C   UNL     1       0.575   9.845  19.573  0.00  0.00    +0.000 A 
ATOM      7  C   UNL     1       0.967   9.590  18.136  0.00  0.00    +0.000 C 
ATOM      8  C   UNL     1       2.332   8.919  18.096  0.00  0.00    +0.000 C 
ATOM      9  C   UNL     1       2.312   7.591  18.844  0.00  0.00    +0.000 C 
ATOM     10  C   UNL     1       1.562   7.602  20.162  0.00  0.00    +0.000 C 
ATOM     11  C   UNL     1       1.429   6.474  20.896  0.00  0.00    +0.000 C 
ENDROOT
BRANCH   1  13
ATOM     12  C   UNL     1      -1.762  12.144  18.698  0.00  0.00    +0.000 C 
ATOM     13  O   UNL     1      -0.375  11.931  18.942  0.00  0.00    +0.000 OA
ENDBRANCH   1  13
BRANCH  11  14
ATOM     14  C   UNL     1       2.046   5.132  20.583  0.00  0.00    +0.000 C 
BRANCH  14  15
ATOM     15  C   UNL     1       0.967   4.072  20.345  0.00  0.00    +0.000 C 
BRANCH  15  16
ATOM     16  N   UNL     1       1.209   3.342  19.095  0.00  0.00    +0.000 NA
ATOM     17  H   UNL     1       1.782   3.915  18.477  0.00  0.00    +0.000 HD
BRANCH  16  18
ATOM     18  C   UNL     1       1.885   2.056  19.324  0.00  0.00    +0.000 C 
BRANCH  18  19
ATOM     19  C   UNL     1       3.417   2.143  19.258  0.00  0.00    +0.000 C 
BRANCH  19  20
ATOM     20  O   UNL     1       3.839   2.551  17.951  0.00  0.00    +0.000 OA
BRANCH  20  21
ATOM     21  C   UNL     1       4.540   3.745  18.007  0.00  0.00    +0.000 A 
ATOM     22  C   UNL     1       4.351   4.632  16.961  0.00  0.00    +0.000 A 
ATOM     23  C   UNL     1       5.039   5.842  16.999  0.00  0.00    +0.000 A 
ATOM     24  C   UNL     1       5.881   6.124  18.069  0.00  0.00    +0.000 A 
ATOM     25  C   UNL     1       6.003   5.176  19.069  0.00  0.00    +0.000 A 
ATOM     26  N   UNL     1       5.352   3.995  19.058  0.00  0.00    +0.000 NA
ENDBRANCH  20  21
ENDBRANCH  19  20
ENDBRANCH  18  19
ENDBRANCH  16  18
ENDBRANCH  15  16
ENDBRANCH  14  15
ENDBRANCH  11  14
TORSDOF 8
ENDMDL
MODEL 3
REMARK VINA RESULT:      -6.6      0.863      1.228
REMARK  Name = 
REMARK  9 active torsions:
REMARK  status: ('A' for Active; 'I' for Inactive)
REMARK    1  A    between atoms: C_1  and  O_2
REMARK    2  A    between atoms: O_2  and  C_3
REMARK    3  A    between atoms: C_13  and  C_14
REMARK    4  A    between atoms: C_14  and  C_15
REMARK    5  A    between atoms: C_15  and  N_16
REMARK    6  A    between atoms: N_16  and  C_17
REMARK    7  A    between atoms: C_17  and  C_18
REMARK    8  A    between atoms: C_18  and  O_19
REMARK    9  A    between atoms: O_19  and  C_20
REMARK                            x       y       z     vdW  Elec       q    Type
REMARK                         _______ _______ _______ _____ _____    ______ ____
ROOT
ATOM      1  C   UNL     1       7.465   7.147  17.736  0.00  0.00    +0.000 A 
ATOM      2  C   UNL     1       8.148   6.777  18.896  0.00  0.00    +0.000 A 
ATOM      3  C   UNL     1       7.864   5.567  19.519  0.00  0.00    +0.000 A 
ATOM      4  C   UNL     1       6.870   4.735  19.008  0.00  0.00    +0.000 A 
ATOM      5  C   UNL     1       6.122   5.104  17.877  0.00  0.00    +0.000 A 
ATOM      6  C   UNL     1       6.449   6.314  17.221  0.00  0.00    +0.000 A 
ATOM      7  C   UNL     1       5.692   6.699  15.971  0.00  0.00    +0.000 C 
ATOM      8  C   UNL     1       5.447   5.456  15.126  0.00  0.00    +0.000 C 
ATOM      9  C   UNL     1       4.634   4.422  15.896  0.00  0.00    +0.000 C 
ATOM     10  C   UNL     1       5.036   4.231  17.346  0.00  0.00    +0.000 C 
ATOM     11  C   UNL     1       4.360   3.379  18.149  0.00  0.00    +0.000 C 
ENDROOT
BRANCH   1  13
ATOM     12  C   UNL     1       8.205   9.386  17.875  0.00  0.00    +0.000 C 
ATOM     13  O   UNL     1       7.717   8.319  17.067  0.00  0.00    +0.000 OA
ENDBRANCH   1  13
BRANCH  11  14
ATOM     14  C   UNL     1       3.227   2.474  17.730  0.00  0.00    +0.000 C 
BRANCH  14  15
ATOM     15  C   UNL     1       2.807   1.550  18.878  0.00  0.00    +0.000 C 
BRANCH  15  16
ATOM     16  N   UNL     1       1.445   1.855  19.331  0.00  0.00    +0.000 NA
ATOM     17  H   UNL     1       0.958   0.984  19.543  0.00  0.00    +0.000 HD
BRANCH  16  18
ATOM     18  C   UNL     1       1.434   2.716  20.523  0.00  0.00    +0.000 C 
BRANCH  18  19
ATOM     19  C   UNL     1       1.134   4.191  20.217  0.00  0.00    +0.000 C 
BRANCH  19  20
ATOM     20  O   UNL     1       2.291   4.999  20.465  0.00  0.00    +0.000 OA
BRANCH  20  21
ATOM     21  C   UNL     1       2.140   6.262  19.915  0.00  0.00    +0.000 A 
ATOM     22  C   UNL     1       1.575   7.234  20.723  0.00  0.00    +0.000 A 
ATOM     23  C   UNL     1       1.420   8.513  20.195  0.00  0.00    +0.000 A 
ATOM     24  C   UNL     1       1.831   8.776  18.892  0.00  0.00    +0.000 A 
ATOM     25  C   UNL     1       2.387   7.740  18.163  0.00  0.00    +0.000 A 
ATOM     26  N   UNL     1       2.546   6.492  18.647  0.00  0.00    +0.000 NA
ENDBRANCH  20  21
ENDBRANCH  19  20
ENDBRANCH  18  19
ENDBRANCH  16  18
ENDBRANCH  15  16
ENDBRANCH  14  15
ENDBRANCH  11  14
TORSDOF 8
ENDMDL
MODEL 4
REMARK VINA RESULT:      -6.6      2.552      6.309
REMARK  Name = 
REMARK  9 active torsions:
REMARK  status: ('A' for Active; 'I' for Inactive)
REMARK    1  A    between atoms: C_1  and  O_2
REMARK    2  A    between atoms: O_2  and  C_3
REMARK    3  A    between atoms: C_13  and  C_14
REMARK    4  A    between atoms: C_14  and  C_15
REMARK    5  A    between atoms: C_15  and  N_16
REMARK    6  A    between atoms: N_16  and  C_17
REMARK    7  A    between atoms: C_17  and  C_18
REMARK    8  A    between atoms: C_18  and  O_19
REMARK    9  A    between atoms: O_19  and  C_20
REMARK                            x       y       z     vdW  Elec       q    Type
REMARK                         _______ _______ _______ _____ _____    ______ ____
ROOT
ATOM      1  C   UNL     1       0.022  10.849  19.960  0.00  0.00    +0.000 A 
ATOM      2  C   UNL     1      -0.280  11.051  21.308  0.00  0.00    +0.000 A 
ATOM      3  C   UNL     1       0.122  10.122  22.261  0.00  0.00    +0.000 A 
ATOM      4  C   UNL     1       0.796   8.968  21.870  0.00  0.00    +0.000 A 
ATOM      5  C   UNL     1       1.065   8.705  20.515  0.00  0.00    +0.000 A 
ATOM      6  C   UNL     1       0.694   9.676  19.556  0.00  0.00    +0.000 A 
ATOM      7  C   UNL     1       1.025   9.434  18.102  0.00  0.00    +0.000 C 
ATOM      8  C   UNL     1       2.402   8.796  17.996  0.00  0.00    +0.000 C 
ATOM      9  C   UNL     1       2.448   7.466  18.739  0.00  0.00    +0.000 C 
ATOM     10  C   UNL     1       1.759   7.455  20.091  0.00  0.00    +0.000 C 
ATOM     11  C   UNL     1       1.685   6.323  20.826  0.00  0.00    +0.000 C 
ENDROOT
BRANCH   1  13
ATOM     12  C   UNL     1      -1.733  11.907  18.784  0.00  0.00    +0.000 C 
ATOM     13  O   UNL     1      -0.331  11.742  18.977  0.00  0.00    +0.000 OA
ENDBRANCH   1  13
BRANCH  11  14
ATOM     14  C   UNL     1       2.319   4.997  20.480  0.00  0.00    +0.000 C 
BRANCH  14  15
ATOM     15  C   UNL     1       1.365   4.131  19.651  0.00  0.00    +0.000 C 
BRANCH  15  16
ATOM     16  N   UNL     1       1.957   3.785  18.353  0.00  0.00    +0.000 NA
ATOM     17  H   UNL     1       1.546   4.374  17.629  0.00  0.00    +0.000 HD
BRANCH  16  18
ATOM     18  C   UNL     1       3.418   3.957  18.345  0.00  0.00    +0.000 C 
BRANCH  18  19
ATOM     19  C   UNL     1       4.113   3.267  17.162  0.00  0.00    +0.000 C 
BRANCH  19  20
ATOM     20  O   UNL     1       4.623   4.241  16.243  0.00  0.00    +0.000 OA
BRANCH  20  21
ATOM     21  C   UNL     1       5.607   5.015  16.838  0.00  0.00    +0.000 A 
ATOM     22  C   UNL     1       5.478   6.389  16.723  0.00  0.00    +0.000 A 
ATOM     23  C   UNL     1       6.450   7.188  17.318  0.00  0.00    +0.000 A 
ATOM     24  C   UNL     1       7.506   6.596  18.003  0.00  0.00    +0.000 A 
ATOM     25  C   UNL     1       7.548   5.215  18.066  0.00  0.00    +0.000 A 
ATOM     26  N   UNL     1       6.623   4.415  17.496  0.00  0.00    +0.000 NA
ENDBRANCH  20  21
ENDBRANCH  19  20
ENDBRANCH  18  19
ENDBRANCH  16  18
ENDBRANCH  15  16
ENDBRANCH  14  15
ENDBRANCH  11  14
TORSDOF 8
ENDMDL
MODEL 5
REMARK VINA RESULT:      -6.6      2.500      6.265
REMARK  Name = 
REMARK  9 active torsions:
REMARK  status: ('A' for Active; 'I' for Inactive)
REMARK    1  A    between atoms: C_1  and  O_2
REMARK    2  A    between atoms: O_2  and  C_3
REMARK    3  A    between atoms: C_13  and  C_14
REMARK    4  A    between atoms: C_14  and  C_15
REMARK    5  A    between atoms: C_15  and  N_16
REMARK    6  A    between atoms: N_16  and  C_17
REMARK    7  A    between atoms: C_17  and  C_18
REMARK    8  A    between atoms: C_18  and  O_19
REMARK    9  A    between atoms: O_19  and  C_20
REMARK                            x       y       z     vdW  Elec       q    Type
REMARK                         _______ _______ _______ _____ _____    ______ ____
ROOT
ATOM      1  C   UNL     1      -0.108  10.768  19.728  0.00  0.00    +0.000 A 
ATOM      2  C   UNL     1      -0.432  10.991  21.067  0.00  0.00    +0.000 A 
ATOM      3  C   UNL     1       0.016  10.116  22.050  0.00  0.00    +0.000 A 
ATOM      4  C   UNL     1       0.760   8.992  21.698  0.00  0.00    +0.000 A 
ATOM      5  C   UNL     1       1.054   8.706  20.353  0.00  0.00    +0.000 A 
ATOM      6  C   UNL     1       0.635   9.625  19.364  0.00  0.00    +0.000 A 
ATOM      7  C   UNL     1       0.991   9.361  17.919  0.00  0.00    +0.000 C 
ATOM      8  C   UNL     1       2.405   8.801  17.841  0.00  0.00    +0.000 C 
ATOM      9  C   UNL     1       2.522   7.499  18.624  0.00  0.00    +0.000 C 
ATOM     10  C   UNL     1       1.824   7.487  19.970  0.00  0.00    +0.000 C 
ATOM     11  C   UNL     1       1.812   6.375  20.738  0.00  0.00    +0.000 C 
ENDROOT
BRANCH   1  13
ATOM     12  C   UNL     1      -0.904  12.912  19.133  0.00  0.00    +0.000 C 
ATOM     13  O   UNL     1      -0.505  11.608  18.717  0.00  0.00    +0.000 OA
ENDBRANCH   1  13
BRANCH  11  14
ATOM     14  C   UNL     1       2.525   5.079  20.436  0.00  0.00    +0.000 C 
BRANCH  14  15
ATOM     15  C   UNL     1       1.656   3.873  20.808  0.00  0.00    +0.000 C 
BRANCH  15  16
ATOM     16  N   UNL     1       1.859   2.765  19.868  0.00  0.00    +0.000 NA
ATOM     17  H   UNL     1       1.233   1.998  20.113  0.00  0.00    +0.000 HD
BRANCH  16  18
ATOM     18  C   UNL     1       1.610   3.165  18.474  0.00  0.00    +0.000 C 
BRANCH  18  19
ATOM     19  C   UNL     1       2.699   2.701  17.495  0.00  0.00    +0.000 C 
BRANCH  19  20
ATOM     20  O   UNL     1       3.992   3.119  17.950  0.00  0.00    +0.000 OA
BRANCH  20  21
ATOM     21  C   UNL     1       4.623   3.900  16.995  0.00  0.00    +0.000 A 
ATOM     22  C   UNL     1       4.438   5.269  17.084  0.00  0.00    +0.000 A 
ATOM     23  C   UNL     1       5.069   6.076  16.140  0.00  0.00    +0.000 A 
ATOM     24  C   UNL     1       5.857   5.495  15.152  0.00  0.00    +0.000 A 
ATOM     25  C   UNL     1       5.984   4.117  15.147  0.00  0.00    +0.000 A 
ATOM     26  N   UNL     1       5.383   3.311  16.045  0.00  0.00    +0.000 NA
ENDBRANCH  20  21
ENDBRANCH  19  20
ENDBRANCH  18  19
ENDBRANCH  16  18
ENDBRANCH  15  16
ENDBRANCH  14  15
ENDBRANCH  11  14
TORSDOF 8
ENDMDL
MODEL 6
REMARK VINA RESULT:      -6.5      3.758      6.463
REMARK  Name = 
REMARK  9 active torsions:
REMARK  status: ('A' for Active; 'I' for Inactive)
REMARK    1  A    between atoms: C_1  and  O_2
REMARK    2  A    between atoms: O_2  and  C_3
REMARK    3  A    between atoms: C_13  and  C_14
REMARK    4  A    between atoms: C_14  and  C_15
REMARK    5  A    between atoms: C_15  and  N_16
REMARK    6  A    between atoms: N_16  and  C_17
REMARK    7  A    between atoms: C_17  and  C_18
REMARK    8  A    between atoms: C_18  and  O_19
REMARK    9  A    between atoms: O_19  and  C_20
REMARK                            x       y       z     vdW  Elec       q    Type
REMARK                         _______ _______ _______ _____ _____    ______ ____
ROOT
ATOM      1  C   UNL     1       3.306   5.283  18.481  0.00  0.00    +0.000 A 
ATOM      2  C   UNL     1       3.051   4.208  19.335  0.00  0.00    +0.000 A 
ATOM      3  C   UNL     1       2.266   4.388  20.468  0.00  0.00    +0.000 A 
ATOM      4  C   UNL     1       1.763   5.650  20.776  0.00  0.00    +0.000 A 
ATOM      5  C   UNL     1       2.051   6.765  19.971  0.00  0.00    +0.000 A 
ATOM      6  C   UNL     1       2.810   6.565  18.794  0.00  0.00    +0.000 A 
ATOM      7  C   UNL     1       3.081   7.744  17.887  0.00  0.00    +0.000 C 
ATOM      8  C   UNL     1       1.839   8.620  17.813  0.00  0.00    +0.000 C 
ATOM      9  C   UNL     1       1.451   9.139  19.192  0.00  0.00    +0.000 C 
ATOM     10  C   UNL     1       1.539   8.123  20.315  0.00  0.00    +0.000 C 
ATOM     11  C   UNL     1       1.271   8.472  21.593  0.00  0.00    +0.000 C 
ENDROOT
BRANCH   1  13
ATOM     12  C   UNL     1       4.976   4.072  17.327  0.00  0.00    +0.000 C 
ATOM     13  O   UNL     1       4.056   5.160  17.337  0.00  0.00    +0.000 OA
ENDBRANCH   1  13
BRANCH  11  14
ATOM     14  C   UNL     1       0.780   9.822  22.060  0.00  0.00    +0.000 C 
BRANCH  14  15
ATOM     15  C   UNL     1      -0.495   9.684  22.898  0.00  0.00    +0.000 C 
BRANCH  15  16
ATOM     16  N   UNL     1      -1.085  10.996  23.184  0.00  0.00    +0.000 NA
ATOM     17  H   UNL     1      -0.872  11.258  24.146  0.00  0.00    +0.000 HD
BRANCH  16  18
ATOM     18  C   UNL     1      -0.584  12.041  22.278  0.00  0.00    +0.000 C 
BRANCH  18  19
ATOM     19  C   UNL     1      -1.603  12.477  21.215  0.00  0.00    +0.000 C 
BRANCH  19  20
ATOM     20  O   UNL     1      -1.117  12.176  19.901  0.00  0.00    +0.000 OA
BRANCH  20  21
ATOM     21  C   UNL     1      -2.110  11.599  19.126  0.00  0.00    +0.000 A 
ATOM     22  C   UNL     1      -1.751  10.498  18.367  0.00  0.00    +0.000 A 
ATOM     23  C   UNL     1      -2.733   9.896  17.584  0.00  0.00    +0.000 A 
ATOM     24  C   UNL     1      -4.027  10.407  17.588  0.00  0.00    +0.000 A 
ATOM     25  C   UNL     1      -4.290  11.509  18.382  0.00  0.00    +0.000 A 
ATOM     26  N   UNL     1      -3.358  12.114  19.146  0.00  0.00    +0.000 NA
ENDBRANCH  20  21
ENDBRANCH  19  20
ENDBRANCH  18  19
ENDBRANCH  16  18
ENDBRANCH  15  16
ENDBRANCH  14  15
ENDBRANCH  11  14
TORSDOF 8
ENDMDL
MODEL 7
REMARK VINA RESULT:      -6.5      2.549      6.750
REMARK  Name = 
REMARK  9 active torsions:
REMARK  status: ('A' for Active; 'I' for Inactive)
REMARK    1  A    between atoms: C_1  and  O_2
REMARK    2  A    between atoms: O_2  and  C_3
REMARK    3  A    between atoms: C_13  and  C_14
REMARK    4  A    between atoms: C_14  and  C_15
REMARK    5  A    between atoms: C_15  and  N_16
REMARK    6  A    between atoms: N_16  and  C_17
REMARK    7  A    between atoms: C_17  and  C_18
REMARK    8  A    between atoms: C_18  and  O_19
REMARK    9  A    between atoms: O_19  and  C_20
REMARK                            x       y       z     vdW  Elec       q    Type
REMARK                         _______ _______ _______ _____ _____    ______ ____
ROOT
ATOM      1  C   UNL     1       0.413  10.839  21.089  0.00  0.00    +0.000 A 
ATOM      2  C   UNL     1       0.111  11.775  20.098  0.00  0.00    +0.000 A 
ATOM      3  C   UNL     1       0.382  11.493  18.764  0.00  0.00    +0.000 A 
ATOM      4  C   UNL     1       0.990  10.289  18.415  0.00  0.00    +0.000 A 
ATOM      5  C   UNL     1       1.361   9.350  19.392  0.00  0.00    +0.000 A 
ATOM      6  C   UNL     1       1.040   9.624  20.742  0.00  0.00    +0.000 A 
ATOM      7  C   UNL     1       1.382   8.599  21.799  0.00  0.00    +0.000 C 
ATOM      8  C   UNL     1       1.114   7.203  21.256  0.00  0.00    +0.000 C 
ATOM      9  C   UNL     1       1.954   6.928  20.014  0.00  0.00    +0.000 C 
ATOM     10  C   UNL     1       2.040   8.074  19.024  0.00  0.00    +0.000 C 
ATOM     11  C   UNL     1       2.795   7.974  17.907  0.00  0.00    +0.000 C 
ENDROOT
BRANCH   1  13
ATOM     12  C   UNL     1      -0.978  11.883  22.689  0.00  0.00    +0.000 C 
ATOM     13  O   UNL     1       0.150  11.054  22.419  0.00  0.00    +0.000 OA
ENDBRANCH   1  13
BRANCH  11  14
ATOM     14  C   UNL     1       3.550   6.748  17.453  0.00  0.00    +0.000 C 
BRANCH  14  15
ATOM     15  C   UNL     1       5.033   7.065  17.234  0.00  0.00    +0.000 C 
BRANCH  15  16
ATOM     16  N   UNL     1       5.887   6.186  18.040  0.00  0.00    +0.000 NA
ATOM     17  H   UNL     1       6.554   6.752  18.563  0.00  0.00    +0.000 HD
BRANCH  16  18
ATOM     18  C   UNL     1       5.109   5.365  18.981  0.00  0.00    +0.000 C 
BRANCH  18  19
ATOM     19  C   UNL     1       5.229   3.855  18.727  0.00  0.00    +0.000 C 
BRANCH  19  20
ATOM     20  O   UNL     1       3.988   3.327  18.246  0.00  0.00    +0.000 OA
BRANCH  20  21
ATOM     21  C   UNL     1       3.078   3.180  19.281  0.00  0.00    +0.000 A 
ATOM     22  C   UNL     1       1.757   3.488  19.003  0.00  0.00    +0.000 A 
ATOM     23  C   UNL     1       0.823   3.342  20.025  0.00  0.00    +0.000 A 
ATOM     24  C   UNL     1       1.234   2.895  21.276  0.00  0.00    +0.000 A 
ATOM     25  C   UNL     1       2.575   2.609  21.457  0.00  0.00    +0.000 A 
ATOM     26  N   UNL     1       3.502   2.745  20.488  0.00  0.00    +0.000 NA
ENDBRANCH  20  21
ENDBRANCH  19  20
ENDBRANCH  18  19
ENDBRANCH  16  18
ENDBRANCH  15  16
ENDBRANCH  14  15
ENDBRANCH  11  14
TORSDOF 8
ENDMDL
MODEL 8
REMARK VINA RESULT:      -6.4      2.922      7.228
REMARK  Name = 
REMARK  9 active torsions:
REMARK  status: ('A' for Active; 'I' for Inactive)
REMARK    1  A    between atoms: C_1  and  O_2
REMARK    2  A    between atoms: O_2  and  C_3
REMARK    3  A    between atoms: C_13  and  C_14
REMARK    4  A    between atoms: C_14  and  C_15
REMARK    5  A    between atoms: C_15  and  N_16
REMARK    6  A    between atoms: N_16  and  C_17
REMARK    7  A    between atoms: C_17  and  C_18
REMARK    8  A    between atoms: C_18  and  O_19
REMARK    9  A    between atoms: O_19  and  C_20
REMARK                            x       y       z     vdW  Elec       q    Type
REMARK                         _______ _______ _______ _____ _____    ______ ____
ROOT
ATOM      1  C   UNL     1      -0.844  11.129  21.694  0.00  0.00    +0.000 A 
ATOM      2  C   UNL     1      -0.728  10.364  22.857  0.00  0.00    +0.000 A 
ATOM      3  C   UNL     1       0.152   9.289  22.900  0.00  0.00    +0.000 A 
ATOM      4  C   UNL     1       0.894   8.947  21.772  0.00  0.00    +0.000 A 
ATOM      5  C   UNL     1       0.757   9.658  20.567  0.00  0.00    +0.000 A 
ATOM      6  C   UNL     1      -0.105  10.780  20.545  0.00  0.00    +0.000 A 
ATOM      7  C   UNL     1      -0.221  11.589  19.273  0.00  0.00    +0.000 C 
ATOM      8  C   UNL     1       1.150  11.711  18.625  0.00  0.00    +0.000 C 
ATOM      9  C   UNL     1       1.719  10.339  18.284  0.00  0.00    +0.000 C 
ATOM     10  C   UNL     1       1.526   9.276  19.349  0.00  0.00    +0.000 C 
ATOM     11  C   UNL     1       1.941   8.005  19.147  0.00  0.00    +0.000 C 
ENDROOT
BRANCH   1  13
ATOM     12  C   UNL     1      -2.633  12.340  22.652  0.00  0.00    +0.000 C 
ATOM     13  O   UNL     1      -1.681  12.213  21.599  0.00  0.00    +0.000 OA
ENDBRANCH   1  13
BRANCH  11  14
ATOM     14  C   UNL     1       2.697   7.498  17.942  0.00  0.00    +0.000 C 
BRANCH  14  15
ATOM     15  C   UNL     1       3.212   6.074  18.174  0.00  0.00    +0.000 C 
BRANCH  15  16
ATOM     16  N   UNL     1       3.893   5.963  19.469  0.00  0.00    +0.000 NA
ATOM     17  H   UNL     1       3.331   5.390  20.097  0.00  0.00    +0.000 HD
BRANCH  16  18
ATOM     18  C   UNL     1       5.233   5.369  19.343  0.00  0.00    +0.000 C 
BRANCH  18  19
ATOM     19  C   UNL     1       5.232   3.976  18.696  0.00  0.00    +0.000 C 
BRANCH  19  20
ATOM     20  O   UNL     1       4.823   2.983  19.644  0.00  0.00    +0.000 OA
BRANCH  20  21
ATOM     21  C   UNL     1       3.442   2.879  19.688  0.00  0.00    +0.000 A 
ATOM     22  C   UNL     1       2.811   2.420  18.544  0.00  0.00    +0.000 A 
ATOM     23  C   UNL     1       1.424   2.301  18.567  0.00  0.00    +0.000 A 
ATOM     24  C   UNL     1       0.721   2.638  19.719  0.00  0.00    +0.000 A 
ATOM     25  C   UNL     1       1.440   3.084  20.813  0.00  0.00    +0.000 A 
ATOM     26  N   UNL     1       2.783   3.214  20.819  0.00  0.00    +0.000 NA
ENDBRANCH  20  21
ENDBRANCH  19  20
ENDBRANCH  18  19
ENDBRANCH  16  18
ENDBRANCH  15  16
ENDBRANCH  14  15
ENDBRANCH  11  14
TORSDOF 8
ENDMDL
MODEL 9
REMARK VINA RESULT:      -6.3      2.964      6.959
REMARK  Name = 
REMARK  9 active torsions:
REMARK  status: ('A' for Active; 'I' for Inactive)
REMARK    1  A    between atoms: C_1  and  O_2
REMARK    2  A    between atoms: O_2  and  C_3
REMARK    3  A    between atoms: C_13  and  C_14
REMARK    4  A    between atoms: C_14  and  C_15
REMARK    5  A    between atoms: C_15  and  N_16
REMARK    6  A    between atoms: N_16  and  C_17
REMARK    7  A    between atoms: C_17  and  C_18
REMARK    8  A    between atoms: C_18  and  O_19
REMARK    9  A    between atoms: O_19  and  C_20
REMARK                            x       y       z     vdW  Elec       q    Type
REMARK                         _______ _______ _______ _____ _____    ______ ____
ROOT
ATOM      1  C   UNL     1      -1.087  11.364  21.010  0.00  0.00    +0.000 A 
ATOM      2  C   UNL     1      -1.210  11.264  22.397  0.00  0.00    +0.000 A 
ATOM      3  C   UNL     1      -0.503  10.289  23.092  0.00  0.00    +0.000 A 
ATOM      4  C   UNL     1       0.301   9.384  22.403  0.00  0.00    +0.000 A 
ATOM      5  C   UNL     1       0.401   9.419  21.002  0.00  0.00    +0.000 A 
ATOM      6  C   UNL     1      -0.282  10.443  20.305  0.00  0.00    +0.000 A 
ATOM      7  C   UNL     1      -0.141  10.529  18.803  0.00  0.00    +0.000 C 
ATOM      8  C   UNL     1       1.297  10.218  18.413  0.00  0.00    +0.000 C 
ATOM      9  C   UNL     1       1.697   8.819  18.866  0.00  0.00    +0.000 C 
ATOM     10  C   UNL     1       1.238   8.433  20.259  0.00  0.00    +0.000 C 
ATOM     11  C   UNL     1       1.485   7.201  20.758  0.00  0.00    +0.000 C 
ENDROOT
BRANCH   1  13
ATOM     12  C   UNL     1      -1.992  13.545  20.953  0.00  0.00    +0.000 C 
ATOM     13  O   UNL     1      -1.743  12.318  20.273  0.00  0.00    +0.000 OA
ENDBRANCH   1  13
BRANCH  11  14
ATOM     14  C   UNL     1       2.289   6.115  20.083  0.00  0.00    +0.000 C 
BRANCH  14  15
ATOM     15  C   UNL     1       2.287   4.831  20.919  0.00  0.00    +0.000 C 
BRANCH  15  16
ATOM     16  N   UNL     1       2.191   3.643  20.062  0.00  0.00    +0.000 NA
ATOM     17  H   UNL     1       2.331   3.918  19.090  0.00  0.00    +0.000 HD
BRANCH  16  18
ATOM     18  C   UNL     1       3.182   2.616  20.422  0.00  0.00    +0.000 C 
BRANCH  18  19
ATOM     19  C   UNL     1       4.294   2.440  19.378  0.00  0.00    +0.000 C 
BRANCH  19  20
ATOM     20  O   UNL     1       5.248   3.504  19.477  0.00  0.00    +0.000 OA
BRANCH  20  21
ATOM     21  C   UNL     1       5.221   4.301  18.344  0.00  0.00    +0.000 A 
ATOM     22  C   UNL     1       5.585   5.628  18.502  0.00  0.00    +0.000 A 
ATOM     23  C   UNL     1       5.572   6.447  17.377  0.00  0.00    +0.000 A 
ATOM     24  C   UNL     1       5.204   5.919  16.143  0.00  0.00    +0.000 A 
ATOM     25  C   UNL     1       4.860   4.581  16.085  0.00  0.00    +0.000 A 
ATOM     26  N   UNL     1       4.859   3.765  17.158  0.00  0.00    +0.000 NA
ENDBRANCH  20  21
ENDBRANCH  19  20
ENDBRANCH  18  19
ENDBRANCH  16  18
ENDBRANCH  15  16
ENDBRANCH  14  15
ENDBRANCH  11  14
TORSDOF 8
ENDMDL
