MODEL 1
REMARK VINA RESULT:      -7.1      0.000      0.000
REMARK  Name = 
REMARK  4 active torsions:
REMARK  status: ('A' for Active; 'I' for Inactive)
REMARK    1  A    between atoms: C_1  and  C_2
REMARK    2  A    between atoms: C_2  and  C_3
REMARK    3  A    between atoms: C_3  and  C_4
REMARK    4  A    between atoms: N_11  and  C_12
REMARK                            x       y       z     vdW  Elec       q    Type
REMARK                         _______ _______ _______ _____ _____    ______ ____
ROOT
ATOM      1  C   UNL     1       3.460   4.959  19.507  0.00  0.00    +0.000 C 
ATOM      2  N   UNL     1       2.680   4.538  20.658  0.00  0.00    +0.000 NA
ATOM      3  C   UNL     1       2.419   3.319  20.954  0.00  0.00    +0.000 C 
ATOM      4  N   UNL     1       1.671   3.020  22.117  0.00  0.00    +0.000 N 
ATOM      5  N   UNL     1       2.925   2.266  20.166  0.00  0.00    +0.000 NA
ATOM      6  C   UNL     1       3.670   2.465  19.139  0.00  0.00    +0.000 C 
ATOM      7  N   UNL     1       4.245   1.306  18.542  0.00  0.00    +0.000 N 
ATOM      8  N   UNL     1       3.991   3.821  18.725  0.00  0.00    +0.000 N 
ATOM      9  H   UNL     1       1.329   3.776  22.728  0.00  0.00    +0.000 HD
ATOM     10  H   UNL     1       1.491   2.040  22.378  0.00  0.00    +0.000 HD
ATOM     11  H   UNL     1       3.960   0.374  18.875  0.00  0.00    +0.000 HD
ATOM     12  H   UNL     1       5.039   1.332  17.896  0.00  0.00    +0.000 HD
ENDROOT
BRANCH   8  13
ATOM     13  C   UNL     1       4.876   4.084  17.601  0.00  0.00    +0.000 A 
ATOM     14  C   UNL     1       6.214   4.503  17.789  0.00  0.00    +0.000 A 
ATOM     15  C   UNL     1       7.032   4.826  16.701  0.00  0.00    +0.000 A 
ATOM     16  C   UNL     1       6.544   4.719  15.400  0.00  0.00    +0.000 A 
ATOM     17 CL   UNL     1       7.559   5.157  14.038  0.00  0.00    +0.000 Cl
ATOM     18  C   UNL     1       5.244   4.260  15.184  0.00  0.00    +0.000 A 
ATOM     19  C   UNL     1       4.422   3.938  16.268  0.00  0.00    +0.000 A 
ENDBRANCH   8  13
BRANCH   1  20
ATOM     20  C   UNL     1       2.545   5.852  18.631  0.00  0.00    +0.000 C 
BRANCH  20  22
ATOM     21  C   UNL     1       2.260   8.262  17.869  0.00  0.00    +0.000 C 
ATOM     22  C   UNL     1       3.256   7.154  18.204  0.00  0.00    +0.000 C 
ENDBRANCH  20  22
ENDBRANCH   1  20
TORSDOF 3
ENDMDL
MODEL 2
REMARK VINA RESULT:      -7.1      0.123      1.144
REMARK  Name = 
REMARK  4 active torsions:
REMARK  status: ('A' for Active; 'I' for Inactive)
REMARK    1  A    between atoms: C_1  and  C_2
REMARK    2  A    between atoms: C_2  and  C_3
REMARK    3  A    between atoms: C_3  and  C_4
REMARK    4  A    between atoms: N_11  and  C_12
REMARK                            x       y       z     vdW  Elec       q    Type
REMARK                         _______ _______ _______ _____ _____    ______ ____
ROOT
ATOM      1  C   UNL     1       3.402   4.986  19.594  0.00  0.00    +0.000 C 
ATOM      2  N   UNL     1       2.649   4.510  20.741  0.00  0.00    +0.000 NA
ATOM      3  C   UNL     1       2.414   3.277  20.998  0.00  0.00    +0.000 C 
ATOM      4  N   UNL     1       1.691   2.924  22.161  0.00  0.00    +0.000 N 
ATOM      5  N   UNL     1       2.925   2.263  20.164  0.00  0.00    +0.000 NA
ATOM      6  C   UNL     1       3.648   2.511  19.133  0.00  0.00    +0.000 C 
ATOM      7  N   UNL     1       4.233   1.385  18.485  0.00  0.00    +0.000 N 
ATOM      8  N   UNL     1       3.939   3.886  18.763  0.00  0.00    +0.000 N 
ATOM      9  H   UNL     1       1.346   3.651  22.805  0.00  0.00    +0.000 HD
ATOM     10  H   UNL     1       1.532   1.932  22.390  0.00  0.00    +0.000 HD
ATOM     11  H   UNL     1       3.969   0.436  18.789  0.00  0.00    +0.000 HD
ATOM     12  H   UNL     1       5.015   1.448  17.828  0.00  0.00    +0.000 HD
ENDROOT
BRANCH   8  13
ATOM     13  C   UNL     1       4.800   4.205  17.635  0.00  0.00    +0.000 A 
ATOM     14  C   UNL     1       4.331   4.153  16.301  0.00  0.00    +0.000 A 
ATOM     15  C   UNL     1       5.189   4.388  15.221  0.00  0.00    +0.000 A 
ATOM     16  C   UNL     1       6.528   4.703  15.445  0.00  0.00    +0.000 A 
ATOM     17 CL   UNL     1       7.610   4.964  14.089  0.00  0.00    +0.000 Cl
ATOM     18  C   UNL     1       7.004   4.811  16.751  0.00  0.00    +0.000 A 
ATOM     19  C   UNL     1       6.152   4.575  17.834  0.00  0.00    +0.000 A 
ENDBRANCH   8  13
BRANCH   1  20
ATOM     20  C   UNL     1       2.457   5.894  18.766  0.00  0.00    +0.000 C 
BRANCH  20  22
ATOM     21  C   UNL     1       2.165   8.274  17.918  0.00  0.00    +0.000 C 
ATOM     22  C   UNL     1       3.164   7.186  18.306  0.00  0.00    +0.000 C 
ENDBRANCH  20  22
ENDBRANCH   1  20
TORSDOF 3
ENDMDL
MODEL 3
REMARK VINA RESULT:      -6.8      0.951      1.005
REMARK  Name = 
REMARK  4 active torsions:
REMARK  status: ('A' for Active; 'I' for Inactive)
REMARK    1  A    between atoms: C_1  and  C_2
REMARK    2  A    between atoms: C_2  and  C_3
REMARK    3  A    between atoms: C_3  and  C_4
REMARK    4  A    between atoms: N_11  and  C_12
REMARK                            x       y       z     vdW  Elec       q    Type
REMARK                         _______ _______ _______ _____ _____    ______ ____
ROOT
ATOM      1  C   UNL     1       4.028   5.619  18.791  0.00  0.00    +0.000 C 
ATOM      2  N   UNL     1       3.239   5.342  19.979  0.00  0.00    +0.000 NA
ATOM      3  C   UNL     1       2.811   4.182  20.315  0.00  0.00    +0.000 C 
ATOM      4  N   UNL     1       2.071   4.022  21.510  0.00  0.00    +0.000 N 
ATOM      5  N   UNL     1       3.125   3.050  19.537  0.00  0.00    +0.000 NA
ATOM      6  C   UNL     1       3.850   3.114  18.481  0.00  0.00    +0.000 C 
ATOM      7  N   UNL     1       4.224   1.871  17.893  0.00  0.00    +0.000 N 
ATOM      8  N   UNL     1       4.354   4.398  18.021  0.00  0.00    +0.000 N 
ATOM      9  H   UNL     1       1.869   4.833  22.114  0.00  0.00    +0.000 HD
ATOM     10  H   UNL     1       1.758   3.085  21.803  0.00  0.00    +0.000 HD
ATOM     11  H   UNL     1       3.816   0.999  18.260  0.00  0.00    +0.000 HD
ATOM     12  H   UNL     1       4.988   1.765  17.220  0.00  0.00    +0.000 HD
ENDROOT
BRANCH   8  13
ATOM     13  C   UNL     1       5.225   4.504  16.861  0.00  0.00    +0.000 A 
ATOM     14  C   UNL     1       6.601   4.805  16.987  0.00  0.00    +0.000 A 
ATOM     15  C   UNL     1       7.412   4.979  15.860  0.00  0.00    +0.000 A 
ATOM     16  C   UNL     1       6.876   4.834  14.582  0.00  0.00    +0.000 A 
ATOM     17 CL   UNL     1       7.885   5.085  13.169  0.00  0.00    +0.000 Cl
ATOM     18  C   UNL     1       5.534   4.487  14.429  0.00  0.00    +0.000 A 
ATOM     19  C   UNL     1       4.718   4.315  15.552  0.00  0.00    +0.000 A 
ENDBRANCH   8  13
BRANCH   1  20
ATOM     20  C   UNL     1       3.224   6.621  17.925  0.00  0.00    +0.000 C 
BRANCH  20  22
ATOM     21  C   UNL     1       1.831   8.748  17.983  0.00  0.00    +0.000 C 
ATOM     22  C   UNL     1       2.373   7.572  18.793  0.00  0.00    +0.000 C 
ENDBRANCH  20  22
ENDBRANCH   1  20
TORSDOF 3
ENDMDL
MODEL 4
REMARK VINA RESULT:      -6.7      3.098      4.933
REMARK  Name = 
REMARK  4 active torsions:
REMARK  status: ('A' for Active; 'I' for Inactive)
REMARK    1  A    between atoms: C_1  and  C_2
REMARK    2  A    between atoms: C_2  and  C_3
REMARK    3  A    between atoms: C_3  and  C_4
REMARK    4  A    between atoms: N_11  and  C_12
REMARK                            x       y       z     vdW  Elec       q    Type
REMARK                         _______ _______ _______ _____ _____    ______ ____
ROOT
ATOM      1  C   UNL     1       2.525   3.999  20.249  0.00  0.00    +0.000 C 
ATOM      2  N   UNL     1       3.311   2.798  20.471  0.00  0.00    +0.000 NA
ATOM      3  C   UNL     1       4.521   2.636  20.080  0.00  0.00    +0.000 C 
ATOM      4  N   UNL     1       5.203   1.432  20.374  0.00  0.00    +0.000 N 
ATOM      5  N   UNL     1       5.202   3.674  19.414  0.00  0.00    +0.000 NA
ATOM      6  C   UNL     1       4.667   4.816  19.179  0.00  0.00    +0.000 C 
ATOM      7  N   UNL     1       5.527   5.822  18.651  0.00  0.00    +0.000 N 
ATOM      8  N   UNL     1       3.289   5.069  19.570  0.00  0.00    +0.000 N 
ATOM      9  H   UNL     1       4.733   0.679  20.898  0.00  0.00    +0.000 HD
ATOM     10  H   UNL     1       6.187   1.314  20.094  0.00  0.00    +0.000 HD
ATOM     11  H   UNL     1       6.489   5.569  18.379  0.00  0.00    +0.000 HD
ATOM     12  H   UNL     1       5.307   6.821  18.656  0.00  0.00    +0.000 HD
ENDROOT
BRANCH   8  13
ATOM     13  C   UNL     1       2.667   6.367  19.371  0.00  0.00    +0.000 A 
ATOM     14  C   UNL     1       2.650   6.999  18.105  0.00  0.00    +0.000 A 
ATOM     15  C   UNL     1       2.115   8.282  17.943  0.00  0.00    +0.000 A 
ATOM     16  C   UNL     1       1.564   8.956  19.031  0.00  0.00    +0.000 A 
ATOM     17 CL   UNL     1       0.925  10.577  18.833  0.00  0.00    +0.000 Cl
ATOM     18  C   UNL     1       1.522   8.335  20.279  0.00  0.00    +0.000 A 
ATOM     19  C   UNL     1       2.057   7.055  20.449  0.00  0.00    +0.000 A 
ENDBRANCH   8  13
BRANCH   1  20
ATOM     20  C   UNL     1       1.284   3.592  19.417  0.00  0.00    +0.000 C 
BRANCH  20  22
ATOM     21  C   UNL     1       2.266   3.150  17.112  0.00  0.00    +0.000 C 
ATOM     22  C   UNL     1       1.631   2.528  18.354  0.00  0.00    +0.000 C 
ENDBRANCH  20  22
ENDBRANCH   1  20
TORSDOF 3
ENDMDL
MODEL 5
REMARK VINA RESULT:      -6.7      2.956      5.027
REMARK  Name = 
REMARK  4 active torsions:
REMARK  status: ('A' for Active; 'I' for Inactive)
REMARK    1  A    between atoms: C_1  and  C_2
REMARK    2  A    between atoms: C_2  and  C_3
REMARK    3  A    between atoms: C_3  and  C_4
REMARK    4  A    between atoms: N_11  and  C_12
REMARK                            x       y       z     vdW  Elec       q    Type
REMARK                         _______ _______ _______ _____ _____    ______ ____
ROOT
ATOM      1  C   UNL     1       4.123   4.560  18.458  0.00  0.00    +0.000 C 
ATOM      2  N   UNL     1       4.367   3.140  18.275  0.00  0.00    +0.000 NA
ATOM      3  C   UNL     1       3.597   2.208  18.699  0.00  0.00    +0.000 C 
ATOM      4  N   UNL     1       3.918   0.855  18.441  0.00  0.00    +0.000 N 
ATOM      5  N   UNL     1       2.396   2.521  19.367  0.00  0.00    +0.000 NA
ATOM      6  C   UNL     1       2.010   3.727  19.571  0.00  0.00    +0.000 C 
ATOM      7  N   UNL     1       0.699   3.890  20.106  0.00  0.00    +0.000 N 
ATOM      8  N   UNL     1       2.841   4.840  19.141  0.00  0.00    +0.000 N 
ATOM      9  H   UNL     1       4.770   0.610  17.917  0.00  0.00    +0.000 HD
ATOM     10  H   UNL     1       3.281   0.105  18.749  0.00  0.00    +0.000 HD
ATOM     11  H   UNL     1       0.172   3.058  20.407  0.00  0.00    +0.000 HD
ATOM     12  H   UNL     1       0.178   4.771  20.081  0.00  0.00    +0.000 HD
ENDROOT
BRANCH   8  13
ATOM     13  C   UNL     1       2.411   6.220  19.304  0.00  0.00    +0.000 A 
ATOM     14  C   UNL     1       1.962   6.718  20.550  0.00  0.00    +0.000 A 
ATOM     15  C   UNL     1       1.480   8.025  20.677  0.00  0.00    +0.000 A 
ATOM     16  C   UNL     1       1.455   8.874  19.572  0.00  0.00    +0.000 A 
ATOM     17 CL   UNL     1       0.819  10.501  19.725  0.00  0.00    +0.000 Cl
ATOM     18  C   UNL     1       1.939   8.425  18.344  0.00  0.00    +0.000 A 
ATOM     19  C   UNL     1       2.420   7.118  18.210  0.00  0.00    +0.000 A 
ENDBRANCH   8  13
BRANCH   1  20
ATOM     20  C   UNL     1       5.316   5.133  19.265  0.00  0.00    +0.000 C 
BRANCH  20  22
ATOM     21  C   UNL     1       7.763   5.754  18.957  0.00  0.00    +0.000 C 
ATOM     22  C   UNL     1       6.365   5.793  18.345  0.00  0.00    +0.000 C 
ENDBRANCH  20  22
ENDBRANCH   1  20
TORSDOF 3
ENDMDL
MODEL 6
REMARK VINA RESULT:      -6.7      3.107      4.878
REMARK  Name = 
REMARK  4 active torsions:
REMARK  status: ('A' for Active; 'I' for Inactive)
REMARK    1  A    between atoms: C_1  and  C_2
REMARK    2  A    between atoms: C_2  and  C_3
REMARK    3  A    between atoms: C_3  and  C_4
REMARK    4  A    between atoms: N_11  and  C_12
REMARK                            x       y       z     vdW  Elec       q    Type
REMARK                         _______ _______ _______ _____ _____    ______ ____
ROOT
ATOM      1  C   UNL     1       2.546   4.067  20.247  0.00  0.00    +0.000 C 
ATOM      2  N   UNL     1       3.305   2.847  20.454  0.00  0.00    +0.000 NA
ATOM      3  C   UNL     1       4.509   2.661  20.055  0.00  0.00    +0.000 C 
ATOM      4  N   UNL     1       5.165   1.440  20.335  0.00  0.00    +0.000 N 
ATOM      5  N   UNL     1       5.210   3.690  19.395  0.00  0.00    +0.000 NA
ATOM      6  C   UNL     1       4.700   4.846  19.173  0.00  0.00    +0.000 C 
ATOM      7  N   UNL     1       5.580   5.836  18.649  0.00  0.00    +0.000 N 
ATOM      8  N   UNL     1       3.330   5.126  19.574  0.00  0.00    +0.000 N 
ATOM      9  H   UNL     1       4.681   0.693  20.855  0.00  0.00    +0.000 HD
ATOM     10  H   UNL     1       6.145   1.302  20.049  0.00  0.00    +0.000 HD
ATOM     11  H   UNL     1       6.534   5.565  18.370  0.00  0.00    +0.000 HD
ATOM     12  H   UNL     1       5.382   6.841  18.664  0.00  0.00    +0.000 HD
ENDROOT
BRANCH   8  13
ATOM     13  C   UNL     1       2.736   6.440  19.389  0.00  0.00    +0.000 A 
ATOM     14  C   UNL     1       2.113   7.132  20.454  0.00  0.00    +0.000 A 
ATOM     15  C   UNL     1       1.479   8.362  20.247  0.00  0.00    +0.000 A 
ATOM     16  C   UNL     1       1.469   8.941  18.980  0.00  0.00    +0.000 A 
ATOM     17 CL   UNL     1       0.643  10.466  18.714  0.00  0.00    +0.000 Cl
ATOM     18  C   UNL     1       2.119   8.304  17.923  0.00  0.00    +0.000 A 
ATOM     19  C   UNL     1       2.753   7.074  18.124  0.00  0.00    +0.000 A 
ENDBRANCH   8  13
BRANCH   1  20
ATOM     20  C   UNL     1       1.291   3.696  19.417  0.00  0.00    +0.000 C 
BRANCH  20  22
ATOM     21  C   UNL     1       2.232   3.258  17.095  0.00  0.00    +0.000 C 
ATOM     22  C   UNL     1       1.610   2.635  18.342  0.00  0.00    +0.000 C 
ENDBRANCH  20  22
ENDBRANCH   1  20
TORSDOF 3
ENDMDL
MODEL 7
REMARK VINA RESULT:      -6.6      2.914      5.092
REMARK  Name = 
REMARK  4 active torsions:
REMARK  status: ('A' for Active; 'I' for Inactive)
REMARK    1  A    between atoms: C_1  and  C_2
REMARK    2  A    between atoms: C_2  and  C_3
REMARK    3  A    between atoms: C_3  and  C_4
REMARK    4  A    between atoms: N_11  and  C_12
REMARK                            x       y       z     vdW  Elec       q    Type
REMARK                         _______ _______ _______ _____ _____    ______ ____
ROOT
ATOM      1  C   UNL     1       4.074   4.561  18.420  0.00  0.00    +0.000 C 
ATOM      2  N   UNL     1       4.361   3.147  18.252  0.00  0.00    +0.000 NA
ATOM      3  C   UNL     1       3.625   2.197  18.697  0.00  0.00    +0.000 C 
ATOM      4  N   UNL     1       3.985   0.851  18.452  0.00  0.00    +0.000 N 
ATOM      5  N   UNL     1       2.423   2.481  19.376  0.00  0.00    +0.000 NA
ATOM      6  C   UNL     1       2.002   3.677  19.569  0.00  0.00    +0.000 C 
ATOM      7  N   UNL     1       0.693   3.806  20.118  0.00  0.00    +0.000 N 
ATOM      8  N   UNL     1       2.792   4.810  19.114  0.00  0.00    +0.000 N 
ATOM      9  H   UNL     1       4.839   0.626  17.920  0.00  0.00    +0.000 HD
ATOM     10  H   UNL     1       3.377   0.086  18.777  0.00  0.00    +0.000 HD
ATOM     11  H   UNL     1       0.195   2.961  20.436  0.00  0.00    +0.000 HD
ATOM     12  H   UNL     1       0.144   4.670  20.088  0.00  0.00    +0.000 HD
ENDROOT
BRANCH   8  13
ATOM     13  C   UNL     1       2.321   6.177  19.266  0.00  0.00    +0.000 A 
ATOM     14  C   UNL     1       2.303   7.084  18.180  0.00  0.00    +0.000 A 
ATOM     15  C   UNL     1       1.919   8.417  18.355  0.00  0.00    +0.000 A 
ATOM     16  C   UNL     1       1.523   8.874  19.611  0.00  0.00    +0.000 A 
ATOM     17 CL   UNL     1       1.076  10.555  19.837  0.00  0.00    +0.000 Cl
ATOM     18  C   UNL     1       1.484   7.989  20.688  0.00  0.00    +0.000 A 
ATOM     19  C   UNL     1       1.869   6.656  20.519  0.00  0.00    +0.000 A 
ENDBRANCH   8  13
BRANCH   1  20
ATOM     20  C   UNL     1       5.258   5.181  19.204  0.00  0.00    +0.000 C 
BRANCH  20  22
ATOM     21  C   UNL     1       7.724   5.798  19.133  0.00  0.00    +0.000 C 
ATOM     22  C   UNL     1       6.582   5.080  18.418  0.00  0.00    +0.000 C 
ENDBRANCH  20  22
ENDBRANCH   1  20
TORSDOF 3
ENDMDL
MODEL 8
REMARK VINA RESULT:      -6.6      3.285      5.333
REMARK  Name = 
REMARK  4 active torsions:
REMARK  status: ('A' for Active; 'I' for Inactive)
REMARK    1  A    between atoms: C_1  and  C_2
REMARK    2  A    between atoms: C_2  and  C_3
REMARK    3  A    between atoms: C_3  and  C_4
REMARK    4  A    between atoms: N_11  and  C_12
REMARK                            x       y       z     vdW  Elec       q    Type
REMARK                         _______ _______ _______ _____ _____    ______ ____
ROOT
ATOM      1  C   UNL     1       2.547   4.809  20.423  0.00  0.00    +0.000 C 
ATOM      2  N   UNL     1       3.343   3.596  20.480  0.00  0.00    +0.000 NA
ATOM      3  C   UNL     1       4.336   3.339  19.713  0.00  0.00    +0.000 C 
ATOM      4  N   UNL     1       5.060   2.134  19.874  0.00  0.00    +0.000 N 
ATOM      5  N   UNL     1       4.757   4.277  18.749  0.00  0.00    +0.000 NA
ATOM      6  C   UNL     1       4.190   5.418  18.599  0.00  0.00    +0.000 C 
ATOM      7  N   UNL     1       4.826   6.328  17.705  0.00  0.00    +0.000 N 
ATOM      8  N   UNL     1       3.041   5.774  19.416  0.00  0.00    +0.000 N 
ATOM      9  H   UNL     1       4.792   1.456  20.603  0.00  0.00    +0.000 HD
ATOM     10  H   UNL     1       5.882   1.942  19.283  0.00  0.00    +0.000 HD
ATOM     11  H   UNL     1       5.627   6.004  17.144  0.00  0.00    +0.000 HD
ATOM     12  H   UNL     1       4.636   7.334  17.684  0.00  0.00    +0.000 HD
ENDROOT
BRANCH   8  13
ATOM     13  C   UNL     1       2.407   7.078  19.313  0.00  0.00    +0.000 A 
ATOM     14  C   UNL     1       1.853   7.729  20.441  0.00  0.00    +0.000 A 
ATOM     15  C   UNL     1       1.179   8.948  20.316  0.00  0.00    +0.000 A 
ATOM     16  C   UNL     1       1.061   9.560  19.069  0.00  0.00    +0.000 A 
ATOM     17 CL   UNL     1       0.186  11.072  18.908  0.00  0.00    +0.000 Cl
ATOM     18  C   UNL     1       1.641   8.965  17.949  0.00  0.00    +0.000 A 
ATOM     19  C   UNL     1       2.313   7.745  18.067  0.00  0.00    +0.000 A 
ENDBRANCH   8  13
BRANCH   1  20
ATOM     20  C   UNL     1       1.087   4.390  20.119  0.00  0.00    +0.000 C 
BRANCH  20  22
ATOM     21  C   UNL     1       0.728   2.307  18.705  0.00  0.00    +0.000 C 
ATOM     22  C   UNL     1       0.920   2.856  20.117  0.00  0.00    +0.000 C 
ENDBRANCH  20  22
ENDBRANCH   1  20
TORSDOF 3
ENDMDL
MODEL 9
REMARK VINA RESULT:      -6.5      3.350      5.699
REMARK  Name = 
REMARK  4 active torsions:
REMARK  status: ('A' for Active; 'I' for Inactive)
REMARK    1  A    between atoms: C_1  and  C_2
REMARK    2  A    between atoms: C_2  and  C_3
REMARK    3  A    between atoms: C_3  and  C_4
REMARK    4  A    between atoms: N_11  and  C_12
REMARK                            x       y       z     vdW  Elec       q    Type
REMARK                         _______ _______ _______ _____ _____    ______ ____
ROOT
ATOM      1  C   UNL     1       5.505   6.363  16.316  0.00  0.00    +0.000 C 
ATOM      2  N   UNL     1       6.146   5.602  15.259  0.00  0.00    +0.000 NA
ATOM      3  C   UNL     1       5.891   4.375  14.987  0.00  0.00    +0.000 C 
ATOM      4  N   UNL     1       6.558   3.737  13.915  0.00  0.00    +0.000 N 
ATOM      5  N   UNL     1       4.904   3.673  15.706  0.00  0.00    +0.000 NA
ATOM      6  C   UNL     1       4.213   4.213  16.643  0.00  0.00    +0.000 C 
ATOM      7  N   UNL     1       3.138   3.436  17.165  0.00  0.00    +0.000 N 
ATOM      8  N   UNL     1       4.459   5.594  17.026  0.00  0.00    +0.000 N 
ATOM      9  H   UNL     1       7.252   4.249  13.351  0.00  0.00    +0.000 HD
ATOM     10  H   UNL     1       6.328   2.763  13.670  0.00  0.00    +0.000 HD
ATOM     11  H   UNL     1       3.032   2.457  16.861  0.00  0.00    +0.000 HD
ATOM     12  H   UNL     1       2.368   3.825  17.716  0.00  0.00    +0.000 HD
ENDROOT
BRANCH   8  13
ATOM     13  C   UNL     1       3.659   6.257  18.044  0.00  0.00    +0.000 A 
ATOM     14  C   UNL     1       3.453   5.682  19.320  0.00  0.00    +0.000 A 
ATOM     15  C   UNL     1       2.619   6.293  20.263  0.00  0.00    +0.000 A 
ATOM     16  C   UNL     1       1.990   7.501  19.966  0.00  0.00    +0.000 A 
ATOM     17 CL   UNL     1       0.919   8.248  21.137  0.00  0.00    +0.000 Cl
ATOM     18  C   UNL     1       2.217   8.114  18.734  0.00  0.00    +0.000 A 
ATOM     19  C   UNL     1       3.047   7.507  17.787  0.00  0.00    +0.000 A 
ENDBRANCH   8  13
BRANCH   1  20
ATOM     20  C   UNL     1       6.616   6.821  17.295  0.00  0.00    +0.000 C 
BRANCH  20  22
ATOM     21  C   UNL     1       7.757   5.822  19.337  0.00  0.00    +0.000 C 
ATOM     22  C   UNL     1       7.406   5.624  17.864  0.00  0.00    +0.000 C 
ENDBRANCH  20  22
ENDBRANCH   1  20
TORSDOF 3
ENDMDL
