MODEL 1
REMARK VINA RESULT:      -7.6      0.000      0.000
REMARK  Name = 
REMARK  7 active torsions:
REMARK  status: ('A' for Active; 'I' for Inactive)
REMARK    1  A    between atoms: C_1  and  O_2
REMARK    2  A    between atoms: O_2  and  C_3
REMARK    3  A    between atoms: C_3  and  C_5
REMARK    4  A    between atoms: C_5  and  C_20
REMARK    5  A    between atoms: C_6  and  N_7
REMARK    6  A    between atoms: C_11  and  C_13
REMARK    7  A    between atoms: C_20  and  C_21
REMARK                            x       y       z     vdW  Elec       q    Type
REMARK                         _______ _______ _______ _____ _____    ______ ____
ROOT
ATOM      1  N   UNL     1       4.747   4.155  18.268  0.00  0.00    +0.000 N 
ATOM      2  C   UNL     1       4.004   3.727  17.100  0.00  0.00    +0.000 C 
ATOM      3  C   UNL     1       5.027   3.721  15.999  0.00  0.00    +0.000 C 
ATOM      4  N   UNL     1       6.061   4.645  16.432  0.00  0.00    +0.000 N 
ATOM      5  C   UNL     1       6.988   5.229  15.549  0.00  0.00    +0.000 C 
ATOM      6  O   UNL     1       7.743   6.139  15.881  0.00  0.00    +0.000 OA
ATOM      7  C   UNL     1       5.951   4.808  17.855  0.00  0.00    +0.000 C 
ATOM      8  S   UNL     1       7.037   5.538  18.891  0.00  0.00    +0.000 S 
ENDROOT
BRANCH   5   9
ATOM      9  C   UNL     1       6.924   4.815  14.154  0.00  0.00    +0.000 A 
ATOM     10  C   UNL     1       6.188   3.814  13.550  0.00  0.00    +0.000 A 
ATOM     11  C   UNL     1       6.593   3.764  12.194  0.00  0.00    +0.000 A 
ATOM     12  C   UNL     1       7.496   4.785  12.030  0.00  0.00    +0.000 A 
ATOM     13  O   UNL     1       7.686   5.442  13.201  0.00  0.00    +0.000 OA
ENDBRANCH   5   9
BRANCH   1  15
ATOM     14  C   UNL     1       3.169   3.576  20.027  0.00  0.00    +0.000 C 
ATOM     15  C   UNL     1       4.066   4.399  19.448  0.00  0.00    +0.000 C 
BRANCH  14  16
ATOM     16  C   UNL     1       2.332   4.193  21.099  0.00  0.00    +0.000 C 
ATOM     17  C   UNL     1       1.595   5.479  20.834  0.00  0.00    +0.000 C 
ATOM     18  O   UNL     1       2.255   3.664  22.212  0.00  0.00    +0.000 OA
ENDBRANCH  14  16
BRANCH  14  19
ATOM     19  C   UNL     1       3.014   2.152  19.643  0.00  0.00    +0.000 C 
ATOM     20  O   UNL     1       3.951   1.419  19.369  0.00  0.00    +0.000 OA
BRANCH  19  22
ATOM     21  C   UNL     1       0.934   2.324  18.491  0.00  0.00    +0.000 C 
ATOM     22  O   UNL     1       1.702   1.812  19.583  0.00  0.00    +0.000 OA
ENDBRANCH  19  22
ENDBRANCH  14  19
ENDBRANCH   1  15
TORSDOF 5
ENDMDL
MODEL 2
REMARK VINA RESULT:      -7.5      1.215      1.747
REMARK  Name = 
REMARK  7 active torsions:
REMARK  status: ('A' for Active; 'I' for Inactive)
REMARK    1  A    between atoms: C_1  and  O_2
REMARK    2  A    between atoms: O_2  and  C_3
REMARK    3  A    between atoms: C_3  and  C_5
REMARK    4  A    between atoms: C_5  and  C_20
REMARK    5  A    between atoms: C_6  and  N_7
REMARK    6  A    between atoms: C_11  and  C_13
REMARK    7  A    between atoms: C_20  and  C_21
REMARK                            x       y       z     vdW  Elec       q    Type
REMARK                         _______ _______ _______ _____ _____    ______ ____
ROOT
ATOM      1  N   UNL     1       4.652   3.819  18.228  0.00  0.00    +0.000 N 
ATOM      2  C   UNL     1       4.091   3.403  16.958  0.00  0.00    +0.000 C 
ATOM      3  C   UNL     1       5.207   3.623  15.976  0.00  0.00    +0.000 C 
ATOM      4  N   UNL     1       6.059   4.630  16.585  0.00  0.00    +0.000 N 
ATOM      5  C   UNL     1       6.980   5.403  15.853  0.00  0.00    +0.000 C 
ATOM      6  O   UNL     1       7.568   6.369  16.331  0.00  0.00    +0.000 OA
ATOM      7  C   UNL     1       5.790   4.653  17.996  0.00  0.00    +0.000 C 
ATOM      8  S   UNL     1       6.662   5.422  19.194  0.00  0.00    +0.000 S 
ENDROOT
BRANCH   5   9
ATOM      9  C   UNL     1       7.108   5.107  14.433  0.00  0.00    +0.000 A 
ATOM     10  C   UNL     1       6.377   4.257  13.625  0.00  0.00    +0.000 A 
ATOM     11  C   UNL     1       6.999   4.260  12.353  0.00  0.00    +0.000 A 
ATOM     12  C   UNL     1       8.027   5.167  12.434  0.00  0.00    +0.000 A 
ATOM     13  O   UNL     1       8.087   5.703  13.678  0.00  0.00    +0.000 OA
ENDBRANCH   5   9
BRANCH   1  15
ATOM     14  C   UNL     1       3.603   2.856  20.201  0.00  0.00    +0.000 C 
ATOM     15  C   UNL     1       3.833   3.869  19.343  0.00  0.00    +0.000 C 
BRANCH  14  16
ATOM     16  C   UNL     1       2.441   3.046  21.120  0.00  0.00    +0.000 C 
ATOM     17  C   UNL     1       1.131   3.561  20.583  0.00  0.00    +0.000 C 
ATOM     18  O   UNL     1       2.551   2.800  22.324  0.00  0.00    +0.000 OA
ENDBRANCH  14  16
BRANCH  14  19
ATOM     19  C   UNL     1       4.439   1.632  20.249  0.00  0.00    +0.000 C 
ATOM     20  O   UNL     1       4.336   0.711  19.454  0.00  0.00    +0.000 OA
BRANCH  19  22
ATOM     21  C   UNL     1       5.732   0.412  21.836  0.00  0.00    +0.000 C 
ATOM     22  O   UNL     1       5.273   1.663  21.318  0.00  0.00    +0.000 OA
ENDBRANCH  19  22
ENDBRANCH  14  19
ENDBRANCH   1  15
TORSDOF 5
ENDMDL
MODEL 3
REMARK VINA RESULT:      -7.4      2.642      7.668
REMARK  Name = 
REMARK  7 active torsions:
REMARK  status: ('A' for Active; 'I' for Inactive)
REMARK    1  A    between atoms: C_1  and  O_2
REMARK    2  A    between atoms: O_2  and  C_3
REMARK    3  A    between atoms: C_3  and  C_5
REMARK    4  A    between atoms: C_5  and  C_20
REMARK    5  A    between atoms: C_6  and  N_7
REMARK    6  A    between atoms: C_11  and  C_13
REMARK    7  A    between atoms: C_20  and  C_21
REMARK                            x       y       z     vdW  Elec       q    Type
REMARK                         _______ _______ _______ _____ _____    ______ ____
ROOT
ATOM      1  N   UNL     1       4.214   6.232  17.672  0.00  0.00    +0.000 N 
ATOM      2  C   UNL     1       3.455   7.438  17.408  0.00  0.00    +0.000 C 
ATOM      3  C   UNL     1       2.851   7.788  18.739  0.00  0.00    +0.000 C 
ATOM      4  N   UNL     1       2.809   6.539  19.480  0.00  0.00    +0.000 N 
ATOM      5  C   UNL     1       1.976   6.335  20.596  0.00  0.00    +0.000 C 
ATOM      6  O   UNL     1       1.809   5.232  21.110  0.00  0.00    +0.000 OA
ATOM      7  C   UNL     1       3.746   5.629  18.882  0.00  0.00    +0.000 C 
ATOM      8  S   UNL     1       4.289   4.170  19.485  0.00  0.00    +0.000 S 
ENDROOT
BRANCH   5   9
ATOM      9  C   UNL     1       1.181   7.470  21.044  0.00  0.00    +0.000 A 
ATOM     10  C   UNL     1      -0.158   7.756  20.855  0.00  0.00    +0.000 A 
ATOM     11  C   UNL     1      -0.385   9.044  21.398  0.00  0.00    +0.000 A 
ATOM     12  C   UNL     1       0.808   9.439  21.952  0.00  0.00    +0.000 A 
ATOM     13  O   UNL     1       1.754   8.486  21.766  0.00  0.00    +0.000 OA
ENDBRANCH   5   9
BRANCH   1  15
ATOM     14  C   UNL     1       6.090   5.649  16.236  0.00  0.00    +0.000 C 
ATOM     15  C   UNL     1       4.799   5.559  16.613  0.00  0.00    +0.000 C 
BRANCH  14  16
ATOM     16  C   UNL     1       6.402   5.097  14.884  0.00  0.00    +0.000 C 
ATOM     17  C   UNL     1       5.409   4.206  14.185  0.00  0.00    +0.000 C 
ATOM     18  O   UNL     1       7.480   5.352  14.340  0.00  0.00    +0.000 OA
ENDBRANCH  14  16
BRANCH  14  19
ATOM     19  C   UNL     1       7.142   6.246  17.093  0.00  0.00    +0.000 C 
ATOM     20  O   UNL     1       7.531   7.398  16.983  0.00  0.00    +0.000 OA
BRANCH  19  22
ATOM     21  C   UNL     1       7.817   5.720  19.317  0.00  0.00    +0.000 C 
ATOM     22  O   UNL     1       7.638   5.325  17.955  0.00  0.00    +0.000 OA
ENDBRANCH  19  22
ENDBRANCH  14  19
ENDBRANCH   1  15
TORSDOF 5
ENDMDL
MODEL 4
REMARK VINA RESULT:      -7.3      1.011      1.212
REMARK  Name = 
REMARK  7 active torsions:
REMARK  status: ('A' for Active; 'I' for Inactive)
REMARK    1  A    between atoms: C_1  and  O_2
REMARK    2  A    between atoms: O_2  and  C_3
REMARK    3  A    between atoms: C_3  and  C_5
REMARK    4  A    between atoms: C_5  and  C_20
REMARK    5  A    between atoms: C_6  and  N_7
REMARK    6  A    between atoms: C_11  and  C_13
REMARK    7  A    between atoms: C_20  and  C_21
REMARK                            x       y       z     vdW  Elec       q    Type
REMARK                         _______ _______ _______ _____ _____    ______ ____
ROOT
ATOM      1  N   UNL     1       4.573   4.326  18.109  0.00  0.00    +0.000 N 
ATOM      2  C   UNL     1       3.887   3.866  16.917  0.00  0.00    +0.000 C 
ATOM      3  C   UNL     1       4.971   3.790  15.879  0.00  0.00    +0.000 C 
ATOM      4  N   UNL     1       6.002   4.706  16.334  0.00  0.00    +0.000 N 
ATOM      5  C   UNL     1       6.993   5.231  15.484  0.00  0.00    +0.000 C 
ATOM      6  O   UNL     1       7.750   6.137  15.822  0.00  0.00    +0.000 OA
ATOM      7  C   UNL     1       5.814   4.932  17.740  0.00  0.00    +0.000 C 
ATOM      8  S   UNL     1       6.858   5.679  18.808  0.00  0.00    +0.000 S 
ENDROOT
BRANCH   5   9
ATOM      9  C   UNL     1       6.999   4.761  14.106  0.00  0.00    +0.000 A 
ATOM     10  C   UNL     1       7.691   5.225  13.003  0.00  0.00    +0.000 A 
ATOM     11  C   UNL     1       7.238   4.481  11.888  0.00  0.00    +0.000 A 
ATOM     12  C   UNL     1       6.353   3.555  12.383  0.00  0.00    +0.000 A 
ATOM     13  O   UNL     1       6.219   3.698  13.724  0.00  0.00    +0.000 OA
ENDBRANCH   5   9
BRANCH   1  15
ATOM     14  C   UNL     1       3.390   3.755  20.157  0.00  0.00    +0.000 C 
ATOM     15  C   UNL     1       3.831   4.635  19.236  0.00  0.00    +0.000 C 
BRANCH  14  16
ATOM     16  C   UNL     1       2.344   4.273  21.088  0.00  0.00    +0.000 C 
ATOM     17  C   UNL     1       1.619   5.555  20.770  0.00  0.00    +0.000 C 
ATOM     18  O   UNL     1       2.080   3.667  22.130  0.00  0.00    +0.000 OA
ENDBRANCH  14  16
BRANCH  14  19
ATOM     19  C   UNL     1       3.902   2.367  20.258  0.00  0.00    +0.000 C 
ATOM     20  O   UNL     1       4.872   2.051  20.928  0.00  0.00    +0.000 OA
BRANCH  19  22
ATOM     21  C   UNL     1       3.858   0.925  18.361  0.00  0.00    +0.000 C 
ATOM     22  O   UNL     1       3.184   1.533  19.466  0.00  0.00    +0.000 OA
ENDBRANCH  19  22
ENDBRANCH  14  19
ENDBRANCH   1  15
TORSDOF 5
ENDMDL
MODEL 5
REMARK VINA RESULT:      -7.3      0.985      1.212
REMARK  Name = 
REMARK  7 active torsions:
REMARK  status: ('A' for Active; 'I' for Inactive)
REMARK    1  A    between atoms: C_1  and  O_2
REMARK    2  A    between atoms: O_2  and  C_3
REMARK    3  A    between atoms: C_3  and  C_5
REMARK    4  A    between atoms: C_5  and  C_20
REMARK    5  A    between atoms: C_6  and  N_7
REMARK    6  A    between atoms: C_11  and  C_13
REMARK    7  A    between atoms: C_20  and  C_21
REMARK                            x       y       z     vdW  Elec       q    Type
REMARK                         _______ _______ _______ _____ _____    ______ ____
ROOT
ATOM      1  N   UNL     1       4.413   4.288  18.100  0.00  0.00    +0.000 N 
ATOM      2  C   UNL     1       3.758   3.933  16.857  0.00  0.00    +0.000 C 
ATOM      3  C   UNL     1       4.876   3.895  15.854  0.00  0.00    +0.000 C 
ATOM      4  N   UNL     1       5.916   4.744  16.407  0.00  0.00    +0.000 N 
ATOM      5  C   UNL     1       6.953   5.295  15.630  0.00  0.00    +0.000 C 
ATOM      6  O   UNL     1       7.724   6.150  16.057  0.00  0.00    +0.000 OA
ATOM      7  C   UNL     1       5.685   4.878  17.818  0.00  0.00    +0.000 C 
ATOM      8  S   UNL     1       6.710   5.516  18.971  0.00  0.00    +0.000 S 
ENDROOT
BRANCH   5   9
ATOM      9  C   UNL     1       6.995   4.921  14.224  0.00  0.00    +0.000 A 
ATOM     10  C   UNL     1       6.367   3.889  13.552  0.00  0.00    +0.000 A 
ATOM     11  C   UNL     1       6.847   3.911  12.220  0.00  0.00    +0.000 A 
ATOM     12  C   UNL     1       7.682   4.998  12.135  0.00  0.00    +0.000 A 
ATOM     13  O   UNL     1       7.760   5.630  13.332  0.00  0.00    +0.000 OA
ENDBRANCH   5   9
BRANCH   1  15
ATOM     14  C   UNL     1       3.255   3.631  20.137  0.00  0.00    +0.000 C 
ATOM     15  C   UNL     1       3.640   4.541  19.221  0.00  0.00    +0.000 C 
BRANCH  14  16
ATOM     16  C   UNL     1       2.165   4.072  21.059  0.00  0.00    +0.000 C 
ATOM     17  C   UNL     1       1.304   3.049  21.752  0.00  0.00    +0.000 C 
ATOM     18  O   UNL     1       1.953   5.273  21.243  0.00  0.00    +0.000 OA
ENDBRANCH  14  16
BRANCH  14  19
ATOM     19  C   UNL     1       3.864   2.283  20.243  0.00  0.00    +0.000 C 
ATOM     20  O   UNL     1       4.772   2.009  21.012  0.00  0.00    +0.000 OA
BRANCH  19  22
ATOM     21  C   UNL     1       4.196   0.796  18.410  0.00  0.00    +0.000 C 
ATOM     22  O   UNL     1       3.315   1.437  19.336  0.00  0.00    +0.000 OA
ENDBRANCH  19  22
ENDBRANCH  14  19
ENDBRANCH   1  15
TORSDOF 5
ENDMDL
MODEL 6
REMARK VINA RESULT:      -7.2      0.514      1.215
REMARK  Name = 
REMARK  7 active torsions:
REMARK  status: ('A' for Active; 'I' for Inactive)
REMARK    1  A    between atoms: C_1  and  O_2
REMARK    2  A    between atoms: O_2  and  C_3
REMARK    3  A    between atoms: C_3  and  C_5
REMARK    4  A    between atoms: C_5  and  C_20
REMARK    5  A    between atoms: C_6  and  N_7
REMARK    6  A    between atoms: C_11  and  C_13
REMARK    7  A    between atoms: C_20  and  C_21
REMARK                            x       y       z     vdW  Elec       q    Type
REMARK                         _______ _______ _______ _____ _____    ______ ____
ROOT
ATOM      1  N   UNL     1       4.701   4.186  18.205  0.00  0.00    +0.000 N 
ATOM      2  C   UNL     1       3.962   3.768  17.029  0.00  0.00    +0.000 C 
ATOM      3  C   UNL     1       4.995   3.751  15.938  0.00  0.00    +0.000 C 
ATOM      4  N   UNL     1       6.036   4.662  16.381  0.00  0.00    +0.000 N 
ATOM      5  C   UNL     1       6.979   5.236  15.507  0.00  0.00    +0.000 C 
ATOM      6  O   UNL     1       7.741   6.136  15.848  0.00  0.00    +0.000 OA
ATOM      7  C   UNL     1       5.915   4.825  17.803  0.00  0.00    +0.000 C 
ATOM      8  S   UNL     1       7.002   5.540  18.850  0.00  0.00    +0.000 S 
ENDROOT
BRANCH   5   9
ATOM      9  C   UNL     1       6.922   4.824  14.112  0.00  0.00    +0.000 A 
ATOM     10  C   UNL     1       6.176   3.835  13.499  0.00  0.00    +0.000 A 
ATOM     11  C   UNL     1       6.593   3.781  12.147  0.00  0.00    +0.000 A 
ATOM     12  C   UNL     1       7.513   4.788  11.993  0.00  0.00    +0.000 A 
ATOM     13  O   UNL     1       7.702   5.441  13.166  0.00  0.00    +0.000 OA
ENDBRANCH   5   9
BRANCH   1  15
ATOM     14  C   UNL     1       3.120   3.611  19.963  0.00  0.00    +0.000 C 
ATOM     15  C   UNL     1       4.011   4.437  19.379  0.00  0.00    +0.000 C 
BRANCH  14  16
ATOM     16  C   UNL     1       2.273   4.233  21.025  0.00  0.00    +0.000 C 
ATOM     17  C   UNL     1       1.607   5.561  20.778  0.00  0.00    +0.000 C 
ATOM     18  O   UNL     1       2.128   3.672  22.115  0.00  0.00    +0.000 OA
ENDBRANCH  14  16
BRANCH  14  19
ATOM     19  C   UNL     1       2.980   2.182  19.595  0.00  0.00    +0.000 C 
ATOM     20  O   UNL     1       1.910   1.651  19.342  0.00  0.00    +0.000 OA
BRANCH  19  22
ATOM     21  C   UNL     1       4.898   1.586  20.877  0.00  0.00    +0.000 C 
ATOM     22  O   UNL     1       4.181   1.555  19.641  0.00  0.00    +0.000 OA
ENDBRANCH  19  22
ENDBRANCH  14  19
ENDBRANCH   1  15
TORSDOF 5
ENDMDL
MODEL 7
REMARK VINA RESULT:      -7.2      1.764      7.070
REMARK  Name = 
REMARK  7 active torsions:
REMARK  status: ('A' for Active; 'I' for Inactive)
REMARK    1  A    between atoms: C_1  and  O_2
REMARK    2  A    between atoms: O_2  and  C_3
REMARK    3  A    between atoms: C_3  and  C_5
REMARK    4  A    between atoms: C_5  and  C_20
REMARK    5  A    between atoms: C_6  and  N_7
REMARK    6  A    between atoms: C_11  and  C_13
REMARK    7  A    between atoms: C_20  and  C_21
REMARK                            x       y       z     vdW  Elec       q    Type
REMARK                         _______ _______ _______ _____ _____    ______ ____
ROOT
ATOM      1  N   UNL     1       4.752   4.127  15.854  0.00  0.00    +0.000 N 
ATOM      2  C   UNL     1       4.602   2.832  16.488  0.00  0.00    +0.000 C 
ATOM      3  C   UNL     1       3.636   3.085  17.610  0.00  0.00    +0.000 C 
ATOM      4  N   UNL     1       3.748   4.504  17.900  0.00  0.00    +0.000 N 
ATOM      5  C   UNL     1       3.324   5.076  19.113  0.00  0.00    +0.000 C 
ATOM      6  O   UNL     1       3.580   6.236  19.429  0.00  0.00    +0.000 OA
ATOM      7  C   UNL     1       4.329   5.151  16.756  0.00  0.00    +0.000 C 
ATOM      8  S   UNL     1       4.436   6.789  16.449  0.00  0.00    +0.000 S 
ENDROOT
BRANCH   5   9
ATOM      9  C   UNL     1       2.685   4.189  20.075  0.00  0.00    +0.000 A 
ATOM     10  C   UNL     1       1.365   4.105  20.477  0.00  0.00    +0.000 A 
ATOM     11  C   UNL     1       1.311   3.151  21.521  0.00  0.00    +0.000 A 
ATOM     12  C   UNL     1       2.585   2.652  21.646  0.00  0.00    +0.000 A 
ATOM     13  O   UNL     1       3.417   3.254  20.762  0.00  0.00    +0.000 OA
ENDBRANCH   5   9
BRANCH   1  15
ATOM     14  C   UNL     1       6.924   4.805  14.992  0.00  0.00    +0.000 C 
ATOM     15  C   UNL     1       5.691   4.280  14.848  0.00  0.00    +0.000 C 
BRANCH  14  16
ATOM     16  C   UNL     1       7.618   5.168  13.719  0.00  0.00    +0.000 C 
ATOM     17  C   UNL     1       7.121   4.620  12.407  0.00  0.00    +0.000 C 
ATOM     18  O   UNL     1       8.609   5.901  13.737  0.00  0.00    +0.000 OA
ENDBRANCH  14  16
BRANCH  14  19
ATOM     19  C   UNL     1       7.566   5.011  16.312  0.00  0.00    +0.000 C 
ATOM     20  O   UNL     1       7.983   4.100  17.011  0.00  0.00    +0.000 OA
BRANCH  19  22
ATOM     21  C   UNL     1       7.653   6.656  18.034  0.00  0.00    +0.000 C 
ATOM     22  O   UNL     1       7.564   6.325  16.646  0.00  0.00    +0.000 OA
ENDBRANCH  19  22
ENDBRANCH  14  19
ENDBRANCH   1  15
TORSDOF 5
ENDMDL
MODEL 8
REMARK VINA RESULT:      -7.1      1.208      1.840
REMARK  Name = 
REMARK  7 active torsions:
REMARK  status: ('A' for Active; 'I' for Inactive)
REMARK    1  A    between atoms: C_1  and  O_2
REMARK    2  A    between atoms: O_2  and  C_3
REMARK    3  A    between atoms: C_3  and  C_5
REMARK    4  A    between atoms: C_5  and  C_20
REMARK    5  A    between atoms: C_6  and  N_7
REMARK    6  A    between atoms: C_11  and  C_13
REMARK    7  A    between atoms: C_20  and  C_21
REMARK                            x       y       z     vdW  Elec       q    Type
REMARK                         _______ _______ _______ _____ _____    ______ ____
ROOT
ATOM      1  N   UNL     1       4.645   4.037  18.038  0.00  0.00    +0.000 N 
ATOM      2  C   UNL     1       4.006   3.574  16.821  0.00  0.00    +0.000 C 
ATOM      3  C   UNL     1       5.103   3.615  15.795  0.00  0.00    +0.000 C 
ATOM      4  N   UNL     1       6.061   4.585  16.297  0.00  0.00    +0.000 N 
ATOM      5  C   UNL     1       7.021   5.211  15.480  0.00  0.00    +0.000 C 
ATOM      6  O   UNL     1       7.707   6.156  15.862  0.00  0.00    +0.000 OA
ATOM      7  C   UNL     1       5.843   4.744  17.708  0.00  0.00    +0.000 C 
ATOM      8  S   UNL     1       6.819   5.523  18.816  0.00  0.00    +0.000 S 
ENDROOT
BRANCH   5   9
ATOM      9  C   UNL     1       7.075   4.795  14.086  0.00  0.00    +0.000 A 
ATOM     10  C   UNL     1       7.736   5.354  13.008  0.00  0.00    +0.000 A 
ATOM     11  C   UNL     1       7.352   4.618  11.861  0.00  0.00    +0.000 A 
ATOM     12  C   UNL     1       6.540   3.607  12.312  0.00  0.00    +0.000 A 
ATOM     13  O   UNL     1       6.385   3.689  13.657  0.00  0.00    +0.000 OA
ENDBRANCH   5   9
BRANCH   1  15
ATOM     14  C   UNL     1       3.519   3.313  20.070  0.00  0.00    +0.000 C 
ATOM     15  C   UNL     1       3.871   4.249  19.166  0.00  0.00    +0.000 C 
BRANCH  14  16
ATOM     16  C   UNL     1       2.422   3.706  21.004  0.00  0.00    +0.000 C 
ATOM     17  C   UNL     1       1.528   2.652  21.603  0.00  0.00    +0.000 C 
ATOM     18  O   UNL     1       2.230   4.894  21.275  0.00  0.00    +0.000 OA
ENDBRANCH  14  16
BRANCH  14  19
ATOM     19  C   UNL     1       4.170   1.984  20.151  0.00  0.00    +0.000 C 
ATOM     20  O   UNL     1       4.026   1.108  19.313  0.00  0.00    +0.000 OA
BRANCH  19  22
ATOM     21  C   UNL     1       5.655   0.679  21.483  0.00  0.00    +0.000 C 
ATOM     22  O   UNL     1       4.881   1.867  21.300  0.00  0.00    +0.000 OA
ENDBRANCH  19  22
ENDBRANCH  14  19
ENDBRANCH   1  15
TORSDOF 5
ENDMDL
MODEL 9
REMARK VINA RESULT:      -7.1      1.573      2.017
REMARK  Name = 
REMARK  7 active torsions:
REMARK  status: ('A' for Active; 'I' for Inactive)
REMARK    1  A    between atoms: C_1  and  O_2
REMARK    2  A    between atoms: O_2  and  C_3
REMARK    3  A    between atoms: C_3  and  C_5
REMARK    4  A    between atoms: C_5  and  C_20
REMARK    5  A    between atoms: C_6  and  N_7
REMARK    6  A    between atoms: C_11  and  C_13
REMARK    7  A    between atoms: C_20  and  C_21
REMARK                            x       y       z     vdW  Elec       q    Type
REMARK                         _______ _______ _______ _____ _____    ______ ____
ROOT
ATOM      1  N   UNL     1       4.689   3.555  18.235  0.00  0.00    +0.000 N 
ATOM      2  C   UNL     1       4.198   3.047  16.969  0.00  0.00    +0.000 C 
ATOM      3  C   UNL     1       5.297   3.368  15.996  0.00  0.00    +0.000 C 
ATOM      4  N   UNL     1       6.021   4.479  16.589  0.00  0.00    +0.000 N 
ATOM      5  C   UNL     1       6.860   5.333  15.848  0.00  0.00    +0.000 C 
ATOM      6  O   UNL     1       7.327   6.372  16.308  0.00  0.00    +0.000 OA
ATOM      7  C   UNL     1       5.729   4.507  17.995  0.00  0.00    +0.000 C 
ATOM      8  S   UNL     1       6.490   5.398  19.184  0.00  0.00    +0.000 S 
ENDROOT
BRANCH   5   9
ATOM      9  C   UNL     1       7.043   5.019  14.438  0.00  0.00    +0.000 A 
ATOM     10  C   UNL     1       6.394   4.102  13.633  0.00  0.00    +0.000 A 
ATOM     11  C   UNL     1       7.044   4.125  12.376  0.00  0.00    +0.000 A 
ATOM     12  C   UNL     1       8.001   5.105  12.460  0.00  0.00    +0.000 A 
ATOM     13  O   UNL     1       7.994   5.669  13.692  0.00  0.00    +0.000 OA
ENDBRANCH   5   9
BRANCH   1  15
ATOM     14  C   UNL     1       2.662   4.166  19.433  0.00  0.00    +0.000 C 
ATOM     15  C   UNL     1       3.852   3.540  19.337  0.00  0.00    +0.000 C 
BRANCH  14  16
ATOM     16  C   UNL     1       2.107   4.278  20.816  0.00  0.00    +0.000 C 
ATOM     17  C   UNL     1       2.065   3.068  21.712  0.00  0.00    +0.000 C 
ATOM     18  O   UNL     1       1.666   5.355  21.225  0.00  0.00    +0.000 OA
ENDBRANCH  14  16
BRANCH  14  19
ATOM     19  C   UNL     1       1.935   4.706  18.259  0.00  0.00    +0.000 C 
ATOM     20  O   UNL     1       0.981   4.149  17.738  0.00  0.00    +0.000 OA
BRANCH  19  22
ATOM     21  C   UNL     1       2.670   6.916  18.765  0.00  0.00    +0.000 C 
ATOM     22  O   UNL     1       2.514   5.853  17.823  0.00  0.00    +0.000 OA
ENDBRANCH  19  22
ENDBRANCH  14  19
ENDBRANCH   1  15
TORSDOF 5
ENDMDL
