MODEL 1
REMARK VINA RESULT:      -8.7      0.000      0.000
REMARK  Name = 
REMARK  5 active torsions:
REMARK  status: ('A' for Active; 'I' for Inactive)
REMARK    1  A    between atoms: C_2  and  C_21
REMARK    2  A    between atoms: N_3  and  C_4
REMARK    3  A    between atoms: C_6  and  C_7
REMARK    4  A    between atoms: C_14  and  C_15
REMARK    5  A    between atoms: C_24  and  N_25
REMARK                            x       y       z     vdW  Elec       q    Type
REMARK                         _______ _______ _______ _____ _____    ______ ____
ROOT
ATOM      1  C   UNL     1       2.869   6.566  18.302  0.00  0.00    +0.000 A 
ATOM      2  S   UNL     1       2.506   8.222  18.153  0.00  0.00    +0.000 S 
ATOM      3  C   UNL     1       1.706   8.176  19.689  0.00  0.00    +0.000 A 
ATOM      4  N   UNL     1       1.829   7.028  20.330  0.00  0.00    +0.000 NA
ATOM      5  C   UNL     1       2.509   6.099  19.552  0.00  0.00    +0.000 A 
ENDROOT
BRANCH   3   6
ATOM      6  C   UNL     1       1.010   9.346  20.257  0.00  0.00    +0.000 A 
ATOM      7  C   UNL     1       0.868  10.566  19.577  0.00  0.00    +0.000 A 
ATOM      8  C   UNL     1       0.175  11.636  20.159  0.00  0.00    +0.000 A 
ATOM      9  C   UNL     1      -0.388  11.504  21.427  0.00  0.00    +0.000 A 
ATOM     10  C   UNL     1      -0.268  10.300  22.112  0.00  0.00    +0.000 A 
ATOM     11  C   UNL     1       0.419   9.232  21.530  0.00  0.00    +0.000 A 
ENDBRANCH   3   6
BRANCH   5  12
ATOM     12  C   UNL     1       2.872   4.802  20.119  0.00  0.00    +0.000 A 
ATOM     13  C   UNL     1       3.939   4.082  19.575  0.00  0.00    +0.000 A 
ATOM     14  C   UNL     1       4.227   2.786  20.020  0.00  0.00    +0.000 A 
ATOM     15  C   UNL     1       3.441   2.199  21.011  0.00  0.00    +0.000 A 
ATOM     16  C   UNL     1       2.378   2.907  21.563  0.00  0.00    +0.000 A 
ATOM     17  C   UNL     1       2.093   4.198  21.121  0.00  0.00    +0.000 A 
ENDBRANCH   5  12
BRANCH   1  20
ATOM     18  O   UNL     1       5.478   6.817  17.761  0.00  0.00    +0.000 OA
ATOM     19  C   UNL     1       4.792   6.115  17.024  0.00  0.00    +0.000 C 
ATOM     20  N   UNL     1       3.418   5.937  17.191  0.00  0.00    +0.000 N 
ATOM     21  H   UNL     1       3.108   4.998  16.989  0.00  0.00    +0.000 HD
BRANCH  19  22
ATOM     22  C   UNL     1       5.403   5.341  15.953  0.00  0.00    +0.000 A 
ATOM     23  C   UNL     1       5.330   3.976  15.720  0.00  0.00    +0.000 A 
ATOM     24  C   UNL     1       6.191   3.684  14.637  0.00  0.00    +0.000 A 
ATOM     25  C   UNL     1       6.734   4.892  14.273  0.00  0.00    +0.000 A 
ATOM     26  O   UNL     1       6.246   5.920  15.032  0.00  0.00    +0.000 OA
BRANCH  25  27
ATOM     27  N   UNL     1       7.714   5.214  13.281  0.00  0.00    +0.000 N 
ATOM     28  O   UNL     1       7.518   4.754  12.147  0.00  0.00    +0.000 OA
ATOM     29  O   UNL     1       8.671   5.918  13.623  0.00  0.00    +0.000 OA
ENDBRANCH  25  27
ENDBRANCH  19  22
ENDBRANCH   1  20
TORSDOF 5
ENDMDL
MODEL 2
REMARK VINA RESULT:      -8.7      0.212      1.105
REMARK  Name = 
REMARK  5 active torsions:
REMARK  status: ('A' for Active; 'I' for Inactive)
REMARK    1  A    between atoms: C_2  and  C_21
REMARK    2  A    between atoms: N_3  and  C_4
REMARK    3  A    between atoms: C_6  and  C_7
REMARK    4  A    between atoms: C_14  and  C_15
REMARK    5  A    between atoms: C_24  and  N_25
REMARK                            x       y       z     vdW  Elec       q    Type
REMARK                         _______ _______ _______ _____ _____    ______ ____
ROOT
ATOM      1  C   UNL     1       2.860   6.395  18.295  0.00  0.00    +0.000 A 
ATOM      2  S   UNL     1       2.573   8.072  18.227  0.00  0.00    +0.000 S 
ATOM      3  C   UNL     1       1.726   7.979  19.735  0.00  0.00    +0.000 A 
ATOM      4  N   UNL     1       1.782   6.795  20.315  0.00  0.00    +0.000 NA
ATOM      5  C   UNL     1       2.444   5.879  19.508  0.00  0.00    +0.000 A 
ENDROOT
BRANCH   3   6
ATOM      6  C   UNL     1       1.064   9.148  20.347  0.00  0.00    +0.000 A 
ATOM      7  C   UNL     1       0.754  10.318  19.638  0.00  0.00    +0.000 A 
ATOM      8  C   UNL     1       0.102  11.388  20.267  0.00  0.00    +0.000 A 
ATOM      9  C   UNL     1      -0.250  11.303  21.613  0.00  0.00    +0.000 A 
ATOM     10  C   UNL     1       0.039  10.148  22.330  0.00  0.00    +0.000 A 
ATOM     11  C   UNL     1       0.685   9.080  21.701  0.00  0.00    +0.000 A 
ENDBRANCH   3   6
BRANCH   5  12
ATOM     12  C   UNL     1       2.734   4.540  20.012  0.00  0.00    +0.000 A 
ATOM     13  C   UNL     1       1.976   4.015  21.063  0.00  0.00    +0.000 A 
ATOM     14  C   UNL     1       2.314   2.786  21.644  0.00  0.00    +0.000 A 
ATOM     15  C   UNL     1       3.420   2.077  21.178  0.00  0.00    +0.000 A 
ATOM     16  C   UNL     1       4.180   2.586  20.130  0.00  0.00    +0.000 A 
ATOM     17  C   UNL     1       3.843   3.809  19.551  0.00  0.00    +0.000 A 
ENDBRANCH   5  12
BRANCH   1  20
ATOM     18  O   UNL     1       5.457   6.727  17.735  0.00  0.00    +0.000 OA
ATOM     19  C   UNL     1       4.782   6.021  16.991  0.00  0.00    +0.000 C 
ATOM     20  N   UNL     1       3.415   5.803  17.167  0.00  0.00    +0.000 N 
ATOM     21  H   UNL     1       3.128   4.860  16.949  0.00  0.00    +0.000 HD
BRANCH  19  22
ATOM     22  C   UNL     1       5.403   5.284  15.899  0.00  0.00    +0.000 A 
ATOM     23  C   UNL     1       5.340   3.926  15.624  0.00  0.00    +0.000 A 
ATOM     24  C   UNL     1       6.207   3.673  14.537  0.00  0.00    +0.000 A 
ATOM     25  C   UNL     1       6.744   4.896  14.212  0.00  0.00    +0.000 A 
ATOM     26  O   UNL     1       6.245   5.896  15.000  0.00  0.00    +0.000 OA
BRANCH  25  27
ATOM     27  N   UNL     1       7.726   5.254  13.235  0.00  0.00    +0.000 N 
ATOM     28  O   UNL     1       8.688   5.921  13.642  0.00  0.00    +0.000 OA
ATOM     29  O   UNL     1       7.546   4.876  12.072  0.00  0.00    +0.000 OA
ENDBRANCH  25  27
ENDBRANCH  19  22
ENDBRANCH   1  20
TORSDOF 5
ENDMDL
MODEL 3
REMARK VINA RESULT:      -8.6      0.146      1.091
REMARK  Name = 
REMARK  5 active torsions:
REMARK  status: ('A' for Active; 'I' for Inactive)
REMARK    1  A    between atoms: C_2  and  C_21
REMARK    2  A    between atoms: N_3  and  C_4
REMARK    3  A    between atoms: C_6  and  C_7
REMARK    4  A    between atoms: C_14  and  C_15
REMARK    5  A    between atoms: C_24  and  N_25
REMARK                            x       y       z     vdW  Elec       q    Type
REMARK                         _______ _______ _______ _____ _____    ______ ____
ROOT
ATOM      1  C   UNL     1       2.897   6.520  18.274  0.00  0.00    +0.000 A 
ATOM      2  S   UNL     1       2.555   8.180  18.107  0.00  0.00    +0.000 S 
ATOM      3  C   UNL     1       1.735   8.155  19.633  0.00  0.00    +0.000 A 
ATOM      4  N   UNL     1       1.838   7.012  20.285  0.00  0.00    +0.000 NA
ATOM      5  C   UNL     1       2.516   6.068  19.524  0.00  0.00    +0.000 A 
ENDROOT
BRANCH   3   6
ATOM      6  C   UNL     1       1.046   9.339  20.183  0.00  0.00    +0.000 A 
ATOM      7  C   UNL     1       0.531   9.396  21.488  0.00  0.00    +0.000 A 
ATOM      8  C   UNL     1      -0.094  10.557  21.963  0.00  0.00    +0.000 A 
ATOM      9  C   UNL     1      -0.211  11.678  21.143  0.00  0.00    +0.000 A 
ATOM     10  C   UNL     1       0.302  11.645  19.852  0.00  0.00    +0.000 A 
ATOM     11  C   UNL     1       0.929  10.489  19.380  0.00  0.00    +0.000 A 
ENDBRANCH   3   6
BRANCH   5  12
ATOM     12  C   UNL     1       2.857   4.773  20.105  0.00  0.00    +0.000 A 
ATOM     13  C   UNL     1       3.907   4.025  19.566  0.00  0.00    +0.000 A 
ATOM     14  C   UNL     1       4.172   2.729  20.027  0.00  0.00    +0.000 A 
ATOM     15  C   UNL     1       3.380   2.171  21.029  0.00  0.00    +0.000 A 
ATOM     16  C   UNL     1       2.334   2.907  21.577  0.00  0.00    +0.000 A 
ATOM     17  C   UNL     1       2.072   4.197  21.119  0.00  0.00    +0.000 A 
ENDBRANCH   5  12
BRANCH   1  20
ATOM     18  O   UNL     1       5.459   6.934  17.620  0.00  0.00    +0.000 OA
ATOM     19  C   UNL     1       4.802   6.145  16.946  0.00  0.00    +0.000 C 
ATOM     20  N   UNL     1       3.452   5.876  17.175  0.00  0.00    +0.000 N 
ATOM     21  H   UNL     1       3.207   4.907  17.033  0.00  0.00    +0.000 HD
BRANCH  19  22
ATOM     22  C   UNL     1       5.432   5.362  15.892  0.00  0.00    +0.000 A 
ATOM     23  C   UNL     1       5.393   3.991  15.690  0.00  0.00    +0.000 A 
ATOM     24  C   UNL     1       6.260   3.696  14.613  0.00  0.00    +0.000 A 
ATOM     25  C   UNL     1       6.772   4.910  14.221  0.00  0.00    +0.000 A 
ATOM     26  O   UNL     1       6.259   5.942  14.957  0.00  0.00    +0.000 OA
BRANCH  25  27
ATOM     27  N   UNL     1       7.743   5.233  13.221  0.00  0.00    +0.000 N 
ATOM     28  O   UNL     1       8.706   5.919  13.592  0.00  0.00    +0.000 OA
ATOM     29  O   UNL     1       7.554   4.809  12.075  0.00  0.00    +0.000 OA
ENDBRANCH  25  27
ENDBRANCH  19  22
ENDBRANCH   1  20
TORSDOF 5
ENDMDL
MODEL 4
REMARK VINA RESULT:      -8.6      0.165      1.296
REMARK  Name = 
REMARK  5 active torsions:
REMARK  status: ('A' for Active; 'I' for Inactive)
REMARK    1  A    between atoms: C_2  and  C_21
REMARK    2  A    between atoms: N_3  and  C_4
REMARK    3  A    between atoms: C_6  and  C_7
REMARK    4  A    between atoms: C_14  and  C_15
REMARK    5  A    between atoms: C_24  and  N_25
REMARK                            x       y       z     vdW  Elec       q    Type
REMARK                         _______ _______ _______ _____ _____    ______ ____
ROOT
ATOM      1  C   UNL     1       2.859   6.438  18.259  0.00  0.00    +0.000 A 
ATOM      2  S   UNL     1       2.573   8.115  18.179  0.00  0.00    +0.000 S 
ATOM      3  C   UNL     1       1.715   8.031  19.682  0.00  0.00    +0.000 A 
ATOM      4  N   UNL     1       1.766   6.849  20.269  0.00  0.00    +0.000 NA
ATOM      5  C   UNL     1       2.434   5.929  19.472  0.00  0.00    +0.000 A 
ENDROOT
BRANCH   3   6
ATOM      6  C   UNL     1       1.050   9.203  20.283  0.00  0.00    +0.000 A 
ATOM      7  C   UNL     1       0.556   9.222  21.596  0.00  0.00    +0.000 A 
ATOM      8  C   UNL     1      -0.047  10.374  22.121  0.00  0.00    +0.000 A 
ATOM      9  C   UNL     1      -0.163  11.523  21.342  0.00  0.00    +0.000 A 
ATOM     10  C   UNL     1       0.331  11.528  20.042  0.00  0.00    +0.000 A 
ATOM     11  C   UNL     1       0.935  10.381  19.521  0.00  0.00    +0.000 A 
ENDBRANCH   3   6
BRANCH   5  12
ATOM     12  C   UNL     1       2.720   4.593  19.986  0.00  0.00    +0.000 A 
ATOM     13  C   UNL     1       1.931   4.060  21.010  0.00  0.00    +0.000 A 
ATOM     14  C   UNL     1       2.261   2.834  21.602  0.00  0.00    +0.000 A 
ATOM     15  C   UNL     1       3.389   2.136  21.175  0.00  0.00    +0.000 A 
ATOM     16  C   UNL     1       4.180   2.654  20.153  0.00  0.00    +0.000 A 
ATOM     17  C   UNL     1       3.851   3.873  19.563  0.00  0.00    +0.000 A 
ENDBRANCH   5  12
BRANCH   1  20
ATOM     18  O   UNL     1       5.482   6.669  17.778  0.00  0.00    +0.000 OA
ATOM     19  C   UNL     1       4.801   6.002  17.004  0.00  0.00    +0.000 C 
ATOM     20  N   UNL     1       3.421   5.839  17.138  0.00  0.00    +0.000 N 
ATOM     21  H   UNL     1       3.102   4.912  16.898  0.00  0.00    +0.000 HD
BRANCH  19  22
ATOM     22  C   UNL     1       5.422   5.255  15.920  0.00  0.00    +0.000 A 
ATOM     23  C   UNL     1       5.373   3.893  15.666  0.00  0.00    +0.000 A 
ATOM     24  C   UNL     1       6.235   3.633  14.577  0.00  0.00    +0.000 A 
ATOM     25  C   UNL     1       6.755   4.857  14.229  0.00  0.00    +0.000 A 
ATOM     26  O   UNL     1       6.250   5.863  15.004  0.00  0.00    +0.000 OA
BRANCH  25  27
ATOM     27  N   UNL     1       7.725   5.211  13.238  0.00  0.00    +0.000 N 
ATOM     28  O   UNL     1       7.535   4.762  12.099  0.00  0.00    +0.000 OA
ATOM     29  O   UNL     1       8.668   5.930  13.586  0.00  0.00    +0.000 OA
ENDBRANCH  25  27
ENDBRANCH  19  22
ENDBRANCH   1  20
TORSDOF 5
ENDMDL
MODEL 5
REMARK VINA RESULT:      -8.4      3.029      8.053
REMARK  Name = 
REMARK  5 active torsions:
REMARK  status: ('A' for Active; 'I' for Inactive)
REMARK    1  A    between atoms: C_2  and  C_21
REMARK    2  A    between atoms: N_3  and  C_4
REMARK    3  A    between atoms: C_6  and  C_7
REMARK    4  A    between atoms: C_14  and  C_15
REMARK    5  A    between atoms: C_24  and  N_25
REMARK                            x       y       z     vdW  Elec       q    Type
REMARK                         _______ _______ _______ _____ _____    ______ ____
ROOT
ATOM      1  C   UNL     1       4.046   5.925  17.583  0.00  0.00    +0.000 A 
ATOM      2  S   UNL     1       4.837   6.583  16.227  0.00  0.00    +0.000 S 
ATOM      3  C   UNL     1       5.176   4.982  15.658  0.00  0.00    +0.000 A 
ATOM      4  N   UNL     1       4.609   4.024  16.367  0.00  0.00    +0.000 NA
ATOM      5  C   UNL     1       3.942   4.551  17.466  0.00  0.00    +0.000 A 
ENDROOT
BRANCH   3   6
ATOM      6  C   UNL     1       5.972   4.724  14.442  0.00  0.00    +0.000 A 
ATOM      7  C   UNL     1       7.205   5.342  14.180  0.00  0.00    +0.000 A 
ATOM      8  C   UNL     1       7.928   5.038  13.018  0.00  0.00    +0.000 A 
ATOM      9  C   UNL     1       7.431   4.112  12.102  0.00  0.00    +0.000 A 
ATOM     10  C   UNL     1       6.217   3.482  12.350  0.00  0.00    +0.000 A 
ATOM     11  C   UNL     1       5.498   3.781  13.510  0.00  0.00    +0.000 A 
ENDBRANCH   3   6
BRANCH   5  12
ATOM     12  C   UNL     1       3.133   3.679  18.313  0.00  0.00    +0.000 A 
ATOM     13  C   UNL     1       1.846   3.317  17.907  0.00  0.00    +0.000 A 
ATOM     14  C   UNL     1       1.008   2.584  18.757  0.00  0.00    +0.000 A 
ATOM     15  C   UNL     1       1.454   2.215  20.026  0.00  0.00    +0.000 A 
ATOM     16  C   UNL     1       2.735   2.567  20.441  0.00  0.00    +0.000 A 
ATOM     17  C   UNL     1       3.569   3.295  19.593  0.00  0.00    +0.000 A 
ENDBRANCH   5  12
BRANCH   1  20
ATOM     18  O   UNL     1       1.594   6.997  17.569  0.00  0.00    +0.000 OA
ATOM     19  C   UNL     1       2.354   7.284  18.490  0.00  0.00    +0.000 C 
ATOM     20  N   UNL     1       3.664   6.810  18.583  0.00  0.00    +0.000 N 
ATOM     21  H   UNL     1       3.945   6.593  19.527  0.00  0.00    +0.000 HD
BRANCH  19  22
ATOM     22  C   UNL     1       1.894   8.092  19.611  0.00  0.00    +0.000 A 
ATOM     23  C   UNL     1       1.719   7.718  20.935  0.00  0.00    +0.000 A 
ATOM     24  C   UNL     1       1.137   8.813  21.612  0.00  0.00    +0.000 A 
ATOM     25  C   UNL     1       0.996   9.792  20.657  0.00  0.00    +0.000 A 
ATOM     26  O   UNL     1       1.481   9.394  19.443  0.00  0.00    +0.000 OA
BRANCH  25  27
ATOM     27  N   UNL     1       0.414  11.097  20.739  0.00  0.00    +0.000 N 
ATOM     28  O   UNL     1       1.060  11.947  21.369  0.00  0.00    +0.000 OA
ATOM     29  O   UNL     1      -0.673  11.280  20.181  0.00  0.00    +0.000 OA
ENDBRANCH  25  27
ENDBRANCH  19  22
ENDBRANCH   1  20
TORSDOF 5
ENDMDL
MODEL 6
REMARK VINA RESULT:      -8.3      3.035      8.019
REMARK  Name = 
REMARK  5 active torsions:
REMARK  status: ('A' for Active; 'I' for Inactive)
REMARK    1  A    between atoms: C_2  and  C_21
REMARK    2  A    between atoms: N_3  and  C_4
REMARK    3  A    between atoms: C_6  and  C_7
REMARK    4  A    between atoms: C_14  and  C_15
REMARK    5  A    between atoms: C_24  and  N_25
REMARK                            x       y       z     vdW  Elec       q    Type
REMARK                         _______ _______ _______ _____ _____    ______ ____
ROOT
ATOM      1  C   UNL     1       3.943   5.935  17.699  0.00  0.00    +0.000 A 
ATOM      2  S   UNL     1       4.736   6.555  16.326  0.00  0.00    +0.000 S 
ATOM      3  C   UNL     1       5.057   4.938  15.793  0.00  0.00    +0.000 A 
ATOM      4  N   UNL     1       4.482   4.002  16.526  0.00  0.00    +0.000 NA
ATOM      5  C   UNL     1       3.825   4.560  17.615  0.00  0.00    +0.000 A 
ENDROOT
BRANCH   3   6
ATOM      6  C   UNL     1       5.845   4.643  14.581  0.00  0.00    +0.000 A 
ATOM      7  C   UNL     1       5.417   3.760  13.577  0.00  0.00    +0.000 A 
ATOM      8  C   UNL     1       6.200   3.537  12.435  0.00  0.00    +0.000 A 
ATOM      9  C   UNL     1       7.418   4.195  12.278  0.00  0.00    +0.000 A 
ATOM     10  C   UNL     1       7.853   5.083  13.256  0.00  0.00    +0.000 A 
ATOM     11  C   UNL     1       7.072   5.307  14.392  0.00  0.00    +0.000 A 
ENDBRANCH   3   6
BRANCH   5  12
ATOM     12  C   UNL     1       3.011   3.716  18.485  0.00  0.00    +0.000 A 
ATOM     13  C   UNL     1       1.749   3.292  18.057  0.00  0.00    +0.000 A 
ATOM     14  C   UNL     1       0.902   2.586  18.920  0.00  0.00    +0.000 A 
ATOM     15  C   UNL     1       1.312   2.307  20.223  0.00  0.00    +0.000 A 
ATOM     16  C   UNL     1       2.566   2.720  20.660  0.00  0.00    +0.000 A 
ATOM     17  C   UNL     1       3.410   3.421  19.800  0.00  0.00    +0.000 A 
ENDBRANCH   5  12
BRANCH   1  20
ATOM     18  O   UNL     1       1.555   7.139  17.591  0.00  0.00    +0.000 OA
ATOM     19  C   UNL     1       2.296   7.391  18.537  0.00  0.00    +0.000 C 
ATOM     20  N   UNL     1       3.573   6.847  18.680  0.00  0.00    +0.000 N 
ATOM     21  H   UNL     1       3.808   6.622  19.636  0.00  0.00    +0.000 HD
BRANCH  19  22
ATOM     22  C   UNL     1       1.840   8.230  19.637  0.00  0.00    +0.000 A 
ATOM     23  C   UNL     1       1.667   7.892  20.970  0.00  0.00    +0.000 A 
ATOM     24  C   UNL     1       1.088   9.007  21.618  0.00  0.00    +0.000 A 
ATOM     25  C   UNL     1       0.948   9.961  20.638  0.00  0.00    +0.000 A 
ATOM     26  O   UNL     1       1.430   9.528  19.434  0.00  0.00    +0.000 OA
BRANCH  25  27
ATOM     27  N   UNL     1       0.371  11.269  20.685  0.00  0.00    +0.000 N 
ATOM     28  O   UNL     1      -0.469  11.530  19.811  0.00  0.00    +0.000 OA
ATOM     29  O   UNL     1       0.745  12.033  21.582  0.00  0.00    +0.000 OA
ENDBRANCH  25  27
ENDBRANCH  19  22
ENDBRANCH   1  20
TORSDOF 5
ENDMDL
MODEL 7
REMARK VINA RESULT:      -8.3      1.236      1.421
REMARK  Name = 
REMARK  5 active torsions:
REMARK  status: ('A' for Active; 'I' for Inactive)
REMARK    1  A    between atoms: C_2  and  C_21
REMARK    2  A    between atoms: N_3  and  C_4
REMARK    3  A    between atoms: C_6  and  C_7
REMARK    4  A    between atoms: C_14  and  C_15
REMARK    5  A    between atoms: C_24  and  N_25
REMARK                            x       y       z     vdW  Elec       q    Type
REMARK                         _______ _______ _______ _____ _____    ______ ____
ROOT
ATOM      1  C   UNL     1       2.233   6.773  18.991  0.00  0.00    +0.000 A 
ATOM      2  S   UNL     1       2.211   8.473  19.078  0.00  0.00    +0.000 S 
ATOM      3  C   UNL     1       1.149   8.380  20.444  0.00  0.00    +0.000 A 
ATOM      4  N   UNL     1       0.943   7.154  20.887  0.00  0.00    +0.000 NA
ATOM      5  C   UNL     1       1.574   6.221  20.073  0.00  0.00    +0.000 A 
ENDROOT
BRANCH   3   6
ATOM      6  C   UNL     1       0.585   9.579  21.094  0.00  0.00    +0.000 A 
ATOM      7  C   UNL     1       0.718  10.875  20.572  0.00  0.00    +0.000 A 
ATOM      8  C   UNL     1       0.139  11.974  21.222  0.00  0.00    +0.000 A 
ATOM      9  C   UNL     1      -0.580  11.794  22.402  0.00  0.00    +0.000 A 
ATOM     10  C   UNL     1      -0.732  10.516  22.929  0.00  0.00    +0.000 A 
ATOM     11  C   UNL     1      -0.159   9.421  22.278  0.00  0.00    +0.000 A 
ENDBRANCH   3   6
BRANCH   5  12
ATOM     12  C   UNL     1       1.586   4.812  20.455  0.00  0.00    +0.000 A 
ATOM     13  C   UNL     1       2.371   4.391  21.532  0.00  0.00    +0.000 A 
ATOM     14  C   UNL     1       2.494   3.030  21.839  0.00  0.00    +0.000 A 
ATOM     15  C   UNL     1       1.834   2.080  21.062  0.00  0.00    +0.000 A 
ATOM     16  C   UNL     1       1.046   2.485  19.989  0.00  0.00    +0.000 A 
ATOM     17  C   UNL     1       0.922   3.840  19.685  0.00  0.00    +0.000 A 
ENDBRANCH   5  12
BRANCH   1  20
ATOM     18  O   UNL     1       4.686   5.722  19.207  0.00  0.00    +0.000 OA
ATOM     19  C   UNL     1       4.117   5.664  18.121  0.00  0.00    +0.000 C 
ATOM     20  N   UNL     1       2.853   6.205  17.884  0.00  0.00    +0.000 N 
ATOM     21  H   UNL     1       2.282   5.639  17.273  0.00  0.00    +0.000 HD
BRANCH  19  22
ATOM     22  C   UNL     1       4.710   4.935  17.008  0.00  0.00    +0.000 A 
ATOM     23  C   UNL     1       4.622   3.584  16.712  0.00  0.00    +0.000 A 
ATOM     24  C   UNL     1       5.468   3.335  15.608  0.00  0.00    +0.000 A 
ATOM     25  C   UNL     1       6.019   4.555  15.295  0.00  0.00    +0.000 A 
ATOM     26  O   UNL     1       5.548   5.550  16.106  0.00  0.00    +0.000 OA
BRANCH  25  27
ATOM     27  N   UNL     1       6.992   4.914  14.308  0.00  0.00    +0.000 N 
ATOM     28  O   UNL     1       6.834   4.426  13.180  0.00  0.00    +0.000 OA
ATOM     29  O   UNL     1       7.904   5.675  14.648  0.00  0.00    +0.000 OA
ENDBRANCH  25  27
ENDBRANCH  19  22
ENDBRANCH   1  20
TORSDOF 5
ENDMDL
MODEL 8
REMARK VINA RESULT:      -8.2      3.122      8.103
REMARK  Name = 
REMARK  5 active torsions:
REMARK  status: ('A' for Active; 'I' for Inactive)
REMARK    1  A    between atoms: C_2  and  C_21
REMARK    2  A    between atoms: N_3  and  C_4
REMARK    3  A    between atoms: C_6  and  C_7
REMARK    4  A    between atoms: C_14  and  C_15
REMARK    5  A    between atoms: C_24  and  N_25
REMARK                            x       y       z     vdW  Elec       q    Type
REMARK                         _______ _______ _______ _____ _____    ______ ____
ROOT
ATOM      1  C   UNL     1       3.177   6.623  18.565  0.00  0.00    +0.000 A 
ATOM      2  S   UNL     1       4.024   7.167  17.192  0.00  0.00    +0.000 S 
ATOM      3  C   UNL     1       4.539   5.544  16.878  0.00  0.00    +0.000 A 
ATOM      4  N   UNL     1       3.993   4.639  17.670  0.00  0.00    +0.000 NA
ATOM      5  C   UNL     1       3.195   5.243  18.633  0.00  0.00    +0.000 A 
ENDROOT
BRANCH   3   6
ATOM      6  C   UNL     1       5.454   5.201  15.771  0.00  0.00    +0.000 A 
ATOM      7  C   UNL     1       6.800   5.596  15.732  0.00  0.00    +0.000 A 
ATOM      8  C   UNL     1       7.628   5.220  14.665  0.00  0.00    +0.000 A 
ATOM      9  C   UNL     1       7.123   4.444  13.623  0.00  0.00    +0.000 A 
ATOM     10  C   UNL     1       5.795   4.034  13.649  0.00  0.00    +0.000 A 
ATOM     11  C   UNL     1       4.972   4.405  14.715  0.00  0.00    +0.000 A 
ENDBRANCH   3   6
BRANCH   5  12
ATOM     12  C   UNL     1       2.391   4.420  19.532  0.00  0.00    +0.000 A 
ATOM     13  C   UNL     1       2.719   4.351  20.889  0.00  0.00    +0.000 A 
ATOM     14  C   UNL     1       2.039   3.475  21.745  0.00  0.00    +0.000 A 
ATOM     15  C   UNL     1       1.029   2.655  21.243  0.00  0.00    +0.000 A 
ATOM     16  C   UNL     1       0.691   2.717  19.894  0.00  0.00    +0.000 A 
ATOM     17  C   UNL     1       1.366   3.590  19.044  0.00  0.00    +0.000 A 
ENDBRANCH   5  12
BRANCH   1  20
ATOM     18  O   UNL     1       1.499   8.467  17.590  0.00  0.00    +0.000 OA
ATOM     19  C   UNL     1       1.756   8.485  18.790  0.00  0.00    +0.000 C 
ATOM     20  N   UNL     1       2.640   7.594  19.402  0.00  0.00    +0.000 N 
ATOM     21  H   UNL     1       2.342   7.301  20.321  0.00  0.00    +0.000 HD
BRANCH  19  22
ATOM     22  C   UNL     1       1.073   9.410  19.684  0.00  0.00    +0.000 A 
ATOM     23  C   UNL     1       0.768  10.747  19.481  0.00  0.00    +0.000 A 
ATOM     24  C   UNL     1       0.218  11.244  20.684  0.00  0.00    +0.000 A 
ATOM     25  C   UNL     1       0.218  10.176  21.548  0.00  0.00    +0.000 A 
ATOM     26  O   UNL     1       0.697   9.041  20.956  0.00  0.00    +0.000 OA
BRANCH  25  27
ATOM     27  N   UNL     1      -0.167  10.089  22.924  0.00  0.00    +0.000 N 
ATOM     28  O   UNL     1       0.664   9.588  23.695  0.00  0.00    +0.000 OA
ATOM     29  O   UNL     1      -1.283  10.517  23.239  0.00  0.00    +0.000 OA
ENDBRANCH  25  27
ENDBRANCH  19  22
ENDBRANCH   1  20
TORSDOF 5
ENDMDL
MODEL 9
REMARK VINA RESULT:      -8.1      1.242      1.782
REMARK  Name = 
REMARK  5 active torsions:
REMARK  status: ('A' for Active; 'I' for Inactive)
REMARK    1  A    between atoms: C_2  and  C_21
REMARK    2  A    between atoms: N_3  and  C_4
REMARK    3  A    between atoms: C_6  and  C_7
REMARK    4  A    between atoms: C_14  and  C_15
REMARK    5  A    between atoms: C_24  and  N_25
REMARK                            x       y       z     vdW  Elec       q    Type
REMARK                         _______ _______ _______ _____ _____    ______ ____
ROOT
ATOM      1  C   UNL     1       2.206   6.782  18.980  0.00  0.00    +0.000 A 
ATOM      2  S   UNL     1       2.170   8.482  19.068  0.00  0.00    +0.000 S 
ATOM      3  C   UNL     1       1.107   8.379  20.432  0.00  0.00    +0.000 A 
ATOM      4  N   UNL     1       0.910   7.151  20.875  0.00  0.00    +0.000 NA
ATOM      5  C   UNL     1       1.549   6.224  20.061  0.00  0.00    +0.000 A 
ENDROOT
BRANCH   3   6
ATOM      6  C   UNL     1       0.533   9.573  21.083  0.00  0.00    +0.000 A 
ATOM      7  C   UNL     1      -0.220   9.521  22.266  0.00  0.00    +0.000 A 
ATOM      8  C   UNL     1      -0.721  10.693  22.851  0.00  0.00    +0.000 A 
ATOM      9  C   UNL     1      -0.475  11.932  22.264  0.00  0.00    +0.000 A 
ATOM     10  C   UNL     1       0.279  12.006  21.098  0.00  0.00    +0.000 A 
ATOM     11  C   UNL     1       0.781  10.838  20.517  0.00  0.00    +0.000 A 
ENDBRANCH   3   6
BRANCH   5  12
ATOM     12  C   UNL     1       1.571   4.815  20.441  0.00  0.00    +0.000 A 
ATOM     13  C   UNL     1       2.348   4.402  21.528  0.00  0.00    +0.000 A 
ATOM     14  C   UNL     1       2.482   3.042  21.835  0.00  0.00    +0.000 A 
ATOM     15  C   UNL     1       1.842   2.085  21.049  0.00  0.00    +0.000 A 
ATOM     16  C   UNL     1       1.062   2.483  19.967  0.00  0.00    +0.000 A 
ATOM     17  C   UNL     1       0.928   3.837  19.663  0.00  0.00    +0.000 A 
ENDBRANCH   5  12
BRANCH   1  20
ATOM     18  O   UNL     1       4.647   5.708  19.210  0.00  0.00    +0.000 OA
ATOM     19  C   UNL     1       4.089   5.666  18.117  0.00  0.00    +0.000 C 
ATOM     20  N   UNL     1       2.831   6.220  17.873  0.00  0.00    +0.000 N 
ATOM     21  H   UNL     1       2.262   5.665  17.251  0.00  0.00    +0.000 HD
BRANCH  19  22
ATOM     22  C   UNL     1       4.686   4.943  17.003  0.00  0.00    +0.000 A 
ATOM     23  C   UNL     1       4.587   3.595  16.691  0.00  0.00    +0.000 A 
ATOM     24  C   UNL     1       5.443   3.350  15.593  0.00  0.00    +0.000 A 
ATOM     25  C   UNL     1       6.010   4.567  15.300  0.00  0.00    +0.000 A 
ATOM     26  O   UNL     1       5.540   5.558  16.117  0.00  0.00    +0.000 OA
BRANCH  25  27
ATOM     27  N   UNL     1       6.997   4.926  14.328  0.00  0.00    +0.000 N 
ATOM     28  O   UNL     1       7.890   5.696  14.712  0.00  0.00    +0.000 OA
ATOM     29  O   UNL     1       6.890   4.448  13.194  0.00  0.00    +0.000 OA
ENDBRANCH  25  27
ENDBRANCH  19  22
ENDBRANCH   1  20
TORSDOF 5
ENDMDL
