MODEL 1
REMARK VINA RESULT:      -9.6      0.000      0.000
REMARK  Name = 
REMARK  11 active torsions:
REMARK  status: ('A' for Active; 'I' for Inactive)
REMARK    1  A    between atoms: C_1  and  C_2
REMARK    2  A    between atoms: C_5  and  C_6
REMARK    3  A    between atoms: C_6  and  O_8
REMARK    4  A    between atoms: C_9  and  O_10
REMARK    5  A    between atoms: O_10  and  C_11
REMARK    6  A    between atoms: C_13  and  O_14
REMARK    7  A    between atoms: O_14  and  C_15
REMARK    8  A    between atoms: C_17  and  O_18
REMARK    9  A    between atoms: C_20  and  C_21
REMARK   10  A    between atoms: C_25  and  C_26
REMARK   11  A    between atoms: C_26  and  N_27
REMARK                            x       y       z     vdW  Elec       q    Type
REMARK                         _______ _______ _______ _____ _____    ______ ____
ROOT
ATOM      1  C   UNL     1       4.187   3.718  19.021  0.00  0.00    +0.000 A 
ATOM      2  N   UNL     1       3.865   4.795  19.790  0.00  0.00    +0.000 NA
ATOM      3  C   UNL     1       2.559   4.928  20.165  0.00  0.00    +0.000 A 
ATOM      4  C   UNL     1       1.590   3.976  19.839  0.00  0.00    +0.000 A 
ATOM      5  F   UNL     1       0.325   4.048  20.276  0.00  0.00    +0.000 F 
ATOM      6  C   UNL     1       1.925   2.913  19.021  0.00  0.00    +0.000 A 
ATOM      7  C   UNL     1       3.232   2.802  18.581  0.00  0.00    +0.000 A 
ATOM      8  F   UNL     1       3.535   1.772  17.780  0.00  0.00    +0.000 F 
ENDROOT
BRANCH   1   9
ATOM      9  O   UNL     1       5.535   3.622  18.683  0.00  0.00    +0.000 OA
BRANCH   9  15
ATOM     10  C   UNL     1       5.429   3.924  13.749  0.00  0.00    +0.000 C 
ATOM     11  C   UNL     1       5.976   4.386  15.068  0.00  0.00    +0.000 A 
ATOM     12  C   UNL     1       6.855   5.465  15.148  0.00  0.00    +0.000 A 
ATOM     13  C   UNL     1       7.317   5.903  16.391  0.00  0.00    +0.000 A 
ATOM     14  C   UNL     1       6.889   5.282  17.579  0.00  0.00    +0.000 A 
ATOM     15  C   UNL     1       5.986   4.210  17.512  0.00  0.00    +0.000 A 
ATOM     16  C   UNL     1       5.577   3.742  16.248  0.00  0.00    +0.000 A 
BRANCH  14  17
ATOM     17  C   UNL     1       7.411   5.874  18.844  0.00  0.00    +0.000 C 
ATOM     18  O   UNL     1       8.176   6.819  18.858  0.00  0.00    +0.000 OA
BRANCH  17  19
ATOM     19  O   UNL     1       7.036   5.232  19.968  0.00  0.00    +0.000 OA
ATOM     20  H   UNL     1       7.635   4.521  20.260  0.00  0.00    +0.000 HD
ENDBRANCH  17  19
ENDBRANCH  14  17
ENDBRANCH   9  15
ENDBRANCH   1   9
BRANCH   3  21
ATOM     21  O   UNL     1       2.289   6.038  20.954  0.00  0.00    +0.000 OA
BRANCH  21  22
ATOM     22  C   UNL     1       1.870   7.216  20.363  0.00  0.00    +0.000 A 
ATOM     23  C   UNL     1       2.311   7.475  19.067  0.00  0.00    +0.000 A 
ATOM     24  C   UNL     1       1.929   8.659  18.444  0.00  0.00    +0.000 A 
ATOM     25  C   UNL     1       1.117   9.587  19.090  0.00  0.00    +0.000 A 
ATOM     26  C   UNL     1       0.643   9.341  20.387  0.00  0.00    +0.000 A 
ATOM     27  C   UNL     1       1.003   8.122  20.989  0.00  0.00    +0.000 A 
BRANCH  26  28
ATOM     28  C   UNL     1      -0.202  10.316  21.111  0.00  0.00    +0.000 A 
ATOM     29  C   UNL     1      -0.543  10.123  22.456  0.00  0.00    +0.000 A 
ATOM     30  C   UNL     1      -1.327  11.050  23.145  0.00  0.00    +0.000 A 
ATOM     31  C   UNL     1      -1.784  12.199  22.494  0.00  0.00    +0.000 A 
ATOM     32  C   UNL     1      -1.470  12.428  21.153  0.00  0.00    +0.000 A 
ATOM     33  C   UNL     1      -0.689  11.476  20.475  0.00  0.00    +0.000 A 
BRANCH  32  34
ATOM     34  C   UNL     1      -1.989  13.641  20.421  0.00  0.00    +0.000 C 
BRANCH  34  35
ATOM     35  N   UNL     1      -3.447  13.688  20.395  0.00  0.00    +0.000 NA
ATOM     36  H   UNL     1      -3.740  14.623  20.113  0.00  0.00    +0.000 HD
ATOM     37  H   UNL     1      -3.798  13.561  21.345  0.00  0.00    +0.000 HD
ENDBRANCH  34  35
ENDBRANCH  32  34
ENDBRANCH  26  28
BRANCH  24  38
ATOM     38  O   UNL     1       2.342   8.969  17.178  0.00  0.00    +0.000 OA
ATOM     39  H   UNL     1       2.386   9.932  17.088  0.00  0.00    +0.000 HD
ENDBRANCH  24  38
ENDBRANCH  21  22
ENDBRANCH   3  21
TORSDOF 10
ENDMDL
MODEL 2
REMARK VINA RESULT:      -9.1      2.929      9.553
REMARK  Name = 
REMARK  11 active torsions:
REMARK  status: ('A' for Active; 'I' for Inactive)
REMARK    1  A    between atoms: C_1  and  C_2
REMARK    2  A    between atoms: C_5  and  C_6
REMARK    3  A    between atoms: C_6  and  O_8
REMARK    4  A    between atoms: C_9  and  O_10
REMARK    5  A    between atoms: O_10  and  C_11
REMARK    6  A    between atoms: C_13  and  O_14
REMARK    7  A    between atoms: O_14  and  C_15
REMARK    8  A    between atoms: C_17  and  O_18
REMARK    9  A    between atoms: C_20  and  C_21
REMARK   10  A    between atoms: C_25  and  C_26
REMARK   11  A    between atoms: C_26  and  N_27
REMARK                            x       y       z     vdW  Elec       q    Type
REMARK                         _______ _______ _______ _____ _____    ______ ____
ROOT
ATOM      1  C   UNL     1       1.693   8.542  19.530  0.00  0.00    +0.000 A 
ATOM      2  N   UNL     1       2.078   7.683  18.544  0.00  0.00    +0.000 NA
ATOM      3  C   UNL     1       2.236   6.371  18.885  0.00  0.00    +0.000 A 
ATOM      4  C   UNL     1       1.958   5.897  20.169  0.00  0.00    +0.000 A 
ATOM      5  F   UNL     1       2.023   4.597  20.493  0.00  0.00    +0.000 F 
ATOM      6  C   UNL     1       1.612   6.788  21.167  0.00  0.00    +0.000 A 
ATOM      7  C   UNL     1       1.511   8.131  20.850  0.00  0.00    +0.000 A 
ATOM      8  F   UNL     1       1.186   8.981  21.832  0.00  0.00    +0.000 F 
ENDROOT
BRANCH   1   9
ATOM      9  O   UNL     1       1.529   9.864  19.122  0.00  0.00    +0.000 OA
BRANCH   9  15
ATOM     10  C   UNL     1      -2.735   9.889  16.620  0.00  0.00    +0.000 C 
ATOM     11  C   UNL     1      -1.875  10.423  17.727  0.00  0.00    +0.000 A 
ATOM     12  C   UNL     1      -2.372  11.345  18.648  0.00  0.00    +0.000 A 
ATOM     13  C   UNL     1      -1.565  11.794  19.695  0.00  0.00    +0.000 A 
ATOM     14  C   UNL     1      -0.253  11.312  19.852  0.00  0.00    +0.000 A 
ATOM     15  C   UNL     1       0.249  10.367  18.946  0.00  0.00    +0.000 A 
ATOM     16  C   UNL     1      -0.555   9.969  17.861  0.00  0.00    +0.000 A 
BRANCH  14  17
ATOM     17  C   UNL     1       0.489  11.829  21.038  0.00  0.00    +0.000 C 
ATOM     18  O   UNL     1      -0.043  12.005  22.118  0.00  0.00    +0.000 OA
BRANCH  17  19
ATOM     19  O   UNL     1       1.773  12.164  20.803  0.00  0.00    +0.000 OA
ATOM     20  H   UNL     1       2.129  12.870  21.371  0.00  0.00    +0.000 HD
ENDBRANCH  17  19
ENDBRANCH  14  17
ENDBRANCH   9  15
ENDBRANCH   1   9
BRANCH   3  21
ATOM     21  O   UNL     1       2.621   5.540  17.841  0.00  0.00    +0.000 OA
BRANCH  21  22
ATOM     22  C   UNL     1       3.964   5.345  17.576  0.00  0.00    +0.000 A 
ATOM     23  C   UNL     1       4.845   5.411  18.653  0.00  0.00    +0.000 A 
ATOM     24  C   UNL     1       6.208   5.240  18.427  0.00  0.00    +0.000 A 
ATOM     25  C   UNL     1       6.704   5.005  17.148  0.00  0.00    +0.000 A 
ATOM     26  C   UNL     1       5.836   4.913  16.050  0.00  0.00    +0.000 A 
ATOM     27  C   UNL     1       4.458   5.047  16.299  0.00  0.00    +0.000 A 
BRANCH  26  28
ATOM     28  C   UNL     1       6.332   4.686  14.675  0.00  0.00    +0.000 A 
ATOM     29  C   UNL     1       7.429   5.399  14.173  0.00  0.00    +0.000 A 
ATOM     30  C   UNL     1       7.909   5.174  12.881  0.00  0.00    +0.000 A 
ATOM     31  C   UNL     1       7.296   4.219  12.065  0.00  0.00    +0.000 A 
ATOM     32  C   UNL     1       6.198   3.489  12.525  0.00  0.00    +0.000 A 
ATOM     33  C   UNL     1       5.725   3.740  13.825  0.00  0.00    +0.000 A 
BRANCH  32  34
ATOM     34  C   UNL     1       5.497   2.485  11.644  0.00  0.00    +0.000 C 
BRANCH  34  35
ATOM     35  N   UNL     1       6.315   1.305  11.392  0.00  0.00    +0.000 NA
ATOM     36  H   UNL     1       6.831   1.076  12.242  0.00  0.00    +0.000 HD
ATOM     37  H   UNL     1       7.021   1.536  10.692  0.00  0.00    +0.000 HD
ENDBRANCH  34  35
ENDBRANCH  32  34
ENDBRANCH  26  28
BRANCH  24  38
ATOM     38  O   UNL     1       7.118   5.306  19.445  0.00  0.00    +0.000 OA
ATOM     39  H   UNL     1       7.826   5.919  19.195  0.00  0.00    +0.000 HD
ENDBRANCH  24  38
ENDBRANCH  21  22
ENDBRANCH   3  21
TORSDOF 10
ENDMDL
MODEL 3
REMARK VINA RESULT:      -8.9      3.483     10.313
REMARK  Name = 
REMARK  11 active torsions:
REMARK  status: ('A' for Active; 'I' for Inactive)
REMARK    1  A    between atoms: C_1  and  C_2
REMARK    2  A    between atoms: C_5  and  C_6
REMARK    3  A    between atoms: C_6  and  O_8
REMARK    4  A    between atoms: C_9  and  O_10
REMARK    5  A    between atoms: O_10  and  C_11
REMARK    6  A    between atoms: C_13  and  O_14
REMARK    7  A    between atoms: O_14  and  C_15
REMARK    8  A    between atoms: C_17  and  O_18
REMARK    9  A    between atoms: C_20  and  C_21
REMARK   10  A    between atoms: C_25  and  C_26
REMARK   11  A    between atoms: C_26  and  N_27
REMARK                            x       y       z     vdW  Elec       q    Type
REMARK                         _______ _______ _______ _____ _____    ______ ____
ROOT
ATOM      1  C   UNL     1      -2.112  12.212  19.371  0.00  0.00    +0.000 A 
ATOM      2  N   UNL     1      -0.853  11.778  19.078  0.00  0.00    +0.000 NA
ATOM      3  C   UNL     1      -0.733  10.799  18.135  0.00  0.00    +0.000 A 
ATOM      4  C   UNL     1      -1.835  10.295  17.440  0.00  0.00    +0.000 A 
ATOM      5  F   UNL     1      -1.722   9.399  16.449  0.00  0.00    +0.000 F 
ATOM      6  C   UNL     1      -3.107  10.714  17.780  0.00  0.00    +0.000 A 
ATOM      7  C   UNL     1      -3.248  11.660  18.781  0.00  0.00    +0.000 A 
ATOM      8  F   UNL     1      -4.489  12.045  19.105  0.00  0.00    +0.000 F 
ENDROOT
BRANCH   1   9
ATOM      9  O   UNL     1      -2.174  13.224  20.326  0.00  0.00    +0.000 OA
BRANCH   9  15
ATOM     10  C   UNL     1      -6.215  13.333  23.172  0.00  0.00    +0.000 C 
ATOM     11  C   UNL     1      -4.759  13.019  22.995  0.00  0.00    +0.000 A 
ATOM     12  C   UNL     1      -4.029  12.384  23.999  0.00  0.00    +0.000 A 
ATOM     13  C   UNL     1      -2.685  12.064  23.793  0.00  0.00    +0.000 A 
ATOM     14  C   UNL     1      -2.054  12.354  22.570  0.00  0.00    +0.000 A 
ATOM     15  C   UNL     1      -2.786  12.971  21.544  0.00  0.00    +0.000 A 
ATOM     16  C   UNL     1      -4.122  13.342  21.789  0.00  0.00    +0.000 A 
BRANCH  14  17
ATOM     17  C   UNL     1      -0.633  11.916  22.454  0.00  0.00    +0.000 C 
ATOM     18  O   UNL     1      -0.232  10.865  22.916  0.00  0.00    +0.000 OA
BRANCH  17  19
ATOM     19  O   UNL     1       0.190  12.809  21.871  0.00  0.00    +0.000 OA
ATOM     20  H   UNL     1       0.689  13.378  22.485  0.00  0.00    +0.000 HD
ENDBRANCH  17  19
ENDBRANCH  14  17
ENDBRANCH   9  15
ENDBRANCH   1   9
BRANCH   3  21
ATOM     21  O   UNL     1       0.571  10.400  17.871  0.00  0.00    +0.000 OA
BRANCH  21  22
ATOM     22  C   UNL     1       1.123   9.345  18.572  0.00  0.00    +0.000 A 
ATOM     23  C   UNL     1       0.993   9.359  19.959  0.00  0.00    +0.000 A 
ATOM     24  C   UNL     1       1.552   8.326  20.704  0.00  0.00    +0.000 A 
ATOM     25  C   UNL     1       2.237   7.281  20.091  0.00  0.00    +0.000 A 
ATOM     26  C   UNL     1       2.365   7.232  18.695  0.00  0.00    +0.000 A 
ATOM     27  C   UNL     1       1.760   8.261  17.952  0.00  0.00    +0.000 A 
BRANCH  26  28
ATOM     28  C   UNL     1       3.106   6.148  18.013  0.00  0.00    +0.000 A 
ATOM     29  C   UNL     1       2.554   4.867  17.876  0.00  0.00    +0.000 A 
ATOM     30  C   UNL     1       3.245   3.848  17.218  0.00  0.00    +0.000 A 
ATOM     31  C   UNL     1       4.509   4.098  16.676  0.00  0.00    +0.000 A 
ATOM     32  C   UNL     1       5.096   5.359  16.793  0.00  0.00    +0.000 A 
ATOM     33  C   UNL     1       4.387   6.368  17.470  0.00  0.00    +0.000 A 
BRANCH  32  34
ATOM     34  C   UNL     1       6.477   5.636  16.253  0.00  0.00    +0.000 C 
BRANCH  34  35
ATOM     35  N   UNL     1       7.519   4.991  17.043  0.00  0.00    +0.000 NA
ATOM     36  H   UNL     1       7.078   4.430  17.772  0.00  0.00    +0.000 HD
ATOM     37  H   UNL     1       8.055   5.709  17.531  0.00  0.00    +0.000 HD
ENDBRANCH  34  35
ENDBRANCH  32  34
ENDBRANCH  26  28
BRANCH  24  38
ATOM     38  O   UNL     1       1.464   8.296  22.069  0.00  0.00    +0.000 OA
ATOM     39  H   UNL     1       1.720   9.162  22.420  0.00  0.00    +0.000 HD
ENDBRANCH  24  38
ENDBRANCH  21  22
ENDBRANCH   3  21
TORSDOF 10
ENDMDL
MODEL 4
REMARK VINA RESULT:      -8.8      1.337      2.268
REMARK  Name = 
REMARK  11 active torsions:
REMARK  status: ('A' for Active; 'I' for Inactive)
REMARK    1  A    between atoms: C_1  and  C_2
REMARK    2  A    between atoms: C_5  and  C_6
REMARK    3  A    between atoms: C_6  and  O_8
REMARK    4  A    between atoms: C_9  and  O_10
REMARK    5  A    between atoms: O_10  and  C_11
REMARK    6  A    between atoms: C_13  and  O_14
REMARK    7  A    between atoms: O_14  and  C_15
REMARK    8  A    between atoms: C_17  and  O_18
REMARK    9  A    between atoms: C_20  and  C_21
REMARK   10  A    between atoms: C_25  and  C_26
REMARK   11  A    between atoms: C_26  and  N_27
REMARK                            x       y       z     vdW  Elec       q    Type
REMARK                         _______ _______ _______ _____ _____    ______ ____
ROOT
ATOM      1  C   UNL     1       3.691   3.785  18.149  0.00  0.00    +0.000 A 
ATOM      2  N   UNL     1       3.545   4.827  19.014  0.00  0.00    +0.000 NA
ATOM      3  C   UNL     1       2.393   4.877  19.746  0.00  0.00    +0.000 A 
ATOM      4  C   UNL     1       1.422   3.876  19.673  0.00  0.00    +0.000 A 
ATOM      5  F   UNL     1       0.330   3.866  20.451  0.00  0.00    +0.000 F 
ATOM      6  C   UNL     1       1.565   2.850  18.758  0.00  0.00    +0.000 A 
ATOM      7  C   UNL     1       2.698   2.823  17.964  0.00  0.00    +0.000 A 
ATOM      8  F   UNL     1       2.814   1.828  17.075  0.00  0.00    +0.000 F 
ENDROOT
BRANCH   1   9
ATOM      9  O   UNL     1       4.892   3.775  17.443  0.00  0.00    +0.000 OA
BRANCH   9  15
ATOM     10  C   UNL     1       8.422   5.527  20.428  0.00  0.00    +0.000 C 
ATOM     11  C   UNL     1       7.599   5.646  19.179  0.00  0.00    +0.000 A 
ATOM     12  C   UNL     1       7.850   6.646  18.241  0.00  0.00    +0.000 A 
ATOM     13  C   UNL     1       7.099   6.709  17.066  0.00  0.00    +0.000 A 
ATOM     14  C   UNL     1       6.097   5.759  16.798  0.00  0.00    +0.000 A 
ATOM     15  C   UNL     1       5.853   4.733  17.724  0.00  0.00    +0.000 A 
ATOM     16  C   UNL     1       6.577   4.719  18.931  0.00  0.00    +0.000 A 
BRANCH  14  17
ATOM     17  C   UNL     1       5.402   5.902  15.486  0.00  0.00    +0.000 C 
ATOM     18  O   UNL     1       5.013   6.975  15.066  0.00  0.00    +0.000 OA
BRANCH  17  19
ATOM     19  O   UNL     1       5.164   4.744  14.840  0.00  0.00    +0.000 OA
ATOM     20  H   UNL     1       5.839   4.485  14.189  0.00  0.00    +0.000 HD
ENDBRANCH  17  19
ENDBRANCH  14  17
ENDBRANCH   9  15
ENDBRANCH   1   9
BRANCH   3  21
ATOM     21  O   UNL     1       2.301   5.955  20.616  0.00  0.00    +0.000 OA
BRANCH  21  22
ATOM     22  C   UNL     1       1.870   7.182  20.148  0.00  0.00    +0.000 A 
ATOM     23  C   UNL     1       2.308   7.576  18.886  0.00  0.00    +0.000 A 
ATOM     24  C   UNL     1       1.913   8.813  18.385  0.00  0.00    +0.000 A 
ATOM     25  C   UNL     1       1.092   9.662  19.122  0.00  0.00    +0.000 A 
ATOM     26  C   UNL     1       0.621   9.281  20.387  0.00  0.00    +0.000 A 
ATOM     27  C   UNL     1       0.994   8.011  20.863  0.00  0.00    +0.000 A 
BRANCH  26  28
ATOM     28  C   UNL     1      -0.234  10.168  21.206  0.00  0.00    +0.000 A 
ATOM     29  C   UNL     1      -0.444   9.919  22.568  0.00  0.00    +0.000 A 
ATOM     30  C   UNL     1      -1.237  10.764  23.345  0.00  0.00    +0.000 A 
ATOM     31  C   UNL     1      -1.836  11.887  22.768  0.00  0.00    +0.000 A 
ATOM     32  C   UNL     1      -1.656  12.170  21.412  0.00  0.00    +0.000 A 
ATOM     33  C   UNL     1      -0.862  11.299  20.646  0.00  0.00    +0.000 A 
BRANCH  32  34
ATOM     34  C   UNL     1      -2.328  13.353  20.761  0.00  0.00    +0.000 C 
BRANCH  34  35
ATOM     35  N   UNL     1      -2.866  13.027  19.445  0.00  0.00    +0.000 NA
ATOM     36  H   UNL     1      -3.866  12.847  19.535  0.00  0.00    +0.000 HD
ATOM     37  H   UNL     1      -2.452  12.149  19.128  0.00  0.00    +0.000 HD
ENDBRANCH  34  35
ENDBRANCH  32  34
ENDBRANCH  26  28
BRANCH  24  38
ATOM     38  O   UNL     1       2.322   9.254  17.157  0.00  0.00    +0.000 OA
ATOM     39  H   UNL     1       2.769  10.107  17.262  0.00  0.00    +0.000 HD
ENDBRANCH  24  38
ENDBRANCH  21  22
ENDBRANCH   3  21
TORSDOF 10
ENDMDL
MODEL 5
REMARK VINA RESULT:      -8.8      1.143      1.632
REMARK  Name = 
REMARK  11 active torsions:
REMARK  status: ('A' for Active; 'I' for Inactive)
REMARK    1  A    between atoms: C_1  and  C_2
REMARK    2  A    between atoms: C_5  and  C_6
REMARK    3  A    between atoms: C_6  and  O_8
REMARK    4  A    between atoms: C_9  and  O_10
REMARK    5  A    between atoms: O_10  and  C_11
REMARK    6  A    between atoms: C_13  and  O_14
REMARK    7  A    between atoms: O_14  and  C_15
REMARK    8  A    between atoms: C_17  and  O_18
REMARK    9  A    between atoms: C_20  and  C_21
REMARK   10  A    between atoms: C_25  and  C_26
REMARK   11  A    between atoms: C_26  and  N_27
REMARK                            x       y       z     vdW  Elec       q    Type
REMARK                         _______ _______ _______ _____ _____    ______ ____
ROOT
ATOM      1  C   UNL     1       4.364   3.585  19.255  0.00  0.00    +0.000 A 
ATOM      2  N   UNL     1       3.921   4.778  19.741  0.00  0.00    +0.000 NA
ATOM      3  C   UNL     1       2.626   4.837  20.170  0.00  0.00    +0.000 A 
ATOM      4  C   UNL     1       1.794   3.716  20.180  0.00  0.00    +0.000 A 
ATOM      5  F   UNL     1       0.551   3.738  20.683  0.00  0.00    +0.000 F 
ATOM      6  C   UNL     1       2.245   2.524  19.644  0.00  0.00    +0.000 A 
ATOM      7  C   UNL     1       3.535   2.469  19.146  0.00  0.00    +0.000 A 
ATOM      8  F   UNL     1       3.951   1.310  18.619  0.00  0.00    +0.000 F 
ENDROOT
BRANCH   1   9
ATOM      9  O   UNL     1       5.697   3.577  18.849  0.00  0.00    +0.000 OA
BRANCH   9  15
ATOM     10  C   UNL     1       5.292   3.945  13.935  0.00  0.00    +0.000 C 
ATOM     11  C   UNL     1       5.890   4.414  15.228  0.00  0.00    +0.000 A 
ATOM     12  C   UNL     1       6.717   5.536  15.277  0.00  0.00    +0.000 A 
ATOM     13  C   UNL     1       7.227   5.978  16.499  0.00  0.00    +0.000 A 
ATOM     14  C   UNL     1       6.899   5.319  17.698  0.00  0.00    +0.000 A 
ATOM     15  C   UNL     1       6.049   4.204  17.664  0.00  0.00    +0.000 A 
ATOM     16  C   UNL     1       5.592   3.734  16.417  0.00  0.00    +0.000 A 
BRANCH  14  17
ATOM     17  C   UNL     1       7.463   5.919  18.942  0.00  0.00    +0.000 C 
ATOM     18  O   UNL     1       8.277   6.823  18.923  0.00  0.00    +0.000 OA
BRANCH  17  19
ATOM     19  O   UNL     1       7.066   5.329  20.087  0.00  0.00    +0.000 OA
ATOM     20  H   UNL     1       7.784   4.993  20.652  0.00  0.00    +0.000 HD
ENDBRANCH  17  19
ENDBRANCH  14  17
ENDBRANCH   9  15
ENDBRANCH   1   9
BRANCH   3  21
ATOM     21  O   UNL     1       2.230   6.074  20.662  0.00  0.00    +0.000 OA
BRANCH  21  22
ATOM     22  C   UNL     1       2.117   7.151  19.803  0.00  0.00    +0.000 A 
ATOM     23  C   UNL     1       2.738   7.048  18.560  0.00  0.00    +0.000 A 
ATOM     24  C   UNL     1       2.664   8.118  17.673  0.00  0.00    +0.000 A 
ATOM     25  C   UNL     1       1.984   9.286  18.005  0.00  0.00    +0.000 A 
ATOM     26  C   UNL     1       1.333   9.408  19.241  0.00  0.00    +0.000 A 
ATOM     27  C   UNL     1       1.380   8.303  20.111  0.00  0.00    +0.000 A 
BRANCH  26  28
ATOM     28  C   UNL     1       0.619  10.643  19.634  0.00  0.00    +0.000 A 
ATOM     29  C   UNL     1       0.540  11.741  18.768  0.00  0.00    +0.000 A 
ATOM     30  C   UNL     1      -0.147  12.901  19.130  0.00  0.00    +0.000 A 
ATOM     31  C   UNL     1      -0.776  12.980  20.376  0.00  0.00    +0.000 A 
ATOM     32  C   UNL     1      -0.718  11.909  21.271  0.00  0.00    +0.000 A 
ATOM     33  C   UNL     1      -0.011  10.755  20.889  0.00  0.00    +0.000 A 
BRANCH  32  34
ATOM     34  C   UNL     1      -1.354  11.992  22.636  0.00  0.00    +0.000 C 
BRANCH  34  35
ATOM     35  N   UNL     1      -1.095  10.802  23.439  0.00  0.00    +0.000 NA
ATOM     36  H   UNL     1      -1.287  11.018  24.416  0.00  0.00    +0.000 HD
ATOM     37  H   UNL     1      -0.099  10.583  23.392  0.00  0.00    +0.000 HD
ENDBRANCH  34  35
ENDBRANCH  32  34
ENDBRANCH  26  28
BRANCH  24  38
ATOM     38  O   UNL     1       3.265   8.075  16.446  0.00  0.00    +0.000 OA
ATOM     39  H   UNL     1       4.100   7.589  16.520  0.00  0.00    +0.000 HD
ENDBRANCH  24  38
ENDBRANCH  21  22
ENDBRANCH   3  21
TORSDOF 10
ENDMDL
MODEL 6
REMARK VINA RESULT:      -8.7      3.545     10.412
REMARK  Name = 
REMARK  11 active torsions:
REMARK  status: ('A' for Active; 'I' for Inactive)
REMARK    1  A    between atoms: C_1  and  C_2
REMARK    2  A    between atoms: C_5  and  C_6
REMARK    3  A    between atoms: C_6  and  O_8
REMARK    4  A    between atoms: C_9  and  O_10
REMARK    5  A    between atoms: O_10  and  C_11
REMARK    6  A    between atoms: C_13  and  O_14
REMARK    7  A    between atoms: O_14  and  C_15
REMARK    8  A    between atoms: C_17  and  O_18
REMARK    9  A    between atoms: C_20  and  C_21
REMARK   10  A    between atoms: C_25  and  C_26
REMARK   11  A    between atoms: C_26  and  N_27
REMARK                            x       y       z     vdW  Elec       q    Type
REMARK                         _______ _______ _______ _____ _____    ______ ____
ROOT
ATOM      1  C   UNL     1      -2.377  12.337  19.479  0.00  0.00    +0.000 A 
ATOM      2  N   UNL     1      -1.091  11.961  19.229  0.00  0.00    +0.000 NA
ATOM      3  C   UNL     1      -0.897  10.971  18.311  0.00  0.00    +0.000 A 
ATOM      4  C   UNL     1      -1.953  10.398  17.599  0.00  0.00    +0.000 A 
ATOM      5  F   UNL     1      -1.768   9.489  16.630  0.00  0.00    +0.000 F 
ATOM      6  C   UNL     1      -3.253  10.760  17.896  0.00  0.00    +0.000 A 
ATOM      7  C   UNL     1      -3.468  11.717  18.872  0.00  0.00    +0.000 A 
ATOM      8  F   UNL     1      -4.735  12.046  19.155  0.00  0.00    +0.000 F 
ENDROOT
BRANCH   1   9
ATOM      9  O   UNL     1      -2.516  13.364  20.410  0.00  0.00    +0.000 OA
BRANCH   9  15
ATOM     10  C   UNL     1      -6.524  13.274  23.304  0.00  0.00    +0.000 C 
ATOM     11  C   UNL     1      -5.054  13.045  23.113  0.00  0.00    +0.000 A 
ATOM     12  C   UNL     1      -4.276  12.467  24.116  0.00  0.00    +0.000 A 
ATOM     13  C   UNL     1      -2.919  12.224  23.898  0.00  0.00    +0.000 A 
ATOM     14  C   UNL     1      -2.319  12.534  22.664  0.00  0.00    +0.000 A 
ATOM     15  C   UNL     1      -3.098  13.093  21.639  0.00  0.00    +0.000 A 
ATOM     16  C   UNL     1      -4.451  13.388  21.895  0.00  0.00    +0.000 A 
BRANCH  14  17
ATOM     17  C   UNL     1      -0.877  12.179  22.537  0.00  0.00    +0.000 C 
ATOM     18  O   UNL     1      -0.411  11.155  23.000  0.00  0.00    +0.000 OA
BRANCH  17  19
ATOM     19  O   UNL     1      -0.112  13.115  21.941  0.00  0.00    +0.000 OA
ATOM     20  H   UNL     1       0.674  12.776  21.478  0.00  0.00    +0.000 HD
ENDBRANCH  17  19
ENDBRANCH  14  17
ENDBRANCH   9  15
ENDBRANCH   1   9
BRANCH   3  21
ATOM     21  O   UNL     1       0.432  10.633  18.090  0.00  0.00    +0.000 OA
BRANCH  21  22
ATOM     22  C   UNL     1       0.997   9.576  18.778  0.00  0.00    +0.000 A 
ATOM     23  C   UNL     1       0.837   9.554  20.162  0.00  0.00    +0.000 A 
ATOM     24  C   UNL     1       1.407   8.518  20.895  0.00  0.00    +0.000 A 
ATOM     25  C   UNL     1       2.134   7.506  20.273  0.00  0.00    +0.000 A 
ATOM     26  C   UNL     1       2.292   7.494  18.879  0.00  0.00    +0.000 A 
ATOM     27  C   UNL     1       1.675   8.524  18.147  0.00  0.00    +0.000 A 
BRANCH  26  28
ATOM     28  C   UNL     1       3.076   6.447  18.188  0.00  0.00    +0.000 A 
ATOM     29  C   UNL     1       4.042   6.777  17.229  0.00  0.00    +0.000 A 
ATOM     30  C   UNL     1       4.794   5.791  16.588  0.00  0.00    +0.000 A 
ATOM     31  C   UNL     1       4.593   4.445  16.904  0.00  0.00    +0.000 A 
ATOM     32  C   UNL     1       3.637   4.071  17.851  0.00  0.00    +0.000 A 
ATOM     33  C   UNL     1       2.884   5.080  18.476  0.00  0.00    +0.000 A 
BRANCH  32  34
ATOM     34  C   UNL     1       3.376   2.621  18.174  0.00  0.00    +0.000 C 
BRANCH  34  35
ATOM     35  N   UNL     1       2.264   2.076  17.404  0.00  0.00    +0.000 NA
ATOM     36  H   UNL     1       1.401   2.522  17.713  0.00  0.00    +0.000 HD
ATOM     37  H   UNL     1       2.161   1.086  17.628  0.00  0.00    +0.000 HD
ENDBRANCH  34  35
ENDBRANCH  32  34
ENDBRANCH  26  28
BRANCH  24  38
ATOM     38  O   UNL     1       1.291   8.453  22.256  0.00  0.00    +0.000 OA
ATOM     39  H   UNL     1       0.917   9.286  22.580  0.00  0.00    +0.000 HD
ENDBRANCH  24  38
ENDBRANCH  21  22
ENDBRANCH   3  21
TORSDOF 10
ENDMDL
MODEL 7
REMARK VINA RESULT:      -8.5      1.483      1.730
REMARK  Name = 
REMARK  11 active torsions:
REMARK  status: ('A' for Active; 'I' for Inactive)
REMARK    1  A    between atoms: C_1  and  C_2
REMARK    2  A    between atoms: C_5  and  C_6
REMARK    3  A    between atoms: C_6  and  O_8
REMARK    4  A    between atoms: C_9  and  O_10
REMARK    5  A    between atoms: O_10  and  C_11
REMARK    6  A    between atoms: C_13  and  O_14
REMARK    7  A    between atoms: O_14  and  C_15
REMARK    8  A    between atoms: C_17  and  O_18
REMARK    9  A    between atoms: C_20  and  C_21
REMARK   10  A    between atoms: C_25  and  C_26
REMARK   11  A    between atoms: C_26  and  N_27
REMARK                            x       y       z     vdW  Elec       q    Type
REMARK                         _______ _______ _______ _____ _____    ______ ____
ROOT
ATOM      1  C   UNL     1       4.403   3.617  19.480  0.00  0.00    +0.000 A 
ATOM      2  N   UNL     1       3.881   4.830  19.815  0.00  0.00    +0.000 NA
ATOM      3  C   UNL     1       2.582   4.858  20.234  0.00  0.00    +0.000 A 
ATOM      4  C   UNL     1       1.823   3.696  20.382  0.00  0.00    +0.000 A 
ATOM      5  F   UNL     1       0.577   3.700  20.878  0.00  0.00    +0.000 F 
ATOM      6  C   UNL     1       2.353   2.479  19.995  0.00  0.00    +0.000 A 
ATOM      7  C   UNL     1       3.647   2.445  19.508  0.00  0.00    +0.000 A 
ATOM      8  F   UNL     1       4.140   1.259  19.127  0.00  0.00    +0.000 F 
ENDROOT
BRANCH   1   9
ATOM      9  O   UNL     1       5.736   3.645  19.077  0.00  0.00    +0.000 OA
BRANCH   9  15
ATOM     10  C   UNL     1       5.160   4.301  14.210  0.00  0.00    +0.000 C 
ATOM     11  C   UNL     1       5.838   4.662  15.499  0.00  0.00    +0.000 A 
ATOM     12  C   UNL     1       6.736   5.727  15.570  0.00  0.00    +0.000 A 
ATOM     13  C   UNL     1       7.321   6.070  16.790  0.00  0.00    +0.000 A 
ATOM     14  C   UNL     1       7.001   5.369  17.966  0.00  0.00    +0.000 A 
ATOM     15  C   UNL     1       6.080   4.312  17.912  0.00  0.00    +0.000 A 
ATOM     16  C   UNL     1       5.545   3.939  16.664  0.00  0.00    +0.000 A 
BRANCH  14  17
ATOM     17  C   UNL     1       7.651   5.865  19.213  0.00  0.00    +0.000 C 
ATOM     18  O   UNL     1       7.416   5.390  20.308  0.00  0.00    +0.000 OA
BRANCH  17  19
ATOM     19  O   UNL     1       8.457   6.932  19.047  0.00  0.00    +0.000 OA
ATOM     20  H   UNL     1       8.029   7.799  19.168  0.00  0.00    +0.000 HD
ENDBRANCH  17  19
ENDBRANCH  14  17
ENDBRANCH   9  15
ENDBRANCH   1   9
BRANCH   3  21
ATOM     21  O   UNL     1       2.105   6.118  20.570  0.00  0.00    +0.000 OA
BRANCH  21  22
ATOM     22  C   UNL     1       2.122   7.133  19.632  0.00  0.00    +0.000 A 
ATOM     23  C   UNL     1       2.916   6.948  18.503  0.00  0.00    +0.000 A 
ATOM     24  C   UNL     1       2.976   7.954  17.543  0.00  0.00    +0.000 A 
ATOM     25  C   UNL     1       2.260   9.139  17.691  0.00  0.00    +0.000 A 
ATOM     26  C   UNL     1       1.437   9.341  18.809  0.00  0.00    +0.000 A 
ATOM     27  C   UNL     1       1.353   8.299  19.750  0.00  0.00    +0.000 A 
BRANCH  26  28
ATOM     28  C   UNL     1       0.680  10.597  19.008  0.00  0.00    +0.000 A 
ATOM     29  C   UNL     1       1.334  11.796  19.321  0.00  0.00    +0.000 A 
ATOM     30  C   UNL     1       0.622  12.985  19.493  0.00  0.00    +0.000 A 
ATOM     31  C   UNL     1      -0.768  12.994  19.348  0.00  0.00    +0.000 A 
ATOM     32  C   UNL     1      -1.458  11.820  19.040  0.00  0.00    +0.000 A 
ATOM     33  C   UNL     1      -0.723  10.632  18.883  0.00  0.00    +0.000 A 
BRANCH  32  34
ATOM     34  C   UNL     1      -2.962  11.801  18.923  0.00  0.00    +0.000 C 
BRANCH  34  35
ATOM     35  N   UNL     1      -3.589  12.878  19.681  0.00  0.00    +0.000 NA
ATOM     36  H   UNL     1      -3.353  12.766  20.666  0.00  0.00    +0.000 HD
ATOM     37  H   UNL     1      -4.602  12.775  19.623  0.00  0.00    +0.000 HD
ENDBRANCH  34  35
ENDBRANCH  32  34
ENDBRANCH  26  28
BRANCH  24  38
ATOM     38  O   UNL     1       3.749   7.830  16.421  0.00  0.00    +0.000 OA
ATOM     39  H   UNL     1       3.384   8.395  15.724  0.00  0.00    +0.000 HD
ENDBRANCH  24  38
ENDBRANCH  21  22
ENDBRANCH   3  21
TORSDOF 10
ENDMDL
MODEL 8
REMARK VINA RESULT:      -8.5      3.572      9.948
REMARK  Name = 
REMARK  11 active torsions:
REMARK  status: ('A' for Active; 'I' for Inactive)
REMARK    1  A    between atoms: C_1  and  C_2
REMARK    2  A    between atoms: C_5  and  C_6
REMARK    3  A    between atoms: C_6  and  O_8
REMARK    4  A    between atoms: C_9  and  O_10
REMARK    5  A    between atoms: O_10  and  C_11
REMARK    6  A    between atoms: C_13  and  O_14
REMARK    7  A    between atoms: O_14  and  C_15
REMARK    8  A    between atoms: C_17  and  O_18
REMARK    9  A    between atoms: C_20  and  C_21
REMARK   10  A    between atoms: C_25  and  C_26
REMARK   11  A    between atoms: C_26  and  N_27
REMARK                            x       y       z     vdW  Elec       q    Type
REMARK                         _______ _______ _______ _____ _____    ______ ____
ROOT
ATOM      1  C   UNL     1      -1.512  11.669  20.659  0.00  0.00    +0.000 A 
ATOM      2  N   UNL     1      -0.842  10.508  20.414  0.00  0.00    +0.000 NA
ATOM      3  C   UNL     1      -0.334   9.841  21.490  0.00  0.00    +0.000 A 
ATOM      4  C   UNL     1      -0.537  10.278  22.801  0.00  0.00    +0.000 A 
ATOM      5  F   UNL     1      -0.121   9.585  23.871  0.00  0.00    +0.000 F 
ATOM      6  C   UNL     1      -1.181  11.480  23.029  0.00  0.00    +0.000 A 
ATOM      7  C   UNL     1      -1.644  12.199  21.942  0.00  0.00    +0.000 A 
ATOM      8  F   UNL     1      -2.255  13.367  22.181  0.00  0.00    +0.000 F 
ENDROOT
BRANCH   1   9
ATOM      9  O   UNL     1      -2.025  12.299  19.526  0.00  0.00    +0.000 OA
BRANCH   9  15
ATOM     10  C   UNL     1      -6.902  12.713  20.228  0.00  0.00    +0.000 C 
ATOM     11  C   UNL     1      -5.744  12.183  19.436  0.00  0.00    +0.000 A 
ATOM     12  C   UNL     1      -5.941  11.495  18.239  0.00  0.00    +0.000 A 
ATOM     13  C   UNL     1      -4.844  11.049  17.498  0.00  0.00    +0.000 A 
ATOM     14  C   UNL     1      -3.530  11.303  17.930  0.00  0.00    +0.000 A 
ATOM     15  C   UNL     1      -3.320  12.016  19.120  0.00  0.00    +0.000 A 
ATOM     16  C   UNL     1      -4.435  12.406  19.886  0.00  0.00    +0.000 A 
BRANCH  14  17
ATOM     17  C   UNL     1      -2.447  10.822  17.025  0.00  0.00    +0.000 C 
ATOM     18  O   UNL     1      -1.752   9.859  17.290  0.00  0.00    +0.000 OA
BRANCH  17  19
ATOM     19  O   UNL     1      -2.241  11.582  15.932  0.00  0.00    +0.000 OA
ATOM     20  H   UNL     1      -1.391  11.438  15.479  0.00  0.00    +0.000 HD
ENDBRANCH  17  19
ENDBRANCH  14  17
ENDBRANCH   9  15
ENDBRANCH   1   9
BRANCH   3  21
ATOM     21  O   UNL     1       0.332   8.662  21.184  0.00  0.00    +0.000 OA
BRANCH  21  22
ATOM     22  C   UNL     1       1.124   8.593  20.053  0.00  0.00    +0.000 A 
ATOM     23  C   UNL     1       1.261   9.753  19.295  0.00  0.00    +0.000 A 
ATOM     24  C   UNL     1       2.033   9.721  18.138  0.00  0.00    +0.000 A 
ATOM     25  C   UNL     1       2.670   8.554  17.725  0.00  0.00    +0.000 A 
ATOM     26  C   UNL     1       2.566   7.378  18.482  0.00  0.00    +0.000 A 
ATOM     27  C   UNL     1       1.816   7.435  19.671  0.00  0.00    +0.000 A 
BRANCH  26  28
ATOM     28  C   UNL     1       3.212   6.115  18.061  0.00  0.00    +0.000 A 
ATOM     29  C   UNL     1       4.562   6.080  17.690  0.00  0.00    +0.000 A 
ATOM     30  C   UNL     1       5.177   4.886  17.309  0.00  0.00    +0.000 A 
ATOM     31  C   UNL     1       4.446   3.696  17.298  0.00  0.00    +0.000 A 
ATOM     32  C   UNL     1       3.096   3.687  17.658  0.00  0.00    +0.000 A 
ATOM     33  C   UNL     1       2.494   4.903  18.027  0.00  0.00    +0.000 A 
BRANCH  32  34
ATOM     34  C   UNL     1       2.279   2.420  17.611  0.00  0.00    +0.000 C 
BRANCH  34  35
ATOM     35  N   UNL     1       2.341   1.677  18.864  0.00  0.00    +0.000 NA
ATOM     36  H   UNL     1       3.308   1.660  19.188  0.00  0.00    +0.000 HD
ATOM     37  H   UNL     1       2.091   0.704  18.684  0.00  0.00    +0.000 HD
ENDBRANCH  34  35
ENDBRANCH  32  34
ENDBRANCH  26  28
BRANCH  24  38
ATOM     38  O   UNL     1       2.191  10.828  17.350  0.00  0.00    +0.000 OA
ATOM     39  H   UNL     1       1.527  10.810  16.645  0.00  0.00    +0.000 HD
ENDBRANCH  24  38
ENDBRANCH  21  22
ENDBRANCH   3  21
TORSDOF 10
ENDMDL
MODEL 9
REMARK VINA RESULT:      -8.5      4.490     11.060
REMARK  Name = 
REMARK  11 active torsions:
REMARK  status: ('A' for Active; 'I' for Inactive)
REMARK    1  A    between atoms: C_1  and  C_2
REMARK    2  A    between atoms: C_5  and  C_6
REMARK    3  A    between atoms: C_6  and  O_8
REMARK    4  A    between atoms: C_9  and  O_10
REMARK    5  A    between atoms: O_10  and  C_11
REMARK    6  A    between atoms: C_13  and  O_14
REMARK    7  A    between atoms: O_14  and  C_15
REMARK    8  A    between atoms: C_17  and  O_18
REMARK    9  A    between atoms: C_20  and  C_21
REMARK   10  A    between atoms: C_25  and  C_26
REMARK   11  A    between atoms: C_26  and  N_27
REMARK                            x       y       z     vdW  Elec       q    Type
REMARK                         _______ _______ _______ _____ _____    ______ ____
ROOT
ATOM      1  C   UNL     1      -4.113  12.022  18.828  0.00  0.00    +0.000 A 
ATOM      2  N   UNL     1      -2.852  12.155  19.326  0.00  0.00    +0.000 NA
ATOM      3  C   UNL     1      -1.900  11.296  18.858  0.00  0.00    +0.000 A 
ATOM      4  C   UNL     1      -2.172  10.355  17.863  0.00  0.00    +0.000 A 
ATOM      5  F   UNL     1      -1.227   9.567  17.330  0.00  0.00    +0.000 F 
ATOM      6  C   UNL     1      -3.466  10.204  17.400  0.00  0.00    +0.000 A 
ATOM      7  C   UNL     1      -4.453  11.026  17.914  0.00  0.00    +0.000 A 
ATOM      8  F   UNL     1      -5.703  10.857  17.463  0.00  0.00    +0.000 F 
ENDROOT
BRANCH   1   9
ATOM      9  O   UNL     1      -5.038  12.936  19.327  0.00  0.00    +0.000 OA
BRANCH   9  15
ATOM     10  C   UNL     1      -4.001  14.897  23.746  0.00  0.00    +0.000 C 
ATOM     11  C   UNL     1      -4.777  13.927  22.904  0.00  0.00    +0.000 A 
ATOM     12  C   UNL     1      -5.798  13.150  23.451  0.00  0.00    +0.000 A 
ATOM     13  C   UNL     1      -6.534  12.286  22.638  0.00  0.00    +0.000 A 
ATOM     14  C   UNL     1      -6.277  12.200  21.258  0.00  0.00    +0.000 A 
ATOM     15  C   UNL     1      -5.267  12.994  20.693  0.00  0.00    +0.000 A 
ATOM     16  C   UNL     1      -4.494  13.815  21.536  0.00  0.00    +0.000 A 
BRANCH  14  17
ATOM     17  C   UNL     1      -7.165  11.281  20.490  0.00  0.00    +0.000 C 
ATOM     18  O   UNL     1      -7.262  10.096  20.748  0.00  0.00    +0.000 OA
BRANCH  17  19
ATOM     19  O   UNL     1      -7.789  11.844  19.437  0.00  0.00    +0.000 OA
ATOM     20  H   UNL     1      -7.286  11.840  18.603  0.00  0.00    +0.000 HD
ENDBRANCH  17  19
ENDBRANCH  14  17
ENDBRANCH   9  15
ENDBRANCH   1   9
BRANCH   3  21
ATOM     21  O   UNL     1      -0.633  11.481  19.394  0.00  0.00    +0.000 OA
BRANCH  21  22
ATOM     22  C   UNL     1      -0.075  10.504  20.198  0.00  0.00    +0.000 A 
ATOM     23  C   UNL     1      -0.197  10.663  21.576  0.00  0.00    +0.000 A 
ATOM     24  C   UNL     1       0.367   9.712  22.421  0.00  0.00    +0.000 A 
ATOM     25  C   UNL     1       1.049   8.609  21.916  0.00  0.00    +0.000 A 
ATOM     26  C   UNL     1       1.168   8.415  20.532  0.00  0.00    +0.000 A 
ATOM     27  C   UNL     1       0.557   9.361  19.689  0.00  0.00    +0.000 A 
BRANCH  26  28
ATOM     28  C   UNL     1       1.904   7.266  19.961  0.00  0.00    +0.000 A 
ATOM     29  C   UNL     1       2.733   7.419  18.842  0.00  0.00    +0.000 A 
ATOM     30  C   UNL     1       3.442   6.339  18.313  0.00  0.00    +0.000 A 
ATOM     31  C   UNL     1       3.335   5.077  18.903  0.00  0.00    +0.000 A 
ATOM     32  C   UNL     1       2.517   4.880  20.018  0.00  0.00    +0.000 A 
ATOM     33  C   UNL     1       1.804   5.979  20.527  0.00  0.00    +0.000 A 
BRANCH  32  34
ATOM     34  C   UNL     1       2.356   3.516  20.643  0.00  0.00    +0.000 C 
BRANCH  34  35
ATOM     35  N   UNL     1       0.965   3.217  20.962  0.00  0.00    +0.000 NA
ATOM     36  H   UNL     1       0.818   2.211  20.876  0.00  0.00    +0.000 HD
ATOM     37  H   UNL     1       0.364   3.647  20.258  0.00  0.00    +0.000 HD
ENDBRANCH  34  35
ENDBRANCH  32  34
ENDBRANCH  26  28
BRANCH  24  38
ATOM     38  O   UNL     1       0.288   9.824  23.782  0.00  0.00    +0.000 OA
ATOM     39  H   UNL     1       0.781   9.096  24.187  0.00  0.00    +0.000 HD
ENDBRANCH  24  38
ENDBRANCH  21  22
ENDBRANCH   3  21
TORSDOF 10
ENDMDL
