MODEL 1
REMARK VINA RESULT:      -8.2      0.000      0.000
REMARK  Name = 
REMARK  8 active torsions:
REMARK  status: ('A' for Active; 'I' for Inactive)
REMARK    1  A    between atoms: C_1  and  N_2
REMARK    2  A    between atoms: N_2  and  C_3
REMARK    3  A    between atoms: N_12  and  C_13
REMARK    4  A    between atoms: C_15  and  C_16
REMARK    5  A    between atoms: C_16  and  S_17
REMARK    6  A    between atoms: S_17  and  C_18
REMARK    7  A    between atoms: C_19  and  O_20
REMARK    8  A    between atoms: C_21  and  O_22
REMARK                            x       y       z     vdW  Elec       q    Type
REMARK                         _______ _______ _______ _____ _____    ______ ____
ROOT
ATOM      1  C   UNL     1       7.488   7.327  17.849  0.00  0.00    +0.000 A 
ATOM      2  N   UNL     1       8.189   6.815  18.896  0.00  0.00    +0.000 NA
ATOM      3  C   UNL     1       7.827   5.633  19.422  0.00  0.00    +0.000 A 
ATOM      4  N   UNL     1       8.577   5.194  20.500  0.00  0.00    +0.000 N 
ATOM      5  N   UNL     1       6.803   4.855  19.043  0.00  0.00    +0.000 NA
ATOM      6  C   UNL     1       6.135   5.381  18.006  0.00  0.00    +0.000 A 
ATOM      7  C   UNL     1       6.399   6.579  17.366  0.00  0.00    +0.000 A 
ATOM      8  N   UNL     1       5.518   6.788  16.324  0.00  0.00    +0.000 NA
ATOM      9  C   UNL     1       4.734   5.730  16.336  0.00  0.00    +0.000 A 
ATOM     10  N   UNL     1       5.072   4.846  17.330  0.00  0.00    +0.000 N 
ATOM     11  H   UNL     1       9.034   5.995  20.915  0.00  0.00    +0.000 HD
ATOM     12  H   UNL     1       7.992   4.638  21.108  0.00  0.00    +0.000 HD
ENDROOT
BRANCH  10  13
ATOM     13  C   UNL     1       4.450   3.559  17.543  0.00  0.00    +0.000 C 
ATOM     14  O   UNL     1       3.163   3.528  16.898  0.00  0.00    +0.000 OA
ATOM     15  C   UNL     1       2.217   2.847  17.758  0.00  0.00    +0.000 C 
ATOM     16  C   UNL     1       3.036   2.258  18.911  0.00  0.00    +0.000 C 
ATOM     17  C   UNL     1       4.245   3.176  19.007  0.00  0.00    +0.000 C 
BRANCH  16  18
ATOM     18  O   UNL     1       3.520   0.935  18.599  0.00  0.00    +0.000 OA
ATOM     19  H   UNL     1       2.784   0.402  18.242  0.00  0.00    +0.000 HD
ENDBRANCH  16  18
BRANCH  17  20
ATOM     20  O   UNL     1       5.378   2.496  19.553  0.00  0.00    +0.000 OA
ATOM     21  H   UNL     1       6.155   2.809  19.043  0.00  0.00    +0.000 HD
ENDBRANCH  17  20
BRANCH  15  22
ATOM     22  C   UNL     1       1.117   3.808  18.234  0.00  0.00    +0.000 C 
BRANCH  22  23
ATOM     23  S   UNL     1       0.925   3.702  20.052  0.00  0.00    +0.000 S 
ATOM     24  C   UNL     1       1.650   5.290  20.519  0.00  0.00    +0.000 C 
ENDBRANCH  22  23
ENDBRANCH  15  22
ENDBRANCH  10  13
BRANCH   1  26
ATOM     25  C   UNL     1       8.499   9.477  18.180  0.00  0.00    +0.000 C 
ATOM     26  N   UNL     1       7.849   8.553  17.274  0.00  0.00    +0.000 N 
ATOM     27  H   UNL     1       8.335   8.385  16.394  0.00  0.00    +0.000 HD
ENDBRANCH   1  26
TORSDOF 6
ENDMDL
MODEL 2
REMARK VINA RESULT:      -7.3      3.772      6.188
REMARK  Name = 
REMARK  8 active torsions:
REMARK  status: ('A' for Active; 'I' for Inactive)
REMARK    1  A    between atoms: C_1  and  N_2
REMARK    2  A    between atoms: N_2  and  C_3
REMARK    3  A    between atoms: N_12  and  C_13
REMARK    4  A    between atoms: C_15  and  C_16
REMARK    5  A    between atoms: C_16  and  S_17
REMARK    6  A    between atoms: S_17  and  C_18
REMARK    7  A    between atoms: C_19  and  O_20
REMARK    8  A    between atoms: C_21  and  O_22
REMARK                            x       y       z     vdW  Elec       q    Type
REMARK                         _______ _______ _______ _____ _____    ______ ____
ROOT
ATOM      1  C   UNL     1       1.615   4.162  20.299  0.00  0.00    +0.000 A 
ATOM      2  N   UNL     1       1.418   5.462  20.644  0.00  0.00    +0.000 NA
ATOM      3  C   UNL     1       2.219   6.413  20.135  0.00  0.00    +0.000 A 
ATOM      4  N   UNL     1       1.967   7.708  20.556  0.00  0.00    +0.000 N 
ATOM      5  N   UNL     1       3.250   6.242  19.296  0.00  0.00    +0.000 NA
ATOM      6  C   UNL     1       3.416   4.953  18.966  0.00  0.00    +0.000 A 
ATOM      7  C   UNL     1       2.667   3.877  19.410  0.00  0.00    +0.000 A 
ATOM      8  N   UNL     1       3.111   2.698  18.843  0.00  0.00    +0.000 NA
ATOM      9  C   UNL     1       4.112   3.060  18.069  0.00  0.00    +0.000 A 
ATOM     10  N   UNL     1       4.331   4.414  18.102  0.00  0.00    +0.000 N 
ATOM     11  H   UNL     1       1.460   7.663  21.431  0.00  0.00    +0.000 HD
ATOM     12  H   UNL     1       2.831   8.231  20.558  0.00  0.00    +0.000 HD
ENDROOT
BRANCH  10  13
ATOM     13  C   UNL     1       5.305   5.119  17.299  0.00  0.00    +0.000 C 
ATOM     14  O   UNL     1       4.875   5.146  15.926  0.00  0.00    +0.000 OA
ATOM     15  C   UNL     1       6.019   4.924  15.066  0.00  0.00    +0.000 C 
ATOM     16  C   UNL     1       7.250   4.961  15.976  0.00  0.00    +0.000 C 
ATOM     17  C   UNL     1       6.714   4.534  17.333  0.00  0.00    +0.000 C 
BRANCH  16  18
ATOM     18  O   UNL     1       7.769   6.301  16.116  0.00  0.00    +0.000 OA
ATOM     19  H   UNL     1       7.116   6.847  16.593  0.00  0.00    +0.000 HD
ENDBRANCH  16  18
BRANCH  17  20
ATOM     20  O   UNL     1       7.499   5.071  18.400  0.00  0.00    +0.000 OA
ATOM     21  H   UNL     1       8.123   4.360  18.663  0.00  0.00    +0.000 HD
ENDBRANCH  17  20
BRANCH  15  22
ATOM     22  C   UNL     1       5.880   3.600  14.298  0.00  0.00    +0.000 C 
BRANCH  22  23
ATOM     23  S   UNL     1       6.396   3.822  12.555  0.00  0.00    +0.000 S 
ATOM     24  C   UNL     1       4.947   3.128  11.727  0.00  0.00    +0.000 C 
ENDBRANCH  22  23
ENDBRANCH  15  22
ENDBRANCH  10  13
BRANCH   1  26
ATOM     25  C   UNL     1       1.362   2.398  21.904  0.00  0.00    +0.000 C 
ATOM     26  N   UNL     1       0.789   3.150  20.808  0.00  0.00    +0.000 N 
ATOM     27  H   UNL     1      -0.145   3.524  20.972  0.00  0.00    +0.000 HD
ENDBRANCH   1  26
TORSDOF 6
ENDMDL
MODEL 3
REMARK VINA RESULT:      -7.3      3.595      6.136
REMARK  Name = 
REMARK  8 active torsions:
REMARK  status: ('A' for Active; 'I' for Inactive)
REMARK    1  A    between atoms: C_1  and  N_2
REMARK    2  A    between atoms: N_2  and  C_3
REMARK    3  A    between atoms: N_12  and  C_13
REMARK    4  A    between atoms: C_15  and  C_16
REMARK    5  A    between atoms: C_16  and  S_17
REMARK    6  A    between atoms: S_17  and  C_18
REMARK    7  A    between atoms: C_19  and  O_20
REMARK    8  A    between atoms: C_21  and  O_22
REMARK                            x       y       z     vdW  Elec       q    Type
REMARK                         _______ _______ _______ _____ _____    ______ ____
ROOT
ATOM      1  C   UNL     1       1.969   3.197  19.875  0.00  0.00    +0.000 A 
ATOM      2  N   UNL     1       2.511   2.056  19.372  0.00  0.00    +0.000 NA
ATOM      3  C   UNL     1       3.537   2.132  18.509  0.00  0.00    +0.000 A 
ATOM      4  N   UNL     1       4.014   0.926  18.025  0.00  0.00    +0.000 N 
ATOM      5  N   UNL     1       4.123   3.243  18.041  0.00  0.00    +0.000 NA
ATOM      6  C   UNL     1       3.575   4.352  18.559  0.00  0.00    +0.000 A 
ATOM      7  C   UNL     1       2.524   4.421  19.455  0.00  0.00    +0.000 A 
ATOM      8  N   UNL     1       2.241   5.731  19.787  0.00  0.00    +0.000 NA
ATOM      9  C   UNL     1       3.111   6.441  19.100  0.00  0.00    +0.000 A 
ATOM     10  N   UNL     1       3.946   5.653  18.348  0.00  0.00    +0.000 N 
ATOM     11  H   UNL     1       3.286   0.231  18.133  0.00  0.00    +0.000 HD
ATOM     12  H   UNL     1       4.377   1.061  17.093  0.00  0.00    +0.000 HD
ENDROOT
BRANCH  10  13
ATOM     13  C   UNL     1       5.052   6.136  17.553  0.00  0.00    +0.000 C 
ATOM     14  O   UNL     1       4.724   6.042  16.155  0.00  0.00    +0.000 OA
ATOM     15  C   UNL     1       5.888   5.586  15.424  0.00  0.00    +0.000 C 
ATOM     16  C   UNL     1       7.049   5.593  16.424  0.00  0.00    +0.000 C 
ATOM     17  C   UNL     1       6.372   5.401  17.771  0.00  0.00    +0.000 C 
BRANCH  16  18
ATOM     18  O   UNL     1       7.719   6.871  16.452  0.00  0.00    +0.000 OA
ATOM     19  H   UNL     1       8.005   7.102  15.549  0.00  0.00    +0.000 HD
ENDBRANCH  16  18
BRANCH  17  20
ATOM     20  O   UNL     1       7.143   5.972  18.832  0.00  0.00    +0.000 OA
ATOM     21  H   UNL     1       8.069   5.999  18.510  0.00  0.00    +0.000 HD
ENDBRANCH  17  20
BRANCH  15  22
ATOM     22  C   UNL     1       5.640   4.202  14.804  0.00  0.00    +0.000 C 
BRANCH  22  23
ATOM     23  S   UNL     1       6.635   4.002  13.280  0.00  0.00    +0.000 S 
ATOM     24  C   UNL     1       5.395   3.231  12.216  0.00  0.00    +0.000 C 
ENDBRANCH  22  23
ENDBRANCH  15  22
ENDBRANCH  10  13
BRANCH   1  26
ATOM     25  C   UNL     1       1.223   2.534  22.055  0.00  0.00    +0.000 C 
ATOM     26  N   UNL     1       0.904   3.148  20.784  0.00  0.00    +0.000 N 
ATOM     27  H   UNL     1       0.460   4.064  20.837  0.00  0.00    +0.000 HD
ENDBRANCH   1  26
TORSDOF 6
ENDMDL
MODEL 4
REMARK VINA RESULT:      -7.1      2.507      4.098
REMARK  Name = 
REMARK  8 active torsions:
REMARK  status: ('A' for Active; 'I' for Inactive)
REMARK    1  A    between atoms: C_1  and  N_2
REMARK    2  A    between atoms: N_2  and  C_3
REMARK    3  A    between atoms: N_12  and  C_13
REMARK    4  A    between atoms: C_15  and  C_16
REMARK    5  A    between atoms: C_16  and  S_17
REMARK    6  A    between atoms: S_17  and  C_18
REMARK    7  A    between atoms: C_19  and  O_20
REMARK    8  A    between atoms: C_21  and  O_22
REMARK                            x       y       z     vdW  Elec       q    Type
REMARK                         _______ _______ _______ _____ _____    ______ ____
ROOT
ATOM      1  C   UNL     1       6.504   4.657  15.609  0.00  0.00    +0.000 A 
ATOM      2  N   UNL     1       7.365   5.688  15.817  0.00  0.00    +0.000 NA
ATOM      3  C   UNL     1       7.106   6.584  16.784  0.00  0.00    +0.000 A 
ATOM      4  N   UNL     1       8.020   7.616  16.914  0.00  0.00    +0.000 N 
ATOM      5  N   UNL     1       6.050   6.607  17.608  0.00  0.00    +0.000 NA
ATOM      6  C   UNL     1       5.222   5.575  17.386  0.00  0.00    +0.000 A 
ATOM      7  C   UNL     1       5.366   4.582  16.433  0.00  0.00    +0.000 A 
ATOM      8  N   UNL     1       4.332   3.670  16.510  0.00  0.00    +0.000 NA
ATOM      9  C   UNL     1       3.577   4.108  17.495  0.00  0.00    +0.000 A 
ATOM     10  N   UNL     1       4.077   5.253  18.063  0.00  0.00    +0.000 N 
ATOM     11  H   UNL     1       8.522   7.707  16.040  0.00  0.00    +0.000 HD
ATOM     12  H   UNL     1       7.544   8.441  17.252  0.00  0.00    +0.000 HD
ENDROOT
BRANCH  10  13
ATOM     13  C   UNL     1       3.515   5.923  19.214  0.00  0.00    +0.000 C 
ATOM     14  O   UNL     1       3.196   4.956  20.232  0.00  0.00    +0.000 OA
ATOM     15  C   UNL     1       1.930   5.309  20.842  0.00  0.00    +0.000 C 
ATOM     16  C   UNL     1       1.560   6.688  20.287  0.00  0.00    +0.000 C 
ATOM     17  C   UNL     1       2.255   6.737  18.935  0.00  0.00    +0.000 C 
BRANCH  16  18
ATOM     18  O   UNL     1       2.107   7.751  21.095  0.00  0.00    +0.000 OA
ATOM     19  H   UNL     1       3.065   7.608  21.206  0.00  0.00    +0.000 HD
ENDBRANCH  16  18
BRANCH  17  20
ATOM     20  O   UNL     1       2.552   8.081  18.547  0.00  0.00    +0.000 OA
ATOM     21  H   UNL     1       2.724   8.052  17.581  0.00  0.00    +0.000 HD
ENDBRANCH  17  20
BRANCH  15  22
ATOM     22  C   UNL     1       0.865   4.240  20.552  0.00  0.00    +0.000 C 
BRANCH  22  23
ATOM     23  S   UNL     1       1.651   2.597  20.362  0.00  0.00    +0.000 S 
ATOM     24  C   UNL     1       0.939   2.112  18.773  0.00  0.00    +0.000 C 
ENDBRANCH  22  23
ENDBRANCH  15  22
ENDBRANCH  10  13
BRANCH   1  26
ATOM     25  C   UNL     1       6.004   3.897  13.390  0.00  0.00    +0.000 C 
ATOM     26  N   UNL     1       6.752   3.702  14.613  0.00  0.00    +0.000 N 
ATOM     27  H   UNL     1       7.759   3.584  14.500  0.00  0.00    +0.000 HD
ENDBRANCH   1  26
TORSDOF 6
ENDMDL
MODEL 5
REMARK VINA RESULT:      -7.1      1.195      1.361
REMARK  Name = 
REMARK  8 active torsions:
REMARK  status: ('A' for Active; 'I' for Inactive)
REMARK    1  A    between atoms: C_1  and  N_2
REMARK    2  A    between atoms: N_2  and  C_3
REMARK    3  A    between atoms: N_12  and  C_13
REMARK    4  A    between atoms: C_15  and  C_16
REMARK    5  A    between atoms: C_16  and  S_17
REMARK    6  A    between atoms: S_17  and  C_18
REMARK    7  A    between atoms: C_19  and  O_20
REMARK    8  A    between atoms: C_21  and  O_22
REMARK                            x       y       z     vdW  Elec       q    Type
REMARK                         _______ _______ _______ _____ _____    ______ ____
ROOT
ATOM      1  C   UNL     1       7.601   7.279  17.850  0.00  0.00    +0.000 A 
ATOM      2  N   UNL     1       8.265   6.716  18.894  0.00  0.00    +0.000 NA
ATOM      3  C   UNL     1       7.707   5.692  19.561  0.00  0.00    +0.000 A 
ATOM      4  N   UNL     1       8.436   5.192  20.626  0.00  0.00    +0.000 N 
ATOM      5  N   UNL     1       6.512   5.129  19.332  0.00  0.00    +0.000 NA
ATOM      6  C   UNL     1       5.884   5.699  18.293  0.00  0.00    +0.000 A 
ATOM      7  C   UNL     1       6.340   6.750  17.519  0.00  0.00    +0.000 A 
ATOM      8  N   UNL     1       5.437   7.059  16.521  0.00  0.00    +0.000 NA
ATOM      9  C   UNL     1       4.450   6.204  16.693  0.00  0.00    +0.000 A 
ATOM     10  N   UNL     1       4.676   5.355  17.747  0.00  0.00    +0.000 N 
ATOM     11  H   UNL     1       9.088   5.906  20.927  0.00  0.00    +0.000 HD
ATOM     12  H   UNL     1       7.802   4.833  21.325  0.00  0.00    +0.000 HD
ENDROOT
BRANCH  10  13
ATOM     13  C   UNL     1       3.816   4.259  18.131  0.00  0.00    +0.000 C 
ATOM     14  O   UNL     1       2.457   4.724  18.240  0.00  0.00    +0.000 OA
ATOM     15  C   UNL     1       1.838   4.112  19.397  0.00  0.00    +0.000 C 
ATOM     16  C   UNL     1       2.829   3.060  19.905  0.00  0.00    +0.000 C 
ATOM     17  C   UNL     1       4.182   3.582  19.449  0.00  0.00    +0.000 C 
BRANCH  16  18
ATOM     18  O   UNL     1       2.621   1.781  19.269  0.00  0.00    +0.000 OA
ATOM     19  H   UNL     1       1.768   1.412  19.566  0.00  0.00    +0.000 HD
ENDBRANCH  16  18
BRANCH  17  20
ATOM     20  O   UNL     1       5.122   2.520  19.270  0.00  0.00    +0.000 OA
ATOM     21  H   UNL     1       5.643   2.750  18.471  0.00  0.00    +0.000 HD
ENDBRANCH  17  20
BRANCH  15  22
ATOM     22  C   UNL     1       1.490   5.169  20.457  0.00  0.00    +0.000 C 
BRANCH  22  23
ATOM     23  S   UNL     1       2.138   6.806  19.956  0.00  0.00    +0.000 S 
ATOM     24  C   UNL     1       1.219   7.853  21.106  0.00  0.00    +0.000 C 
ENDBRANCH  22  23
ENDBRANCH  15  22
ENDBRANCH  10  13
BRANCH   1  26
ATOM     25  C   UNL     1       8.340   9.560  17.892  0.00  0.00    +0.000 C 
ATOM     26  N   UNL     1       8.164   8.342  17.130  0.00  0.00    +0.000 N 
ATOM     27  H   UNL     1       8.988   8.014  16.629  0.00  0.00    +0.000 HD
ENDBRANCH   1  26
TORSDOF 6
ENDMDL
MODEL 6
REMARK VINA RESULT:      -6.8      3.464      6.261
REMARK  Name = 
REMARK  8 active torsions:
REMARK  status: ('A' for Active; 'I' for Inactive)
REMARK    1  A    between atoms: C_1  and  N_2
REMARK    2  A    between atoms: N_2  and  C_3
REMARK    3  A    between atoms: N_12  and  C_13
REMARK    4  A    between atoms: C_15  and  C_16
REMARK    5  A    between atoms: C_16  and  S_17
REMARK    6  A    between atoms: S_17  and  C_18
REMARK    7  A    between atoms: C_19  and  O_20
REMARK    8  A    between atoms: C_21  and  O_22
REMARK                            x       y       z     vdW  Elec       q    Type
REMARK                         _______ _______ _______ _____ _____    ______ ____
ROOT
ATOM      1  C   UNL     1       1.565   3.966  20.236  0.00  0.00    +0.000 A 
ATOM      2  N   UNL     1       1.049   5.162  20.628  0.00  0.00    +0.000 NA
ATOM      3  C   UNL     1       1.809   6.267  20.558  0.00  0.00    +0.000 A 
ATOM      4  N   UNL     1       1.217   7.439  20.999  0.00  0.00    +0.000 N 
ATOM      5  N   UNL     1       3.080   6.354  20.143  0.00  0.00    +0.000 NA
ATOM      6  C   UNL     1       3.560   5.163  19.756  0.00  0.00    +0.000 A 
ATOM      7  C   UNL     1       2.892   3.951  19.770  0.00  0.00    +0.000 A 
ATOM      8  N   UNL     1       3.692   2.940  19.277  0.00  0.00    +0.000 NA
ATOM      9  C   UNL     1       4.826   3.534  18.971  0.00  0.00    +0.000 A 
ATOM     10  N   UNL     1       4.794   4.880  19.234  0.00  0.00    +0.000 N 
ATOM     11  H   UNL     1       0.453   7.195  21.616  0.00  0.00    +0.000 HD
ATOM     12  H   UNL     1       1.928   8.049  21.377  0.00  0.00    +0.000 HD
ENDROOT
BRANCH  10  13
ATOM     13  C   UNL     1       5.856   5.812  18.929  0.00  0.00    +0.000 C 
ATOM     14  O   UNL     1       5.759   6.227  17.554  0.00  0.00    +0.000 OA
ATOM     15  C   UNL     1       7.089   6.294  16.984  0.00  0.00    +0.000 C 
ATOM     16  C   UNL     1       8.063   6.095  18.150  0.00  0.00    +0.000 C 
ATOM     17  C   UNL     1       7.268   5.278  19.156  0.00  0.00    +0.000 C 
BRANCH  16  18
ATOM     18  O   UNL     1       8.402   7.349  18.780  0.00  0.00    +0.000 OA
ATOM     19  H   UNL     1       7.611   7.919  18.803  0.00  0.00    +0.000 HD
ENDBRANCH  16  18
BRANCH  17  20
ATOM     20  O   UNL     1       7.725   5.501  20.491  0.00  0.00    +0.000 OA
ATOM     21  H   UNL     1       7.736   6.474  20.616  0.00  0.00    +0.000 HD
ENDBRANCH  17  20
BRANCH  15  22
ATOM     22  C   UNL     1       7.263   5.248  15.872  0.00  0.00    +0.000 C 
BRANCH  22  23
ATOM     23  S   UNL     1       5.631   4.615  15.336  0.00  0.00    +0.000 S 
ATOM     24  C   UNL     1       6.094   3.924  13.732  0.00  0.00    +0.000 C 
ENDBRANCH  22  23
ENDBRANCH  15  22
ENDBRANCH  10  13
BRANCH   1  26
ATOM     25  C   UNL     1       0.518   2.196  19.001  0.00  0.00    +0.000 C 
ATOM     26  N   UNL     1       0.792   2.798  20.289  0.00  0.00    +0.000 N 
ATOM     27  H   UNL     1       1.174   2.170  20.996  0.00  0.00    +0.000 HD
ENDBRANCH   1  26
TORSDOF 6
ENDMDL
MODEL 7
REMARK VINA RESULT:      -6.7      4.506      5.665
REMARK  Name = 
REMARK  8 active torsions:
REMARK  status: ('A' for Active; 'I' for Inactive)
REMARK    1  A    between atoms: C_1  and  N_2
REMARK    2  A    between atoms: N_2  and  C_3
REMARK    3  A    between atoms: N_12  and  C_13
REMARK    4  A    between atoms: C_15  and  C_16
REMARK    5  A    between atoms: C_16  and  S_17
REMARK    6  A    between atoms: S_17  and  C_18
REMARK    7  A    between atoms: C_19  and  O_20
REMARK    8  A    between atoms: C_21  and  O_22
REMARK                            x       y       z     vdW  Elec       q    Type
REMARK                         _______ _______ _______ _____ _____    ______ ____
ROOT
ATOM      1  C   UNL     1       1.031  10.139  19.297  0.00  0.00    +0.000 A 
ATOM      2  N   UNL     1       0.505  10.207  20.549  0.00  0.00    +0.000 NA
ATOM      3  C   UNL     1       0.628   9.158  21.378  0.00  0.00    +0.000 A 
ATOM      4  N   UNL     1       0.044   9.299  22.626  0.00  0.00    +0.000 N 
ATOM      5  N   UNL     1       1.220   7.983  21.120  0.00  0.00    +0.000 NA
ATOM      6  C   UNL     1       1.736   7.946  19.883  0.00  0.00    +0.000 A 
ATOM      7  C   UNL     1       1.688   8.949  18.930  0.00  0.00    +0.000 A 
ATOM      8  N   UNL     1       2.345   8.569  17.777  0.00  0.00    +0.000 NA
ATOM      9  C   UNL     1       2.783   7.353  18.032  0.00  0.00    +0.000 A 
ATOM     10  N   UNL     1       2.448   6.935  19.296  0.00  0.00    +0.000 N 
ATOM     11  H   UNL     1      -0.665  10.019  22.564  0.00  0.00    +0.000 HD
ATOM     12  H   UNL     1      -0.257   8.393  22.957  0.00  0.00    +0.000 HD
ENDROOT
BRANCH  10  13
ATOM     13  C   UNL     1       2.856   5.684  19.892  0.00  0.00    +0.000 C 
ATOM     14  O   UNL     1       4.241   5.432  19.594  0.00  0.00    +0.000 OA
ATOM     15  C   UNL     1       4.414   4.026  19.291  0.00  0.00    +0.000 C 
ATOM     16  C   UNL     1       3.078   3.353  19.619  0.00  0.00    +0.000 C 
ATOM     17  C   UNL     1       2.055   4.464  19.444  0.00  0.00    +0.000 C 
BRANCH  16  18
ATOM     18  O   UNL     1       3.022   2.923  20.995  0.00  0.00    +0.000 OA
ATOM     19  H   UNL     1       2.779   1.979  21.025  0.00  0.00    +0.000 HD
ENDBRANCH  16  18
BRANCH  17  20
ATOM     20  O   UNL     1       0.899   4.245  20.255  0.00  0.00    +0.000 OA
ATOM     21  H   UNL     1       0.430   3.480  19.859  0.00  0.00    +0.000 HD
ENDBRANCH  17  20
BRANCH  15  22
ATOM     22  C   UNL     1       4.843   3.829  17.828  0.00  0.00    +0.000 C 
BRANCH  22  23
ATOM     23  S   UNL     1       5.832   5.262  17.259  0.00  0.00    +0.000 S 
ATOM     24  C   UNL     1       7.491   4.615  17.563  0.00  0.00    +0.000 C 
ENDBRANCH  22  23
ENDBRANCH  15  22
ENDBRANCH  10  13
BRANCH   1  26
ATOM     25  C   UNL     1       1.929  12.249  18.596  0.00  0.00    +0.000 C 
ATOM     26  N   UNL     1       0.927  11.222  18.413  0.00  0.00    +0.000 N 
ATOM     27  H   UNL     1       0.822  10.874  17.461  0.00  0.00    +0.000 HD
ENDBRANCH   1  26
TORSDOF 6
ENDMDL
MODEL 8
REMARK VINA RESULT:      -6.7      1.538      2.451
REMARK  Name = 
REMARK  8 active torsions:
REMARK  status: ('A' for Active; 'I' for Inactive)
REMARK    1  A    between atoms: C_1  and  N_2
REMARK    2  A    between atoms: N_2  and  C_3
REMARK    3  A    between atoms: N_12  and  C_13
REMARK    4  A    between atoms: C_15  and  C_16
REMARK    5  A    between atoms: C_16  and  S_17
REMARK    6  A    between atoms: S_17  and  C_18
REMARK    7  A    between atoms: C_19  and  O_20
REMARK    8  A    between atoms: C_21  and  O_22
REMARK                            x       y       z     vdW  Elec       q    Type
REMARK                         _______ _______ _______ _____ _____    ______ ____
ROOT
ATOM      1  C   UNL     1       7.436   6.541  17.616  0.00  0.00    +0.000 A 
ATOM      2  N   UNL     1       7.645   6.353  16.286  0.00  0.00    +0.000 NA
ATOM      3  C   UNL     1       6.830   5.540  15.594  0.00  0.00    +0.000 A 
ATOM      4  N   UNL     1       7.126   5.383  14.251  0.00  0.00    +0.000 N 
ATOM      5  N   UNL     1       5.788   4.841  16.067  0.00  0.00    +0.000 NA
ATOM      6  C   UNL     1       5.600   5.051  17.378  0.00  0.00    +0.000 A 
ATOM      7  C   UNL     1       6.356   5.860  18.208  0.00  0.00    +0.000 A 
ATOM      8  N   UNL     1       5.856   5.853  19.495  0.00  0.00    +0.000 NA
ATOM      9  C   UNL     1       4.814   5.050  19.440  0.00  0.00    +0.000 A 
ATOM     10  N   UNL     1       4.612   4.547  18.180  0.00  0.00    +0.000 N 
ATOM     11  H   UNL     1       8.098   5.627  14.110  0.00  0.00    +0.000 HD
ATOM     12  H   UNL     1       6.841   4.461  13.952  0.00  0.00    +0.000 HD
ENDROOT
BRANCH  10  13
ATOM     13  C   UNL     1       3.504   3.705  17.789  0.00  0.00    +0.000 C 
ATOM     14  O   UNL     1       2.272   4.439  17.904  0.00  0.00    +0.000 OA
ATOM     15  C   UNL     1       1.251   3.570  18.452  0.00  0.00    +0.000 C 
ATOM     16  C   UNL     1       1.860   2.165  18.485  0.00  0.00    +0.000 C 
ATOM     17  C   UNL     1       3.356   2.418  18.595  0.00  0.00    +0.000 C 
BRANCH  16  18
ATOM     18  O   UNL     1       1.630   1.455  17.250  0.00  0.00    +0.000 OA
ATOM     19  H   UNL     1       2.408   1.560  16.671  0.00  0.00    +0.000 HD
ENDBRANCH  16  18
BRANCH  17  20
ATOM     20  O   UNL     1       4.112   1.339  18.041  0.00  0.00    +0.000 OA
ATOM     21  H   UNL     1       3.463   0.746  17.607  0.00  0.00    +0.000 HD
ENDBRANCH  17  20
BRANCH  15  22
ATOM     22  C   UNL     1       0.797   4.060  19.836  0.00  0.00    +0.000 C 
BRANCH  22  23
ATOM     23  S   UNL     1       1.163   2.794  21.108  0.00  0.00    +0.000 S 
ATOM     24  C   UNL     1       2.525   3.618  21.962  0.00  0.00    +0.000 C 
ENDBRANCH  22  23
ENDBRANCH  15  22
ENDBRANCH  10  13
BRANCH   1  26
ATOM     25  C   UNL     1       8.198   8.785  17.980  0.00  0.00    +0.000 C 
ATOM     26  N   UNL     1       8.265   7.391  18.361  0.00  0.00    +0.000 N 
ATOM     27  H   UNL     1       8.142   7.200  19.355  0.00  0.00    +0.000 HD
ENDBRANCH   1  26
TORSDOF 6
ENDMDL
MODEL 9
REMARK VINA RESULT:      -6.5      1.760      2.827
REMARK  Name = 
REMARK  8 active torsions:
REMARK  status: ('A' for Active; 'I' for Inactive)
REMARK    1  A    between atoms: C_1  and  N_2
REMARK    2  A    between atoms: N_2  and  C_3
REMARK    3  A    between atoms: N_12  and  C_13
REMARK    4  A    between atoms: C_15  and  C_16
REMARK    5  A    between atoms: C_16  and  S_17
REMARK    6  A    between atoms: S_17  and  C_18
REMARK    7  A    between atoms: C_19  and  O_20
REMARK    8  A    between atoms: C_21  and  O_22
REMARK                            x       y       z     vdW  Elec       q    Type
REMARK                         _______ _______ _______ _____ _____    ______ ____
ROOT
ATOM      1  C   UNL     1       7.189   6.017  16.558  0.00  0.00    +0.000 A 
ATOM      2  N   UNL     1       7.099   5.511  15.300  0.00  0.00    +0.000 NA
ATOM      3  C   UNL     1       6.139   4.617  15.010  0.00  0.00    +0.000 A 
ATOM      4  N   UNL     1       6.130   4.134  13.713  0.00  0.00    +0.000 N 
ATOM      5  N   UNL     1       5.215   4.120  15.845  0.00  0.00    +0.000 NA
ATOM      6  C   UNL     1       5.323   4.640  17.076  0.00  0.00    +0.000 A 
ATOM      7  C   UNL     1       6.255   5.567  17.509  0.00  0.00    +0.000 A 
ATOM      8  N   UNL     1       6.049   5.892  18.835  0.00  0.00    +0.000 NA
ATOM      9  C   UNL     1       5.008   5.171  19.195  0.00  0.00    +0.000 A 
ATOM     10  N   UNL     1       4.527   4.404  18.164  0.00  0.00    +0.000 N 
ATOM     11  H   UNL     1       7.052   4.271  13.318  0.00  0.00    +0.000 HD
ATOM     12  H   UNL     1       5.773   3.189  13.712  0.00  0.00    +0.000 HD
ENDROOT
BRANCH  10  13
ATOM     13  C   UNL     1       3.347   3.571  18.228  0.00  0.00    +0.000 C 
ATOM     14  O   UNL     1       2.180   4.395  18.410  0.00  0.00    +0.000 OA
ATOM     15  C   UNL     1       1.287   3.753  19.352  0.00  0.00    +0.000 C 
ATOM     16  C   UNL     1       1.867   2.357  19.604  0.00  0.00    +0.000 C 
ATOM     17  C   UNL     1       3.355   2.525  19.340  0.00  0.00    +0.000 C 
BRANCH  16  18
ATOM     18  O   UNL     1       1.364   1.392  18.656  0.00  0.00    +0.000 OA
ATOM     19  H   UNL     1       0.398   1.500  18.573  0.00  0.00    +0.000 HD
ENDBRANCH  16  18
BRANCH  17  20
ATOM     20  O   UNL     1       3.956   1.297  18.925  0.00  0.00    +0.000 OA
ATOM     21  H   UNL     1       4.886   1.330  19.238  0.00  0.00    +0.000 HD
ENDBRANCH  17  20
BRANCH  15  22
ATOM     22  C   UNL     1       1.151   4.586  20.635  0.00  0.00    +0.000 C 
BRANCH  22  23
ATOM     23  S   UNL     1       2.050   6.172  20.459  0.00  0.00    +0.000 S 
ATOM     24  C   UNL     1       0.795   7.297  21.110  0.00  0.00    +0.000 C 
ENDBRANCH  22  23
ENDBRANCH  15  22
ENDBRANCH  10  13
BRANCH   1  26
ATOM     25  C   UNL     1       7.671   8.179  17.477  0.00  0.00    +0.000 C 
ATOM     26  N   UNL     1       8.175   6.958  16.886  0.00  0.00    +0.000 N 
ATOM     27  H   UNL     1       8.926   6.498  17.400  0.00  0.00    +0.000 HD
ENDBRANCH   1  26
TORSDOF 6
ENDMDL
