MODEL 1
REMARK VINA RESULT:      -8.7      0.000      0.000
REMARK  Name = 
REMARK  6 active torsions:
REMARK  status: ('A' for Active; 'I' for Inactive)
REMARK    1  A    between atoms: C_1  and  O_2
REMARK    2  A    between atoms: O_2  and  C_3
REMARK    3  A    between atoms: C_8  and  C_9
REMARK    4  A    between atoms: C_9  and  C_10
REMARK    5  A    between atoms: C_9  and  C_11
REMARK    6  A    between atoms: C_17  and  C_18
REMARK                            x       y       z     vdW  Elec       q    Type
REMARK                         _______ _______ _______ _____ _____    ______ ____
ROOT
ATOM      1  C   UNL     1       1.375   8.558  19.424  0.00  0.00    +0.000 A 
ATOM      2  N   UNL     1       0.787   8.572  20.609  0.00  0.00    +0.000 NA
ATOM      3  N   UNL     1       1.134   7.420  21.274  0.00  0.00    +0.000 NA
ATOM      4  C   UNL     1       1.933   6.749  20.487  0.00  0.00    +0.000 A 
ATOM      5  N   UNL     1       2.153   7.423  19.308  0.00  0.00    +0.000 N 
ATOM      6  N   UNL     1       2.858   7.026  18.204  0.00  0.00    +0.000 NA
ATOM      7  C   UNL     1       3.648   5.997  18.329  0.00  0.00    +0.000 C 
ATOM      8  C   UNL     1       4.031   5.363  19.665  0.00  0.00    +0.000 C 
ATOM      9  S   UNL     1       2.605   5.189  20.753  0.00  0.00    +0.000 S 
ENDROOT
BRANCH   7  10
ATOM     10  C   UNL     1       4.318   5.459  17.090  0.00  0.00    +0.000 A 
ATOM     11  C   UNL     1       5.000   6.347  16.240  0.00  0.00    +0.000 A 
ATOM     12  C   UNL     1       5.662   5.883  15.097  0.00  0.00    +0.000 A 
ATOM     13  C   UNL     1       5.619   4.532  14.771  0.00  0.00    +0.000 A 
ATOM     14 CL   UNL     1       6.433   3.962  13.368  0.00  0.00    +0.000 Cl
ATOM     15  C   UNL     1       4.934   3.640  15.584  0.00  0.00    +0.000 A 
ATOM     16  C   UNL     1       4.304   4.091  16.749  0.00  0.00    +0.000 A 
ATOM     17 CL   UNL     1       3.628   2.847  17.739  0.00  0.00    +0.000 Cl
ENDBRANCH   7  10
BRANCH   1  18
ATOM     18  C   UNL     1       1.197   9.585  18.343  0.00  0.00    +0.000 C 
ATOM     19  C   UNL     1       2.360  10.586  18.370  0.00  0.00    +0.000 C 
BRANCH  18  25
ATOM     20  C   UNL     1      -4.910  11.676  17.056  0.00  0.00    +0.000 A 
ATOM     21  C   UNL     1      -4.487  10.812  16.050  0.00  0.00    +0.000 A 
ATOM     22  C   UNL     1      -3.221  10.219  16.113  0.00  0.00    +0.000 A 
ATOM     23  C   UNL     1      -2.354  10.491  17.184  0.00  0.00    +0.000 A 
ATOM     24  C   UNL     1      -1.070   9.921  17.259  0.00  0.00    +0.000 A 
ATOM     25  C   UNL     1      -0.197  10.208  18.327  0.00  0.00    +0.000 A 
ATOM     26  C   UNL     1      -0.644  11.090  19.321  0.00  0.00    +0.000 A 
ATOM     27  C   UNL     1      -1.918  11.656  19.262  0.00  0.00    +0.000 A 
ATOM     28  C   UNL     1      -2.782  11.367  18.202  0.00  0.00    +0.000 A 
ATOM     29  C   UNL     1      -4.059  11.942  18.130  0.00  0.00    +0.000 A 
BRANCH  20  31
ATOM     30  C   UNL     1      -6.989  11.939  18.169  0.00  0.00    +0.000 C 
ATOM     31  O   UNL     1      -6.116  12.319  17.113  0.00  0.00    +0.000 OA
ENDBRANCH  20  31
ENDBRANCH  18  25
ENDBRANCH   1  18
TORSDOF 4
ENDMDL
MODEL 2
REMARK VINA RESULT:      -8.5      5.260      9.752
REMARK  Name = 
REMARK  6 active torsions:
REMARK  status: ('A' for Active; 'I' for Inactive)
REMARK    1  A    between atoms: C_1  and  O_2
REMARK    2  A    between atoms: O_2  and  C_3
REMARK    3  A    between atoms: C_8  and  C_9
REMARK    4  A    between atoms: C_9  and  C_10
REMARK    5  A    between atoms: C_9  and  C_11
REMARK    6  A    between atoms: C_17  and  C_18
REMARK                            x       y       z     vdW  Elec       q    Type
REMARK                         _______ _______ _______ _____ _____    ______ ____
ROOT
ATOM      1  C   UNL     1       1.579  11.369  18.449  0.00  0.00    +0.000 A 
ATOM      2  N   UNL     1       2.659  11.859  17.865  0.00  0.00    +0.000 NA
ATOM      3  N   UNL     1       2.926  13.088  18.419  0.00  0.00    +0.000 NA
ATOM      4  C   UNL     1       2.017  13.303  19.332  0.00  0.00    +0.000 A 
ATOM      5  N   UNL     1       1.145  12.242  19.427  0.00  0.00    +0.000 N 
ATOM      6  N   UNL     1       0.022  12.113  20.197  0.00  0.00    +0.000 NA
ATOM      7  C   UNL     1      -0.149  12.968  21.166  0.00  0.00    +0.000 C 
ATOM      8  C   UNL     1       0.923  13.939  21.656  0.00  0.00    +0.000 C 
ATOM      9  S   UNL     1       1.795  14.718  20.283  0.00  0.00    +0.000 S 
ENDROOT
BRANCH   7  10
ATOM     10  C   UNL     1      -1.449  12.929  21.929  0.00  0.00    +0.000 A 
ATOM     11  C   UNL     1      -2.406  13.933  21.704  0.00  0.00    +0.000 A 
ATOM     12  C   UNL     1      -3.638  13.915  22.368  0.00  0.00    +0.000 A 
ATOM     13  C   UNL     1      -3.912  12.914  23.294  0.00  0.00    +0.000 A 
ATOM     14 CL   UNL     1      -5.426  12.890  24.109  0.00  0.00    +0.000 Cl
ATOM     15  C   UNL     1      -2.974  11.923  23.548  0.00  0.00    +0.000 A 
ATOM     16  C   UNL     1      -1.757  11.913  22.857  0.00  0.00    +0.000 A 
ATOM     17 CL   UNL     1      -0.758  10.538  23.163  0.00  0.00    +0.000 Cl
ENDBRANCH   7  10
BRANCH   1  18
ATOM     18  C   UNL     1       0.891  10.085  18.086  0.00  0.00    +0.000 C 
ATOM     19  C   UNL     1      -0.590  10.148  18.487  0.00  0.00    +0.000 C 
BRANCH  18  25
ATOM     20  C   UNL     1       4.613   4.714  18.873  0.00  0.00    +0.000 A 
ATOM     21  C   UNL     1       4.837   5.260  17.613  0.00  0.00    +0.000 A 
ATOM     22  C   UNL     1       4.170   6.426  17.219  0.00  0.00    +0.000 A 
ATOM     23  C   UNL     1       3.259   7.058  18.081  0.00  0.00    +0.000 A 
ATOM     24  C   UNL     1       2.564   8.219  17.700  0.00  0.00    +0.000 A 
ATOM     25  C   UNL     1       1.640   8.842  18.562  0.00  0.00    +0.000 A 
ATOM     26  C   UNL     1       1.426   8.266  19.822  0.00  0.00    +0.000 A 
ATOM     27  C   UNL     1       2.115   7.117  20.216  0.00  0.00    +0.000 A 
ATOM     28  C   UNL     1       3.033   6.504  19.357  0.00  0.00    +0.000 A 
ATOM     29  C   UNL     1       3.719   5.343  19.742  0.00  0.00    +0.000 A 
BRANCH  20  31
ATOM     30  C   UNL     1       4.319   2.553  19.809  0.00  0.00    +0.000 C 
ATOM     31  O   UNL     1       5.197   3.584  19.379  0.00  0.00    +0.000 OA
ENDBRANCH  20  31
ENDBRANCH  18  25
ENDBRANCH   1  18
TORSDOF 4
ENDMDL
MODEL 3
REMARK VINA RESULT:      -8.5      0.648      1.489
REMARK  Name = 
REMARK  6 active torsions:
REMARK  status: ('A' for Active; 'I' for Inactive)
REMARK    1  A    between atoms: C_1  and  O_2
REMARK    2  A    between atoms: O_2  and  C_3
REMARK    3  A    between atoms: C_8  and  C_9
REMARK    4  A    between atoms: C_9  and  C_10
REMARK    5  A    between atoms: C_9  and  C_11
REMARK    6  A    between atoms: C_17  and  C_18
REMARK                            x       y       z     vdW  Elec       q    Type
REMARK                         _______ _______ _______ _____ _____    ______ ____
ROOT
ATOM      1  C   UNL     1       1.278   8.683  19.377  0.00  0.00    +0.000 A 
ATOM      2  N   UNL     1       0.698   8.720  20.565  0.00  0.00    +0.000 NA
ATOM      3  N   UNL     1       1.071   7.594  21.259  0.00  0.00    +0.000 NA
ATOM      4  C   UNL     1       1.878   6.917  20.487  0.00  0.00    +0.000 A 
ATOM      5  N   UNL     1       2.078   7.561  19.287  0.00  0.00    +0.000 N 
ATOM      6  N   UNL     1       2.783   7.146  18.191  0.00  0.00    +0.000 NA
ATOM      7  C   UNL     1       3.594   6.137  18.339  0.00  0.00    +0.000 C 
ATOM      8  C   UNL     1       3.997   5.548  19.689  0.00  0.00    +0.000 C 
ATOM      9  S   UNL     1       2.581   5.378  20.792  0.00  0.00    +0.000 S 
ENDROOT
BRANCH   7  10
ATOM     10  C   UNL     1       4.266   5.577  17.111  0.00  0.00    +0.000 A 
ATOM     11  C   UNL     1       4.970   6.446  16.260  0.00  0.00    +0.000 A 
ATOM     12  C   UNL     1       5.635   5.962  15.127  0.00  0.00    +0.000 A 
ATOM     13  C   UNL     1       5.573   4.608  14.812  0.00  0.00    +0.000 A 
ATOM     14 CL   UNL     1       6.391   4.012  13.422  0.00  0.00    +0.000 Cl
ATOM     15  C   UNL     1       4.867   3.734  15.627  0.00  0.00    +0.000 A 
ATOM     16  C   UNL     1       4.234   4.206  16.782  0.00  0.00    +0.000 A 
ATOM     17 CL   UNL     1       3.529   2.982  17.777  0.00  0.00    +0.000 Cl
ENDBRANCH   7  10
BRANCH   1  18
ATOM     18  C   UNL     1       1.074   9.676  18.269  0.00  0.00    +0.000 C 
ATOM     19  C   UNL     1       2.083  10.825  18.398  0.00  0.00    +0.000 C 
BRANCH  18  25
ATOM     20  C   UNL     1      -4.989  12.198  18.715  0.00  0.00    +0.000 A 
ATOM     21  C   UNL     1      -4.190  12.714  19.731  0.00  0.00    +0.000 A 
ATOM     22  C   UNL     1      -2.845  12.338  19.832  0.00  0.00    +0.000 A 
ATOM     23  C   UNL     1      -2.283  11.432  18.919  0.00  0.00    +0.000 A 
ATOM     24  C   UNL     1      -0.939  11.026  19.012  0.00  0.00    +0.000 A 
ATOM     25  C   UNL     1      -0.383  10.104  18.104  0.00  0.00    +0.000 A 
ATOM     26  C   UNL     1      -1.213   9.592  17.097  0.00  0.00    +0.000 A 
ATOM     27  C   UNL     1      -2.546   9.992  16.988  0.00  0.00    +0.000 A 
ATOM     28  C   UNL     1      -3.093  10.909  17.891  0.00  0.00    +0.000 A 
ATOM     29  C   UNL     1      -4.435  11.305  17.796  0.00  0.00    +0.000 A 
BRANCH  20  31
ATOM     30  C   UNL     1      -6.644  13.082  17.261  0.00  0.00    +0.000 C 
ATOM     31  O   UNL     1      -6.312  12.481  18.506  0.00  0.00    +0.000 OA
ENDBRANCH  20  31
ENDBRANCH  18  25
ENDBRANCH   1  18
TORSDOF 4
ENDMDL
MODEL 4
REMARK VINA RESULT:      -8.4      6.077     10.608
REMARK  Name = 
REMARK  6 active torsions:
REMARK  status: ('A' for Active; 'I' for Inactive)
REMARK    1  A    between atoms: C_1  and  O_2
REMARK    2  A    between atoms: O_2  and  C_3
REMARK    3  A    between atoms: C_8  and  C_9
REMARK    4  A    between atoms: C_9  and  C_10
REMARK    5  A    between atoms: C_9  and  C_11
REMARK    6  A    between atoms: C_17  and  C_18
REMARK                            x       y       z     vdW  Elec       q    Type
REMARK                         _______ _______ _______ _____ _____    ______ ____
ROOT
ATOM      1  C   UNL     1       0.502  11.501  21.219  0.00  0.00    +0.000 A 
ATOM      2  N   UNL     1       1.688  11.967  20.864  0.00  0.00    +0.000 NA
ATOM      3  N   UNL     1       1.712  13.318  21.120  0.00  0.00    +0.000 NA
ATOM      4  C   UNL     1       0.554  13.631  21.637  0.00  0.00    +0.000 A 
ATOM      5  N   UNL     1      -0.255  12.524  21.756  0.00  0.00    +0.000 N 
ATOM      6  N   UNL     1      -1.556  12.444  22.172  0.00  0.00    +0.000 NA
ATOM      7  C   UNL     1      -2.059  13.480  22.782  0.00  0.00    +0.000 C 
ATOM      8  C   UNL     1      -1.240  14.667  23.282  0.00  0.00    +0.000 C 
ATOM      9  S   UNL     1      -0.018  15.194  22.066  0.00  0.00    +0.000 S 
ENDROOT
BRANCH   7  10
ATOM     10  C   UNL     1      -3.530  13.464  23.116  0.00  0.00    +0.000 A 
ATOM     11  C   UNL     1      -4.003  12.556  24.079  0.00  0.00    +0.000 A 
ATOM     12  C   UNL     1      -5.355  12.531  24.441  0.00  0.00    +0.000 A 
ATOM     13  C   UNL     1      -6.256  13.387  23.818  0.00  0.00    +0.000 A 
ATOM     14 CL   UNL     1      -7.916  13.358  24.264  0.00  0.00    +0.000 Cl
ATOM     15  C   UNL     1      -5.815  14.278  22.849  0.00  0.00    +0.000 A 
ATOM     16  C   UNL     1      -4.458  14.336  22.512  0.00  0.00    +0.000 A 
ATOM     17 CL   UNL     1      -4.036  15.595  21.408  0.00  0.00    +0.000 Cl
ENDBRANCH   7  10
BRANCH   1  18
ATOM     18  C   UNL     1       0.021  10.092  21.030  0.00  0.00    +0.000 C 
ATOM     19  C   UNL     1      -0.206   9.425  22.394  0.00  0.00    +0.000 C 
BRANCH  18  25
ATOM     20  C   UNL     1       3.905   5.823  17.866  0.00  0.00    +0.000 A 
ATOM     21  C   UNL     1       3.660   5.366  19.158  0.00  0.00    +0.000 A 
ATOM     22  C   UNL     1       2.839   6.100  20.023  0.00  0.00    +0.000 A 
ATOM     23  C   UNL     1       2.256   7.308  19.607  0.00  0.00    +0.000 A 
ATOM     24  C   UNL     1       1.443   8.070  20.464  0.00  0.00    +0.000 A 
ATOM     25  C   UNL     1       0.872   9.289  20.048  0.00  0.00    +0.000 A 
ATOM     26  C   UNL     1       1.144   9.731  18.746  0.00  0.00    +0.000 A 
ATOM     27  C   UNL     1       1.944   8.980  17.882  0.00  0.00    +0.000 A 
ATOM     28  C   UNL     1       2.505   7.770  18.299  0.00  0.00    +0.000 A 
ATOM     29  C   UNL     1       3.320   7.017  17.440  0.00  0.00    +0.000 A 
BRANCH  20  31
ATOM     30  C   UNL     1       5.271   6.042  15.937  0.00  0.00    +0.000 C 
ATOM     31  O   UNL     1       4.685   5.205  16.926  0.00  0.00    +0.000 OA
ENDBRANCH  20  31
ENDBRANCH  18  25
ENDBRANCH   1  18
TORSDOF 4
ENDMDL
MODEL 5
REMARK VINA RESULT:      -8.3      5.710     10.492
REMARK  Name = 
REMARK  6 active torsions:
REMARK  status: ('A' for Active; 'I' for Inactive)
REMARK    1  A    between atoms: C_1  and  O_2
REMARK    2  A    between atoms: O_2  and  C_3
REMARK    3  A    between atoms: C_8  and  C_9
REMARK    4  A    between atoms: C_9  and  C_10
REMARK    5  A    between atoms: C_9  and  C_11
REMARK    6  A    between atoms: C_17  and  C_18
REMARK                            x       y       z     vdW  Elec       q    Type
REMARK                         _______ _______ _______ _____ _____    ______ ____
ROOT
ATOM      1  C   UNL     1      -1.485  11.209  18.579  0.00  0.00    +0.000 A 
ATOM      2  N   UNL     1      -1.203  10.774  17.362  0.00  0.00    +0.000 NA
ATOM      3  N   UNL     1      -2.365  10.777  16.626  0.00  0.00    +0.000 NA
ATOM      4  C   UNL     1      -3.311  11.228  17.405  0.00  0.00    +0.000 A 
ATOM      5  N   UNL     1      -2.821  11.549  18.651  0.00  0.00    +0.000 N 
ATOM      6  N   UNL     1      -3.497  11.974  19.762  0.00  0.00    +0.000 NA
ATOM      7  C   UNL     1      -4.724  12.383  19.604  0.00  0.00    +0.000 C 
ATOM      8  C   UNL     1      -5.372  12.656  18.248  0.00  0.00    +0.000 C 
ATOM      9  S   UNL     1      -4.988  11.363  17.053  0.00  0.00    +0.000 S 
ENDROOT
BRANCH   7  10
ATOM     10  C   UNL     1      -5.528  12.716  20.835  0.00  0.00    +0.000 A 
ATOM     11  C   UNL     1      -5.116  13.780  21.655  0.00  0.00    +0.000 A 
ATOM     12  C   UNL     1      -5.852  14.142  22.790  0.00  0.00    +0.000 A 
ATOM     13  C   UNL     1      -6.988  13.419  23.138  0.00  0.00    +0.000 A 
ATOM     14 CL   UNL     1      -7.894  13.864  24.531  0.00  0.00    +0.000 Cl
ATOM     15  C   UNL     1      -7.403  12.351  22.356  0.00  0.00    +0.000 A 
ATOM     16  C   UNL     1      -6.694  12.010  21.198  0.00  0.00    +0.000 A 
ATOM     17 CL   UNL     1      -7.414  10.763  20.244  0.00  0.00    +0.000 Cl
ENDBRANCH   7  10
BRANCH   1  18
ATOM     18  C   UNL     1      -0.522  11.283  19.729  0.00  0.00    +0.000 C 
ATOM     19  C   UNL     1       0.273  12.594  19.667  0.00  0.00    +0.000 C 
BRANCH  18  25
ATOM     20  C   UNL     1       3.386   6.021  19.130  0.00  0.00    +0.000 A 
ATOM     21  C   UNL     1       3.395   6.751  17.944  0.00  0.00    +0.000 A 
ATOM     22  C   UNL     1       2.650   7.931  17.834  0.00  0.00    +0.000 A 
ATOM     23  C   UNL     1       1.876   8.393  18.911  0.00  0.00    +0.000 A 
ATOM     24  C   UNL     1       1.106   9.566  18.818  0.00  0.00    +0.000 A 
ATOM     25  C   UNL     1       0.318  10.019  19.895  0.00  0.00    +0.000 A 
ATOM     26  C   UNL     1       0.319   9.260  21.073  0.00  0.00    +0.000 A 
ATOM     27  C   UNL     1       1.085   8.098  21.182  0.00  0.00    +0.000 A 
ATOM     28  C   UNL     1       1.867   7.654  20.111  0.00  0.00    +0.000 A 
ATOM     29  C   UNL     1       2.629   6.481  20.209  0.00  0.00    +0.000 A 
BRANCH  20  31
ATOM     30  C   UNL     1       4.084   3.906  18.310  0.00  0.00    +0.000 C 
ATOM     31  O   UNL     1       4.066   4.857  19.366  0.00  0.00    +0.000 OA
ENDBRANCH  20  31
ENDBRANCH  18  25
ENDBRANCH   1  18
TORSDOF 4
ENDMDL
MODEL 6
REMARK VINA RESULT:      -8.2      5.502     10.088
REMARK  Name = 
REMARK  6 active torsions:
REMARK  status: ('A' for Active; 'I' for Inactive)
REMARK    1  A    between atoms: C_1  and  O_2
REMARK    2  A    between atoms: O_2  and  C_3
REMARK    3  A    between atoms: C_8  and  C_9
REMARK    4  A    between atoms: C_9  and  C_10
REMARK    5  A    between atoms: C_9  and  C_11
REMARK    6  A    between atoms: C_17  and  C_18
REMARK                            x       y       z     vdW  Elec       q    Type
REMARK                         _______ _______ _______ _____ _____    ______ ____
ROOT
ATOM      1  C   UNL     1      -0.367  10.295  18.401  0.00  0.00    +0.000 A 
ATOM      2  N   UNL     1      -0.755   9.642  17.318  0.00  0.00    +0.000 NA
ATOM      3  N   UNL     1      -2.105   9.848  17.154  0.00  0.00    +0.000 NA
ATOM      4  C   UNL     1      -2.494  10.630  18.125  0.00  0.00    +0.000 A 
ATOM      5  N   UNL     1      -1.440  10.977  18.939  0.00  0.00    +0.000 N 
ATOM      6  N   UNL     1      -1.445  11.709  20.095  0.00  0.00    +0.000 NA
ATOM      7  C   UNL     1      -2.516  12.398  20.370  0.00  0.00    +0.000 C 
ATOM      8  C   UNL     1      -3.657  12.645  19.385  0.00  0.00    +0.000 C 
ATOM      9  S   UNL     1      -4.094  11.148  18.482  0.00  0.00    +0.000 S 
ENDROOT
BRANCH   7  10
ATOM     10  C   UNL     1      -2.594  13.091  21.707  0.00  0.00    +0.000 A 
ATOM     11  C   UNL     1      -3.344  12.504  22.740  0.00  0.00    +0.000 A 
ATOM     12  C   UNL     1      -3.415  13.098  24.005  0.00  0.00    +0.000 A 
ATOM     13  C   UNL     1      -2.767  14.306  24.242  0.00  0.00    +0.000 A 
ATOM     14 CL   UNL     1      -2.852  15.036  25.796  0.00  0.00    +0.000 Cl
ATOM     15  C   UNL     1      -2.037  14.915  23.231  0.00  0.00    +0.000 A 
ATOM     16  C   UNL     1      -1.929  14.305  21.976  0.00  0.00    +0.000 A 
ATOM     17 CL   UNL     1      -0.864  15.098  20.871  0.00  0.00    +0.000 Cl
ENDBRANCH   7  10
BRANCH   1  18
ATOM     18  C   UNL     1       1.013  10.270  18.993  0.00  0.00    +0.000 C 
ATOM     19  C   UNL     1       1.817  11.484  18.506  0.00  0.00    +0.000 C 
BRANCH  18  25
ATOM     20  C   UNL     1       3.473   4.189  19.527  0.00  0.00    +0.000 A 
ATOM     21  C   UNL     1       2.613   4.443  20.592  0.00  0.00    +0.000 A 
ATOM     22  C   UNL     1       1.950   5.672  20.687  0.00  0.00    +0.000 A 
ATOM     23  C   UNL     1       2.145   6.669  19.718  0.00  0.00    +0.000 A 
ATOM     24  C   UNL     1       1.503   7.918  19.802  0.00  0.00    +0.000 A 
ATOM     25  C   UNL     1       1.713   8.922  18.836  0.00  0.00    +0.000 A 
ATOM     26  C   UNL     1       2.591   8.643  17.780  0.00  0.00    +0.000 A 
ATOM     27  C   UNL     1       3.229   7.405  17.680  0.00  0.00    +0.000 A 
ATOM     28  C   UNL     1       3.016   6.412  18.640  0.00  0.00    +0.000 A 
ATOM     29  C   UNL     1       3.663   5.171  18.553  0.00  0.00    +0.000 A 
BRANCH  20  31
ATOM     30  C   UNL     1       3.464   1.944  18.757  0.00  0.00    +0.000 C 
ATOM     31  O   UNL     1       4.180   3.036  19.319  0.00  0.00    +0.000 OA
ENDBRANCH  20  31
ENDBRANCH  18  25
ENDBRANCH   1  18
TORSDOF 4
ENDMDL
MODEL 7
REMARK VINA RESULT:      -8.2      1.191      1.417
REMARK  Name = 
REMARK  6 active torsions:
REMARK  status: ('A' for Active; 'I' for Inactive)
REMARK    1  A    between atoms: C_1  and  O_2
REMARK    2  A    between atoms: O_2  and  C_3
REMARK    3  A    between atoms: C_8  and  C_9
REMARK    4  A    between atoms: C_9  and  C_10
REMARK    5  A    between atoms: C_9  and  C_11
REMARK    6  A    between atoms: C_17  and  C_18
REMARK                            x       y       z     vdW  Elec       q    Type
REMARK                         _______ _______ _______ _____ _____    ______ ____
ROOT
ATOM      1  C   UNL     1       1.683   8.186  19.140  0.00  0.00    +0.000 A 
ATOM      2  N   UNL     1       1.034   8.079  20.287  0.00  0.00    +0.000 NA
ATOM      3  N   UNL     1       1.440   6.919  20.903  0.00  0.00    +0.000 NA
ATOM      4  C   UNL     1       2.333   6.365  20.128  0.00  0.00    +0.000 A 
ATOM      5  N   UNL     1       2.559   7.127  19.004  0.00  0.00    +0.000 N 
ATOM      6  N   UNL     1       3.353   6.857  17.923  0.00  0.00    +0.000 NA
ATOM      7  C   UNL     1       4.218   5.890  18.034  0.00  0.00    +0.000 C 
ATOM      8  C   UNL     1       4.581   5.206  19.351  0.00  0.00    +0.000 C 
ATOM      9  S   UNL     1       3.118   4.851  20.342  0.00  0.00    +0.000 S 
ENDROOT
BRANCH   7  10
ATOM     10  C   UNL     1       4.997   5.486  16.807  0.00  0.00    +0.000 A 
ATOM     11  C   UNL     1       4.445   4.540  15.927  0.00  0.00    +0.000 A 
ATOM     12  C   UNL     1       5.121   4.162  14.761  0.00  0.00    +0.000 A 
ATOM     13  C   UNL     1       6.374   4.698  14.481  0.00  0.00    +0.000 A 
ATOM     14 CL   UNL     1       7.203   4.236  13.047  0.00  0.00    +0.000 Cl
ATOM     15  C   UNL     1       6.948   5.618  15.346  0.00  0.00    +0.000 A 
ATOM     16  C   UNL     1       6.259   6.030  16.493  0.00  0.00    +0.000 A 
ATOM     17 CL   UNL     1       7.027   7.291  17.389  0.00  0.00    +0.000 Cl
ENDBRANCH   7  10
BRANCH   1  18
ATOM     18  C   UNL     1       1.478   9.261  18.112  0.00  0.00    +0.000 C 
ATOM     19  C   UNL     1       2.653  10.248  18.140  0.00  0.00    +0.000 C 
BRANCH  18  25
ATOM     20  C   UNL     1      -4.653  11.451  17.146  0.00  0.00    +0.000 A 
ATOM     21  C   UNL     1      -4.282  10.615  16.096  0.00  0.00    +0.000 A 
ATOM     22  C   UNL     1      -3.021  10.008  16.088  0.00  0.00    +0.000 A 
ATOM     23  C   UNL     1      -2.107  10.237  17.130  0.00  0.00    +0.000 A 
ATOM     24  C   UNL     1      -0.828   9.653  17.134  0.00  0.00    +0.000 A 
ATOM     25  C   UNL     1       0.092   9.897  18.173  0.00  0.00    +0.000 A 
ATOM     26  C   UNL     1      -0.304  10.751  19.212  0.00  0.00    +0.000 A 
ATOM     27  C   UNL     1      -1.574  11.332  19.225  0.00  0.00    +0.000 A 
ATOM     28  C   UNL     1      -2.483  11.084  18.192  0.00  0.00    +0.000 A 
ATOM     29  C   UNL     1      -3.756  11.674  18.192  0.00  0.00    +0.000 A 
BRANCH  20  31
ATOM     30  C   UNL     1      -6.796  11.526  18.163  0.00  0.00    +0.000 C 
ATOM     31  O   UNL     1      -5.849  12.103  17.274  0.00  0.00    +0.000 OA
ENDBRANCH  20  31
ENDBRANCH  18  25
ENDBRANCH   1  18
TORSDOF 4
ENDMDL
MODEL 8
REMARK VINA RESULT:      -8.2      5.683      9.928
REMARK  Name = 
REMARK  6 active torsions:
REMARK  status: ('A' for Active; 'I' for Inactive)
REMARK    1  A    between atoms: C_1  and  O_2
REMARK    2  A    between atoms: O_2  and  C_3
REMARK    3  A    between atoms: C_8  and  C_9
REMARK    4  A    between atoms: C_9  and  C_10
REMARK    5  A    between atoms: C_9  and  C_11
REMARK    6  A    between atoms: C_17  and  C_18
REMARK                            x       y       z     vdW  Elec       q    Type
REMARK                         _______ _______ _______ _____ _____    ______ ____
ROOT
ATOM      1  C   UNL     1       1.590  11.386  18.448  0.00  0.00    +0.000 A 
ATOM      2  N   UNL     1       2.674  11.872  17.866  0.00  0.00    +0.000 NA
ATOM      3  N   UNL     1       2.942  13.103  18.417  0.00  0.00    +0.000 NA
ATOM      4  C   UNL     1       2.030  13.322  19.327  0.00  0.00    +0.000 A 
ATOM      5  N   UNL     1       1.156  12.264  19.422  0.00  0.00    +0.000 N 
ATOM      6  N   UNL     1       0.030  12.139  20.189  0.00  0.00    +0.000 NA
ATOM      7  C   UNL     1      -0.141  12.998  21.155  0.00  0.00    +0.000 C 
ATOM      8  C   UNL     1       0.931  13.967  21.645  0.00  0.00    +0.000 C 
ATOM      9  S   UNL     1       1.809  14.740  20.273  0.00  0.00    +0.000 S 
ENDROOT
BRANCH   7  10
ATOM     10  C   UNL     1      -1.444  12.964  21.915  0.00  0.00    +0.000 A 
ATOM     11  C   UNL     1      -1.666  11.937  22.847  0.00  0.00    +0.000 A 
ATOM     12  C   UNL     1      -2.847  11.888  23.596  0.00  0.00    +0.000 A 
ATOM     13  C   UNL     1      -3.837  12.844  23.394  0.00  0.00    +0.000 A 
ATOM     14 CL   UNL     1      -5.288  12.785  24.315  0.00  0.00    +0.000 Cl
ATOM     15  C   UNL     1      -3.649  13.856  22.463  0.00  0.00    +0.000 A 
ATOM     16  C   UNL     1      -2.453  13.934  21.741  0.00  0.00    +0.000 A 
ATOM     17 CL   UNL     1      -2.299  15.330  20.736  0.00  0.00    +0.000 Cl
ENDBRANCH   7  10
BRANCH   1  18
ATOM     18  C   UNL     1       0.900  10.103  18.086  0.00  0.00    +0.000 C 
ATOM     19  C   UNL     1      -0.580  10.169  18.488  0.00  0.00    +0.000 C 
BRANCH  18  25
ATOM     20  C   UNL     1       4.596   4.714  18.869  0.00  0.00    +0.000 A 
ATOM     21  C   UNL     1       4.804   5.246  17.600  0.00  0.00    +0.000 A 
ATOM     22  C   UNL     1       4.139   6.412  17.205  0.00  0.00    +0.000 A 
ATOM     23  C   UNL     1       3.247   7.060  18.075  0.00  0.00    +0.000 A 
ATOM     24  C   UNL     1       2.554   8.222  17.693  0.00  0.00    +0.000 A 
ATOM     25  C   UNL     1       1.648   8.860  18.563  0.00  0.00    +0.000 A 
ATOM     26  C   UNL     1       1.449   8.297  19.832  0.00  0.00    +0.000 A 
ATOM     27  C   UNL     1       2.136   7.148  20.226  0.00  0.00    +0.000 A 
ATOM     28  C   UNL     1       3.036   6.520  19.360  0.00  0.00    +0.000 A 
ATOM     29  C   UNL     1       3.720   5.358  19.745  0.00  0.00    +0.000 A 
BRANCH  20  31
ATOM     30  C   UNL     1       4.305   2.522  19.733  0.00  0.00    +0.000 C 
ATOM     31  O   UNL     1       5.180   3.585  19.377  0.00  0.00    +0.000 OA
ENDBRANCH  20  31
ENDBRANCH  18  25
ENDBRANCH   1  18
TORSDOF 4
ENDMDL
MODEL 9
REMARK VINA RESULT:      -8.1      5.494     10.037
REMARK  Name = 
REMARK  6 active torsions:
REMARK  status: ('A' for Active; 'I' for Inactive)
REMARK    1  A    between atoms: C_1  and  O_2
REMARK    2  A    between atoms: O_2  and  C_3
REMARK    3  A    between atoms: C_8  and  C_9
REMARK    4  A    between atoms: C_9  and  C_10
REMARK    5  A    between atoms: C_9  and  C_11
REMARK    6  A    between atoms: C_17  and  C_18
REMARK                            x       y       z     vdW  Elec       q    Type
REMARK                         _______ _______ _______ _____ _____    ______ ____
ROOT
ATOM      1  C   UNL     1      -0.361  10.326  18.428  0.00  0.00    +0.000 A 
ATOM      2  N   UNL     1      -0.755   9.691  17.337  0.00  0.00    +0.000 NA
ATOM      3  N   UNL     1      -2.100   9.917  17.170  0.00  0.00    +0.000 NA
ATOM      4  C   UNL     1      -2.482  10.695  18.148  0.00  0.00    +0.000 A 
ATOM      5  N   UNL     1      -1.426  11.018  18.970  0.00  0.00    +0.000 N 
ATOM      6  N   UNL     1      -1.426  11.736  20.134  0.00  0.00    +0.000 NA
ATOM      7  C   UNL     1      -2.488  12.437  20.412  0.00  0.00    +0.000 C 
ATOM      8  C   UNL     1      -3.621  12.712  19.426  0.00  0.00    +0.000 C 
ATOM      9  S   UNL     1      -4.076  11.231  18.504  0.00  0.00    +0.000 S 
ENDROOT
BRANCH   7  10
ATOM     10  C   UNL     1      -2.561  13.116  21.757  0.00  0.00    +0.000 A 
ATOM     11  C   UNL     1      -3.294  12.511  22.791  0.00  0.00    +0.000 A 
ATOM     12  C   UNL     1      -3.360  13.092  24.063  0.00  0.00    +0.000 A 
ATOM     13  C   UNL     1      -2.725  14.305  24.305  0.00  0.00    +0.000 A 
ATOM     14 CL   UNL     1      -2.803  15.019  25.867  0.00  0.00    +0.000 Cl
ATOM     15  C   UNL     1      -2.012  14.933  23.293  0.00  0.00    +0.000 A 
ATOM     16  C   UNL     1      -1.909  14.337  22.031  0.00  0.00    +0.000 A 
ATOM     17 CL   UNL     1      -0.865  15.153  20.923  0.00  0.00    +0.000 Cl
ENDBRANCH   7  10
BRANCH   1  18
ATOM     18  C   UNL     1       1.016  10.275  19.025  0.00  0.00    +0.000 C 
ATOM     19  C   UNL     1       1.997  11.074  18.156  0.00  0.00    +0.000 C 
BRANCH  18  25
ATOM     20  C   UNL     1       3.385   4.139  19.276  0.00  0.00    +0.000 A 
ATOM     21  C   UNL     1       3.683   4.708  18.041  0.00  0.00    +0.000 A 
ATOM     22  C   UNL     1       3.297   6.023  17.756  0.00  0.00    +0.000 A 
ATOM     23  C   UNL     1       2.597   6.786  18.705  0.00  0.00    +0.000 A 
ATOM     24  C   UNL     1       2.183   8.103  18.434  0.00  0.00    +0.000 A 
ATOM     25  C   UNL     1       1.467   8.860  19.382  0.00  0.00    +0.000 A 
ATOM     26  C   UNL     1       1.170   8.260  20.613  0.00  0.00    +0.000 A 
ATOM     27  C   UNL     1       1.582   6.956  20.898  0.00  0.00    +0.000 A 
ATOM     28  C   UNL     1       2.294   6.210  19.954  0.00  0.00    +0.000 A 
ATOM     29  C   UNL     1       2.699   4.896  20.229  0.00  0.00    +0.000 A 
BRANCH  20  31
ATOM     30  C   UNL     1       3.594   1.847  18.698  0.00  0.00    +0.000 C 
ATOM     31  O   UNL     1       3.703   2.871  19.678  0.00  0.00    +0.000 OA
ENDBRANCH  20  31
ENDBRANCH  18  25
ENDBRANCH   1  18
TORSDOF 4
ENDMDL
