MODEL 1
REMARK VINA RESULT:      -7.8      0.000      0.000
REMARK  Name = 
REMARK  6 active torsions:
REMARK  status: ('A' for Active; 'I' for Inactive)
REMARK    1  A    between atoms: C_1  and  O_2
REMARK    2  A    between atoms: O_2  and  C_3
REMARK    3  A    between atoms: C_3  and  C_4
REMARK    4  A    between atoms: N_9  and  C_10
REMARK    5  A    between atoms: C_14  and  C_16
REMARK    6  A    between atoms: C_18  and  C_19
REMARK                            x       y       z     vdW  Elec       q    Type
REMARK                         _______ _______ _______ _____ _____    ______ ____
ROOT
ATOM      1  C   UNL     1       4.065   4.204  19.207  0.00  0.00    +0.000 C 
ATOM      2  C   UNL     1       2.735   3.505  19.305  0.00  0.00    +0.000 A 
ATOM      3  C   UNL     1       1.968   3.032  18.267  0.00  0.00    +0.000 A 
ATOM      4  C   UNL     1       0.809   2.503  18.851  0.00  0.00    +0.000 A 
ATOM      5  N   UNL     1       0.831   2.608  20.177  0.00  0.00    +0.000 NA
ATOM      6  N   UNL     1       2.031   3.181  20.444  0.00  0.00    +0.000 N 
ATOM      7  C   UNL     1       2.394   3.329  21.832  0.00  0.00    +0.000 C 
ATOM      8  C   UNL     1       2.366   3.089  16.860  0.00  0.00    +0.000 C 
ATOM      9  C   UNL     1       3.713   3.782  16.652  0.00  0.00    +0.000 C 
ATOM     10  N   UNL     1       4.578   4.148  17.799  0.00  0.00    +0.000 N 
ATOM     11  C   UNL     1       5.923   4.552  17.591  0.00  0.00    +0.000 C 
ATOM     12  O   UNL     1       6.663   4.782  18.551  0.00  0.00    +0.000 OA
ENDROOT
BRANCH  11  13
ATOM     13  C   UNL     1       6.471   4.678  16.219  0.00  0.00    +0.000 A 
ATOM     14  C   UNL     1       6.157   3.846  15.107  0.00  0.00    +0.000 A 
ATOM     15  C   UNL     1       6.854   4.385  14.052  0.00  0.00    +0.000 A 
ATOM     16  C   UNL     1       6.950   4.100  12.611  0.00  0.00    +0.000 C 
ATOM     17  O   UNL     1       7.597   5.425  14.502  0.00  0.00    +0.000 OA
ATOM     18  N   UNL     1       7.389   5.591  15.852  0.00  0.00    +0.000 NA
ENDBRANCH  11  13
BRANCH   1  19
ATOM     19  C   UNL     1       3.980   5.668  19.735  0.00  0.00    +0.000 C 
BRANCH  19  21
ATOM     20  C   UNL     1       2.861   7.223  18.328  0.00  0.00    +0.000 C 
ATOM     21  O   UNL     1       2.726   6.253  19.357  0.00  0.00    +0.000 OA
ENDBRANCH  19  21
ENDBRANCH   1  19
TORSDOF 3
ENDMDL
MODEL 2
REMARK VINA RESULT:      -7.6      1.468      1.610
REMARK  Name = 
REMARK  6 active torsions:
REMARK  status: ('A' for Active; 'I' for Inactive)
REMARK    1  A    between atoms: C_1  and  O_2
REMARK    2  A    between atoms: O_2  and  C_3
REMARK    3  A    between atoms: C_3  and  C_4
REMARK    4  A    between atoms: N_9  and  C_10
REMARK    5  A    between atoms: C_14  and  C_16
REMARK    6  A    between atoms: C_18  and  C_19
REMARK                            x       y       z     vdW  Elec       q    Type
REMARK                         _______ _______ _______ _____ _____    ______ ____
ROOT
ATOM      1  C   UNL     1       3.289   5.752  18.364  0.00  0.00    +0.000 C 
ATOM      2  C   UNL     1       2.462   4.703  19.059  0.00  0.00    +0.000 A 
ATOM      3  C   UNL     1       2.352   3.375  18.724  0.00  0.00    +0.000 A 
ATOM      4  C   UNL     1       1.442   2.818  19.631  0.00  0.00    +0.000 A 
ATOM      5  N   UNL     1       1.006   3.718  20.508  0.00  0.00    +0.000 NA
ATOM      6  N   UNL     1       1.669   4.853  20.176  0.00  0.00    +0.000 N 
ATOM      7  C   UNL     1       1.480   6.000  21.032  0.00  0.00    +0.000 C 
ATOM      8  C   UNL     1       3.091   2.741  17.631  0.00  0.00    +0.000 C 
ATOM      9  C   UNL     1       3.970   3.727  16.859  0.00  0.00    +0.000 C 
ATOM     10  N   UNL     1       4.176   5.115  17.337  0.00  0.00    +0.000 N 
ATOM     11  C   UNL     1       5.184   5.935  16.764  0.00  0.00    +0.000 C 
ATOM     12  O   UNL     1       5.405   7.062  17.215  0.00  0.00    +0.000 OA
ENDROOT
BRANCH  11  13
ATOM     13  C   UNL     1       6.006   5.442  15.633  0.00  0.00    +0.000 A 
ATOM     14  C   UNL     1       5.545   4.670  14.529  0.00  0.00    +0.000 A 
ATOM     15  C   UNL     1       6.646   4.511  13.722  0.00  0.00    +0.000 A 
ATOM     16  C   UNL     1       6.894   3.901  12.405  0.00  0.00    +0.000 C 
ATOM     17  O   UNL     1       7.718   5.080  14.324  0.00  0.00    +0.000 OA
ATOM     18  N   UNL     1       7.335   5.630  15.526  0.00  0.00    +0.000 NA
ENDBRANCH  11  13
BRANCH   1  19
ATOM     19  C   UNL     1       2.393   6.867  17.746  0.00  0.00    +0.000 C 
BRANCH  19  21
ATOM     20  C   UNL     1       1.916   9.193  17.846  0.00  0.00    +0.000 C 
ATOM     21  O   UNL     1       2.584   8.098  18.456  0.00  0.00    +0.000 OA
ENDBRANCH  19  21
ENDBRANCH   1  19
TORSDOF 3
ENDMDL
MODEL 3
REMARK VINA RESULT:      -7.2      1.959      2.885
REMARK  Name = 
REMARK  6 active torsions:
REMARK  status: ('A' for Active; 'I' for Inactive)
REMARK    1  A    between atoms: C_1  and  O_2
REMARK    2  A    between atoms: O_2  and  C_3
REMARK    3  A    between atoms: C_3  and  C_4
REMARK    4  A    between atoms: N_9  and  C_10
REMARK    5  A    between atoms: C_14  and  C_16
REMARK    6  A    between atoms: C_18  and  C_19
REMARK                            x       y       z     vdW  Elec       q    Type
REMARK                         _______ _______ _______ _____ _____    ______ ____
ROOT
ATOM      1  C   UNL     1       4.233   4.745  18.330  0.00  0.00    +0.000 C 
ATOM      2  C   UNL     1       3.320   5.829  18.836  0.00  0.00    +0.000 A 
ATOM      3  C   UNL     1       3.184   7.102  18.336  0.00  0.00    +0.000 A 
ATOM      4  C   UNL     1       2.254   7.747  19.160  0.00  0.00    +0.000 A 
ATOM      5  N   UNL     1       1.801   6.943  20.118  0.00  0.00    +0.000 NA
ATOM      6  N   UNL     1       2.426   5.763  19.883  0.00  0.00    +0.000 N 
ATOM      7  C   UNL     1       2.050   4.643  20.712  0.00  0.00    +0.000 C 
ATOM      8  C   UNL     1       3.894   7.599  17.157  0.00  0.00    +0.000 C 
ATOM      9  C   UNL     1       4.851   6.566  16.560  0.00  0.00    +0.000 C 
ATOM     10  N   UNL     1       4.864   5.162  17.035  0.00  0.00    +0.000 N 
ATOM     11  C   UNL     1       5.563   4.160  16.312  0.00  0.00    +0.000 C 
ATOM     12  O   UNL     1       5.509   2.979  16.666  0.00  0.00    +0.000 OA
ENDROOT
BRANCH  11  13
ATOM     13  C   UNL     1       6.348   4.510  15.103  0.00  0.00    +0.000 A 
ATOM     14  C   UNL     1       6.129   4.018  13.785  0.00  0.00    +0.000 A 
ATOM     15  C   UNL     1       7.056   4.665  13.005  0.00  0.00    +0.000 A 
ATOM     16  C   UNL     1       7.360   4.710  11.565  0.00  0.00    +0.000 C 
ATOM     17  O   UNL     1       7.834   5.440  13.800  0.00  0.00    +0.000 OA
ATOM     18  N   UNL     1       7.422   5.321  15.107  0.00  0.00    +0.000 NA
ENDBRANCH  11  13
BRANCH   1  19
ATOM     19  C   UNL     1       5.301   4.355  19.396  0.00  0.00    +0.000 C 
BRANCH  19  21
ATOM     20  C   UNL     1       7.362   5.532  19.283  0.00  0.00    +0.000 C 
ATOM     21  O   UNL     1       6.039   5.518  19.798  0.00  0.00    +0.000 OA
ENDBRANCH  19  21
ENDBRANCH   1  19
TORSDOF 3
ENDMDL
MODEL 4
REMARK VINA RESULT:      -7.1      1.904      2.860
REMARK  Name = 
REMARK  6 active torsions:
REMARK  status: ('A' for Active; 'I' for Inactive)
REMARK    1  A    between atoms: C_1  and  O_2
REMARK    2  A    between atoms: O_2  and  C_3
REMARK    3  A    between atoms: C_3  and  C_4
REMARK    4  A    between atoms: N_9  and  C_10
REMARK    5  A    between atoms: C_14  and  C_16
REMARK    6  A    between atoms: C_18  and  C_19
REMARK                            x       y       z     vdW  Elec       q    Type
REMARK                         _______ _______ _______ _____ _____    ______ ____
ROOT
ATOM      1  C   UNL     1       3.835   4.478  18.471  0.00  0.00    +0.000 C 
ATOM      2  C   UNL     1       3.001   5.577  19.075  0.00  0.00    +0.000 A 
ATOM      3  C   UNL     1       3.020   6.911  18.746  0.00  0.00    +0.000 A 
ATOM      4  C   UNL     1       2.107   7.536  19.604  0.00  0.00    +0.000 A 
ATOM      5  N   UNL     1       1.520   6.665  20.421  0.00  0.00    +0.000 NA
ATOM      6  N   UNL     1       2.042   5.468  20.059  0.00  0.00    +0.000 N 
ATOM      7  C   UNL     1       1.509   4.295  20.709  0.00  0.00    +0.000 C 
ATOM      8  C   UNL     1       3.846   7.480  17.681  0.00  0.00    +0.000 C 
ATOM      9  C   UNL     1       4.734   6.439  16.997  0.00  0.00    +0.000 C 
ATOM     10  N   UNL     1       4.582   4.992  17.277  0.00  0.00    +0.000 N 
ATOM     11  C   UNL     1       5.224   4.026  16.459  0.00  0.00    +0.000 C 
ATOM     12  O   UNL     1       5.035   2.821  16.647  0.00  0.00    +0.000 OA
ENDROOT
BRANCH  11  13
ATOM     13  C   UNL     1       6.112   4.446  15.348  0.00  0.00    +0.000 A 
ATOM     14  C   UNL     1       6.003   4.047  13.985  0.00  0.00    +0.000 A 
ATOM     15  C   UNL     1       6.999   4.734  13.333  0.00  0.00    +0.000 A 
ATOM     16  C   UNL     1       7.425   4.871  11.931  0.00  0.00    +0.000 C 
ATOM     17  O   UNL     1       7.711   5.443  14.242  0.00  0.00    +0.000 OA
ATOM     18  N   UNL     1       7.187   5.241  15.498  0.00  0.00    +0.000 NA
ENDBRANCH  11  13
BRANCH   1  19
ATOM     19  C   UNL     1       4.792   3.844  19.525  0.00  0.00    +0.000 C 
BRANCH  19  21
ATOM     20  C   UNL     1       3.539   1.882  19.045  0.00  0.00    +0.000 C 
ATOM     21  O   UNL     1       4.221   2.633  20.039  0.00  0.00    +0.000 OA
ENDBRANCH  19  21
ENDBRANCH   1  19
TORSDOF 3
ENDMDL
MODEL 5
REMARK VINA RESULT:      -6.6      3.077      6.399
REMARK  Name = 
REMARK  6 active torsions:
REMARK  status: ('A' for Active; 'I' for Inactive)
REMARK    1  A    between atoms: C_1  and  O_2
REMARK    2  A    between atoms: O_2  and  C_3
REMARK    3  A    between atoms: C_3  and  C_4
REMARK    4  A    between atoms: N_9  and  C_10
REMARK    5  A    between atoms: C_14  and  C_16
REMARK    6  A    between atoms: C_18  and  C_19
REMARK                            x       y       z     vdW  Elec       q    Type
REMARK                         _______ _______ _______ _____ _____    ______ ____
ROOT
ATOM      1  C   UNL     1       3.382   5.775  18.226  0.00  0.00    +0.000 C 
ATOM      2  C   UNL     1       3.295   4.275  18.319  0.00  0.00    +0.000 A 
ATOM      3  C   UNL     1       2.581   3.539  19.235  0.00  0.00    +0.000 A 
ATOM      4  C   UNL     1       2.847   2.195  18.945  0.00  0.00    +0.000 A 
ATOM      5  N   UNL     1       3.660   2.066  17.901  0.00  0.00    +0.000 NA
ATOM      6  N   UNL     1       3.891   3.340  17.501  0.00  0.00    +0.000 N 
ATOM      7  C   UNL     1       4.670   3.522  16.300  0.00  0.00    +0.000 C 
ATOM      8  C   UNL     1       1.722   4.124  20.265  0.00  0.00    +0.000 C 
ATOM      9  C   UNL     1       1.736   5.653  20.253  0.00  0.00    +0.000 C 
ATOM     10  N   UNL     1       2.399   6.410  19.165  0.00  0.00    +0.000 N 
ATOM     11  C   UNL     1       2.190   7.807  19.024  0.00  0.00    +0.000 C 
ATOM     12  O   UNL     1       2.681   8.421  18.073  0.00  0.00    +0.000 OA
ENDROOT
BRANCH  11  13
ATOM     13  C   UNL     1       1.358   8.549  20.002  0.00  0.00    +0.000 A 
ATOM     14  C   UNL     1       1.251   8.277  21.396  0.00  0.00    +0.000 A 
ATOM     15  C   UNL     1       0.422   9.256  21.887  0.00  0.00    +0.000 A 
ATOM     16  C   UNL     1      -0.063   9.639  23.223  0.00  0.00    +0.000 C 
ATOM     17  O   UNL     1      -0.007  10.026  20.857  0.00  0.00    +0.000 OA
ATOM     18  N   UNL     1       0.544   9.571  19.681  0.00  0.00    +0.000 NA
ENDBRANCH  11  13
BRANCH   1  19
ATOM     19  C   UNL     1       4.834   6.280  18.480  0.00  0.00    +0.000 C 
BRANCH  19  21
ATOM     20  C   UNL     1       6.897   5.459  19.327  0.00  0.00    +0.000 C 
ATOM     21  O   UNL     1       5.482   5.440  19.446  0.00  0.00    +0.000 OA
ENDBRANCH  19  21
ENDBRANCH   1  19
TORSDOF 3
ENDMDL
MODEL 6
REMARK VINA RESULT:      -6.5      3.265      6.689
REMARK  Name = 
REMARK  6 active torsions:
REMARK  status: ('A' for Active; 'I' for Inactive)
REMARK    1  A    between atoms: C_1  and  O_2
REMARK    2  A    between atoms: O_2  and  C_3
REMARK    3  A    between atoms: C_3  and  C_4
REMARK    4  A    between atoms: N_9  and  C_10
REMARK    5  A    between atoms: C_14  and  C_16
REMARK    6  A    between atoms: C_18  and  C_19
REMARK                            x       y       z     vdW  Elec       q    Type
REMARK                         _______ _______ _______ _____ _____    ______ ____
ROOT
ATOM      1  C   UNL     1       2.711   5.803  18.671  0.00  0.00    +0.000 C 
ATOM      2  C   UNL     1       2.583   4.307  18.776  0.00  0.00    +0.000 A 
ATOM      3  C   UNL     1       2.066   3.589  19.828  0.00  0.00    +0.000 A 
ATOM      4  C   UNL     1       2.200   2.239  19.480  0.00  0.00    +0.000 A 
ATOM      5  N   UNL     1       2.748   2.090  18.277  0.00  0.00    +0.000 NA
ATOM      6  N   UNL     1       2.937   3.359  17.840  0.00  0.00    +0.000 N 
ATOM      7  C   UNL     1       3.429   3.525  16.493  0.00  0.00    +0.000 C 
ATOM      8  C   UNL     1       1.489   4.194  21.028  0.00  0.00    +0.000 C 
ATOM      9  C   UNL     1       1.566   5.722  21.019  0.00  0.00    +0.000 C 
ATOM     10  N   UNL     1       1.995   6.465  19.811  0.00  0.00    +0.000 N 
ATOM     11  C   UNL     1       1.820   7.872  19.727  0.00  0.00    +0.000 C 
ATOM     12  O   UNL     1       2.107   8.477  18.691  0.00  0.00    +0.000 OA
ENDROOT
BRANCH  11  13
ATOM     13  C   UNL     1       1.265   8.634  20.871  0.00  0.00    +0.000 A 
ATOM     14  C   UNL     1      -0.034   9.211  20.948  0.00  0.00    +0.000 A 
ATOM     15  C   UNL     1      -0.108   9.754  22.208  0.00  0.00    +0.000 A 
ATOM     16  C   UNL     1      -1.155  10.429  22.994  0.00  0.00    +0.000 C 
ATOM     17  O   UNL     1       1.085   9.587  22.829  0.00  0.00    +0.000 OA
ATOM     18  N   UNL     1       1.952   8.923  21.992  0.00  0.00    +0.000 NA
ENDBRANCH  11  13
BRANCH   1  19
ATOM     19  C   UNL     1       4.203   6.245  18.589  0.00  0.00    +0.000 C 
BRANCH  19  21
ATOM     20  C   UNL     1       6.283   5.188  19.040  0.00  0.00    +0.000 C 
ATOM     21  O   UNL     1       4.987   5.498  19.531  0.00  0.00    +0.000 OA
ENDBRANCH  19  21
ENDBRANCH   1  19
TORSDOF 3
ENDMDL
MODEL 7
REMARK VINA RESULT:      -6.3      4.697      6.787
REMARK  Name = 
REMARK  6 active torsions:
REMARK  status: ('A' for Active; 'I' for Inactive)
REMARK    1  A    between atoms: C_1  and  O_2
REMARK    2  A    between atoms: O_2  and  C_3
REMARK    3  A    between atoms: C_3  and  C_4
REMARK    4  A    between atoms: N_9  and  C_10
REMARK    5  A    between atoms: C_14  and  C_16
REMARK    6  A    between atoms: C_18  and  C_19
REMARK                            x       y       z     vdW  Elec       q    Type
REMARK                         _______ _______ _______ _____ _____    ______ ____
ROOT
ATOM      1  C   UNL     1       1.095   9.945  19.178  0.00  0.00    +0.000 C 
ATOM      2  C   UNL     1       0.599  10.477  20.496  0.00  0.00    +0.000 A 
ATOM      3  C   UNL     1       0.443   9.778  21.669  0.00  0.00    +0.000 A 
ATOM      4  C   UNL     1      -0.082  10.687  22.597  0.00  0.00    +0.000 A 
ATOM      5  N   UNL     1      -0.238  11.898  22.068  0.00  0.00    +0.000 NA
ATOM      6  N   UNL     1       0.222  11.768  20.800  0.00  0.00    +0.000 N 
ATOM      7  C   UNL     1       0.280  12.964  19.995  0.00  0.00    +0.000 C 
ATOM      8  C   UNL     1       0.800   8.369  21.837  0.00  0.00    +0.000 C 
ATOM      9  C   UNL     1       1.322   7.731  20.549  0.00  0.00    +0.000 C 
ATOM     10  N   UNL     1       1.613   8.547  19.346  0.00  0.00    +0.000 N 
ATOM     11  C   UNL     1       2.330   7.994  18.253  0.00  0.00    +0.000 C 
ATOM     12  O   UNL     1       2.638   8.698  17.287  0.00  0.00    +0.000 OA
ENDROOT
BRANCH  11  13
ATOM     13  C   UNL     1       2.746   6.571  18.264  0.00  0.00    +0.000 A 
ATOM     14  C   UNL     1       1.949   5.458  17.874  0.00  0.00    +0.000 A 
ATOM     15  C   UNL     1       2.776   4.367  17.998  0.00  0.00    +0.000 A 
ATOM     16  C   UNL     1       2.658   2.930  17.704  0.00  0.00    +0.000 C 
ATOM     17  O   UNL     1       3.968   4.775  18.497  0.00  0.00    +0.000 OA
ATOM     18  N   UNL     1       3.944   6.136  18.696  0.00  0.00    +0.000 NA
ENDBRANCH  11  13
BRANCH   1  19
ATOM     19  C   UNL     1      -0.006  10.026  18.079  0.00  0.00    +0.000 C 
BRANCH  19  21
ATOM     20  C   UNL     1      -2.356   9.982  17.725  0.00  0.00    +0.000 C 
ATOM     21  O   UNL     1      -1.306   9.937  18.680  0.00  0.00    +0.000 OA
ENDBRANCH  19  21
ENDBRANCH   1  19
TORSDOF 3
ENDMDL
MODEL 8
REMARK VINA RESULT:      -6.3      2.160      3.412
REMARK  Name = 
REMARK  6 active torsions:
REMARK  status: ('A' for Active; 'I' for Inactive)
REMARK    1  A    between atoms: C_1  and  O_2
REMARK    2  A    between atoms: O_2  and  C_3
REMARK    3  A    between atoms: C_3  and  C_4
REMARK    4  A    between atoms: N_9  and  C_10
REMARK    5  A    between atoms: C_14  and  C_16
REMARK    6  A    between atoms: C_18  and  C_19
REMARK                            x       y       z     vdW  Elec       q    Type
REMARK                         _______ _______ _______ _____ _____    ______ ____
ROOT
ATOM      1  C   UNL     1       3.456   3.522  18.126  0.00  0.00    +0.000 C 
ATOM      2  C   UNL     1       2.294   3.777  19.049  0.00  0.00    +0.000 A 
ATOM      3  C   UNL     1       2.104   4.868  19.863  0.00  0.00    +0.000 A 
ATOM      4  C   UNL     1       0.910   4.632  20.556  0.00  0.00    +0.000 A 
ATOM      5  N   UNL     1       0.352   3.477  20.202  0.00  0.00    +0.000 NA
ATOM      6  N   UNL     1       1.183   2.986  19.250  0.00  0.00    +0.000 N 
ATOM      7  C   UNL     1       0.779   1.770  18.588  0.00  0.00    +0.000 C 
ATOM      8  C   UNL     1       3.008   6.017  19.919  0.00  0.00    +0.000 C 
ATOM      9  C   UNL     1       4.227   5.858  19.009  0.00  0.00    +0.000 C 
ATOM     10  N   UNL     1       4.326   4.741  18.040  0.00  0.00    +0.000 N 
ATOM     11  C   UNL     1       5.326   4.744  17.032  0.00  0.00    +0.000 C 
ATOM     12  O   UNL     1       5.358   3.852  16.180  0.00  0.00    +0.000 OA
ENDROOT
BRANCH  11  13
ATOM     13  C   UNL     1       6.331   5.831  16.968  0.00  0.00    +0.000 A 
ATOM     14  C   UNL     1       6.374   6.989  17.797  0.00  0.00    +0.000 A 
ATOM     15  C   UNL     1       7.506   7.663  17.407  0.00  0.00    +0.000 A 
ATOM     16  C   UNL     1       8.209   8.874  17.863  0.00  0.00    +0.000 C 
ATOM     17  O   UNL     1       8.072   7.005  16.366  0.00  0.00    +0.000 OA
ATOM     18  N   UNL     1       7.329   5.887  16.067  0.00  0.00    +0.000 NA
ENDBRANCH  11  13
BRANCH   1  19
ATOM     19  C   UNL     1       4.264   2.262  18.560  0.00  0.00    +0.000 C 
BRANCH  19  21
ATOM     20  C   UNL     1       4.667   1.674  20.826  0.00  0.00    +0.000 C 
ATOM     21  O   UNL     1       5.004   2.544  19.756  0.00  0.00    +0.000 OA
ENDBRANCH  19  21
ENDBRANCH   1  19
TORSDOF 3
ENDMDL
MODEL 9
REMARK VINA RESULT:      -6.3      6.694      8.705
REMARK  Name = 
REMARK  6 active torsions:
REMARK  status: ('A' for Active; 'I' for Inactive)
REMARK    1  A    between atoms: C_1  and  O_2
REMARK    2  A    between atoms: O_2  and  C_3
REMARK    3  A    between atoms: C_3  and  C_4
REMARK    4  A    between atoms: N_9  and  C_10
REMARK    5  A    between atoms: C_14  and  C_16
REMARK    6  A    between atoms: C_18  and  C_19
REMARK                            x       y       z     vdW  Elec       q    Type
REMARK                         _______ _______ _______ _____ _____    ______ ____
ROOT
ATOM      1  C   UNL     1      -1.656  11.518  19.502  0.00  0.00    +0.000 C 
ATOM      2  C   UNL     1      -3.014  11.592  18.855  0.00  0.00    +0.000 A 
ATOM      3  C   UNL     1      -3.409  10.995  17.682  0.00  0.00    +0.000 A 
ATOM      4  C   UNL     1      -4.737  11.388  17.474  0.00  0.00    +0.000 A 
ATOM      5  N   UNL     1      -5.181  12.171  18.454  0.00  0.00    +0.000 NA
ATOM      6  N   UNL     1      -4.134  12.252  19.312  0.00  0.00    +0.000 N 
ATOM      7  C   UNL     1      -4.352  12.962  20.550  0.00  0.00    +0.000 C 
ATOM      8  C   UNL     1      -2.555  10.119  16.880  0.00  0.00    +0.000 C 
ATOM      9  C   UNL     1      -1.146   9.973  17.457  0.00  0.00    +0.000 C 
ATOM     10  N   UNL     1      -0.800  10.511  18.794  0.00  0.00    +0.000 N 
ATOM     11  C   UNL     1       0.420  10.152  19.425  0.00  0.00    +0.000 C 
ATOM     12  O   UNL     1       0.671  10.539  20.569  0.00  0.00    +0.000 OA
ENDROOT
BRANCH  11  13
ATOM     13  C   UNL     1       1.403   9.284  18.732  0.00  0.00    +0.000 A 
ATOM     14  C   UNL     1       1.857   8.008  19.170  0.00  0.00    +0.000 A 
ATOM     15  C   UNL     1       2.704   7.572  18.180  0.00  0.00    +0.000 A 
ATOM     16  C   UNL     1       3.462   6.336  17.925  0.00  0.00    +0.000 C 
ATOM     17  O   UNL     1       2.818   8.543  17.241  0.00  0.00    +0.000 OA
ATOM     18  N   UNL     1       2.039   9.621  17.595  0.00  0.00    +0.000 NA
ENDBRANCH  11  13
BRANCH   1  19
ATOM     19  C   UNL     1      -0.975  12.918  19.561  0.00  0.00    +0.000 C 
BRANCH  19  21
ATOM     20  C   UNL     1       0.945  13.620  18.349  0.00  0.00    +0.000 C 
ATOM     21  O   UNL     1      -0.424  13.249  18.278  0.00  0.00    +0.000 OA
ENDBRANCH  19  21
ENDBRANCH   1  19
TORSDOF 3
ENDMDL
