MODEL 1
REMARK VINA RESULT:      -8.5      0.000      0.000
REMARK  Name = 
REMARK  8 active torsions:
REMARK  status: ('A' for Active; 'I' for Inactive)
REMARK    1  A    between atoms: CB_1  and  CA_2
REMARK    2  A    between atoms: CA_2  and  N_3
REMARK    3  A    between atoms: CA_2  and  C_26
REMARK    4  A    between atoms: C_4  and  C_6
REMARK    5  A    between atoms: C_9  and  N_10
REMARK    6  A    between atoms: N_10  and  C_11
REMARK    7  A    between atoms: C_11  and  C_12
REMARK    8  A    between atoms: C_26  and  OXT_28
REMARK                            x       y       z     vdW  Elec       q    Type
REMARK                         _______ _______ _______ _____ _____    ______ ____
ROOT
ATOM      1  N   UNK A   0       1.605   8.159  21.197  0.00  0.00    +0.000 N 
ATOM      2  H   UNK A   0       1.351   7.257  21.593  0.00  0.00    +0.000 HD
ENDROOT
BRANCH   1   6
ATOM      3  C   UNK A   0      -0.819  11.340  22.540  0.00  0.00    +0.000 A 
ATOM      4  C   UNK A   0      -0.006  11.480  21.414  0.00  0.00    +0.000 A 
ATOM      5  C   UNK A   0       0.801  10.416  21.001  0.00  0.00    +0.000 A 
ATOM      6  C   UNK A   0       0.847   9.210  21.716  0.00  0.00    +0.000 A 
ATOM      7  C   UNK A   0       0.021   9.086  22.839  0.00  0.00    +0.000 A 
ATOM      8  C   UNK A   0      -0.792  10.145  23.263  0.00  0.00    +0.000 A 
BRANCH   3  10
ATOM      9  N   ALA A   1      -3.060  12.127  23.037  0.00  0.00    +0.000 N 
ATOM     10  C   UNK A   0      -1.719  12.432  22.988  0.00  0.00    +0.000 C 
ATOM     11  O   UNK A   0      -1.265  13.521  23.319  0.00  0.00    +0.000 OA
ATOM     12  H   ALA A   1      -3.385  11.177  22.888  0.00  0.00    +0.000 HD
BRANCH   9  14
ATOM     13  CB  ALA A   1      -4.794  13.672  22.258  0.00  0.00    +0.000 C 
ATOM     14  CA  ALA A   1      -4.054  13.105  23.458  0.00  0.00    +0.000 C 
BRANCH  14  15
ATOM     15  C   ALA A   1      -5.052  12.426  24.400  0.00  0.00    +0.000 C 
ATOM     16  O   ALA A   1      -6.182  12.089  24.070  0.00  0.00    +0.000 OA
BRANCH  15  17
ATOM     17  OXT ALA A   1      -4.584  12.256  25.660  0.00  0.00    +0.000 OA
ATOM     18  HXT ALA A   1      -3.869  12.872  25.910  0.00  0.00    +0.000 HD
ENDBRANCH  15  17
ENDBRANCH  14  15
ENDBRANCH   9  14
ENDBRANCH   3  10
ENDBRANCH   1   6
BRANCH   1  19
ATOM     19  C   UNK A   0       1.856   8.067  19.759  0.00  0.00    +0.000 C 
BRANCH  19  20
ATOM     20  C   UNK A   0       2.454   6.737  19.365  0.00  0.00    +0.000 A 
ATOM     21  C   UNK A   0       3.464   6.621  18.430  0.00  0.00    +0.000 A 
ATOM     22  N   UNK A   0       3.981   5.427  18.041  0.00  0.00    +0.000 NA
ATOM     23  C   UNK A   0       3.468   4.314  18.576  0.00  0.00    +0.000 A 
ATOM     24  N   UNK A   0       3.979   3.149  18.191  0.00  0.00    +0.000 NA
ATOM     25  C   UNK A   0       3.454   2.043  18.707  0.00  0.00    +0.000 A 
ATOM     26  N   UNK A   0       3.964   0.837  18.282  0.00  0.00    +0.000 N 
ATOM     27  N   UNK A   0       2.483   2.014  19.617  0.00  0.00    +0.000 NA
ATOM     28  C   UNK A   0       1.983   3.200  19.993  0.00  0.00    +0.000 A 
ATOM     29  N   UNK A   0       0.880   3.146  20.864  0.00  0.00    +0.000 N 
ATOM     30  C   UNK A   0       2.429   4.424  19.509  0.00  0.00    +0.000 A 
ATOM     31  N   UNK A   0       1.918   5.624  19.920  0.00  0.00    +0.000 NA
ATOM     32  H   UNK A   0       4.894   0.948  17.902  0.00  0.00    +0.000 HD
ATOM     33  H   UNK A   0       3.810   0.109  18.962  0.00  0.00    +0.000 HD
ATOM     34  H   UNK A   0       0.772   2.204  21.226  0.00  0.00    +0.000 HD
ATOM     35  H   UNK A   0       0.914   3.880  21.562  0.00  0.00    +0.000 HD
ENDBRANCH  19  20
ENDBRANCH   1  19
TORSDOF 7
ENDMDL
MODEL 2
REMARK VINA RESULT:      -8.3      1.811      2.725
REMARK  Name = 
REMARK  8 active torsions:
REMARK  status: ('A' for Active; 'I' for Inactive)
REMARK    1  A    between atoms: CB_1  and  CA_2
REMARK    2  A    between atoms: CA_2  and  N_3
REMARK    3  A    between atoms: CA_2  and  C_26
REMARK    4  A    between atoms: C_4  and  C_6
REMARK    5  A    between atoms: C_9  and  N_10
REMARK    6  A    between atoms: N_10  and  C_11
REMARK    7  A    between atoms: C_11  and  C_12
REMARK    8  A    between atoms: C_26  and  OXT_28
REMARK                            x       y       z     vdW  Elec       q    Type
REMARK                         _______ _______ _______ _____ _____    ______ ____
ROOT
ATOM      1  N   UNK A   0       1.847   7.918  21.386  0.00  0.00    +0.000 N 
ATOM      2  H   UNK A   0       2.211   7.561  22.266  0.00  0.00    +0.000 HD
ENDROOT
BRANCH   1   6
ATOM      3  C   UNK A   0      -0.866  11.070  22.096  0.00  0.00    +0.000 A 
ATOM      4  C   UNK A   0      -0.489  10.200  23.120  0.00  0.00    +0.000 A 
ATOM      5  C   UNK A   0       0.397   9.153  22.854  0.00  0.00    +0.000 A 
ATOM      6  C   UNK A   0       0.896   8.924  21.563  0.00  0.00    +0.000 A 
ATOM      7  C   UNK A   0       0.511   9.811  20.550  0.00  0.00    +0.000 A 
ATOM      8  C   UNK A   0      -0.376  10.864  20.804  0.00  0.00    +0.000 A 
BRANCH   3  10
ATOM      9  N   ALA A   1      -3.010  11.907  22.866  0.00  0.00    +0.000 N 
ATOM     10  C   UNK A   0      -1.774  12.217  22.347  0.00  0.00    +0.000 C 
ATOM     11  O   UNK A   0      -1.408  13.365  22.125  0.00  0.00    +0.000 OA
ATOM     12  H   ALA A   1      -3.228  10.961  23.165  0.00  0.00    +0.000 HD
BRANCH   9  14
ATOM     13  CB  ALA A   1      -5.021  13.035  22.039  0.00  0.00    +0.000 C 
ATOM     14  CA  ALA A   1      -3.999  12.935  23.160  0.00  0.00    +0.000 C 
BRANCH  14  15
ATOM     15  C   ALA A   1      -4.709  12.582  24.470  0.00  0.00    +0.000 C 
ATOM     16  O   ALA A   1      -5.738  11.922  24.532  0.00  0.00    +0.000 OA
BRANCH  15  17
ATOM     17  OXT ALA A   1      -4.112  13.099  25.571  0.00  0.00    +0.000 OA
ATOM     18  HXT ALA A   1      -3.351  13.680  25.380  0.00  0.00    +0.000 HD
ENDBRANCH  15  17
ENDBRANCH  14  15
ENDBRANCH   9  14
ENDBRANCH   3  10
ENDBRANCH   1   6
BRANCH   1  19
ATOM     19  C   UNK A   0       1.616   6.844  20.420  0.00  0.00    +0.000 C 
BRANCH  19  20
ATOM     20  C   UNK A   0       2.682   6.793  19.352  0.00  0.00    +0.000 A 
ATOM     21  C   UNK A   0       2.738   7.698  18.310  0.00  0.00    +0.000 A 
ATOM     22  N   UNK A   0       3.670   7.637  17.324  0.00  0.00    +0.000 NA
ATOM     23  C   UNK A   0       4.559   6.639  17.358  0.00  0.00    +0.000 A 
ATOM     24  N   UNK A   0       5.468   6.585  16.390  0.00  0.00    +0.000 NA
ATOM     25  C   UNK A   0       6.338   5.580  16.414  0.00  0.00    +0.000 A 
ATOM     26  N   UNK A   0       7.258   5.511  15.392  0.00  0.00    +0.000 N 
ATOM     27  N   UNK A   0       6.397   4.646  17.360  0.00  0.00    +0.000 NA
ATOM     28  C   UNK A   0       5.471   4.719  18.327  0.00  0.00    +0.000 A 
ATOM     29  N   UNK A   0       5.474   3.660  19.252  0.00  0.00    +0.000 N 
ATOM     30  C   UNK A   0       4.495   5.706  18.401  0.00  0.00    +0.000 A 
ATOM     31  N   UNK A   0       3.572   5.773  19.408  0.00  0.00    +0.000 NA
ATOM     32  H   UNK A   0       7.381   6.411  14.950  0.00  0.00    +0.000 HD
ATOM     33  H   UNK A   0       8.080   4.997  15.668  0.00  0.00    +0.000 HD
ATOM     34  H   UNK A   0       6.321   3.111  19.145  0.00  0.00    +0.000 HD
ATOM     35  H   UNK A   0       5.278   3.979  20.194  0.00  0.00    +0.000 HD
ENDBRANCH  19  20
ENDBRANCH   1  19
TORSDOF 7
ENDMDL
MODEL 3
REMARK VINA RESULT:      -8.3      5.443      9.957
REMARK  Name = 
REMARK  8 active torsions:
REMARK  status: ('A' for Active; 'I' for Inactive)
REMARK    1  A    between atoms: CB_1  and  CA_2
REMARK    2  A    between atoms: CA_2  and  N_3
REMARK    3  A    between atoms: CA_2  and  C_26
REMARK    4  A    between atoms: C_4  and  C_6
REMARK    5  A    between atoms: C_9  and  N_10
REMARK    6  A    between atoms: N_10  and  C_11
REMARK    7  A    between atoms: C_11  and  C_12
REMARK    8  A    between atoms: C_26  and  OXT_28
REMARK                            x       y       z     vdW  Elec       q    Type
REMARK                         _______ _______ _______ _____ _____    ______ ____
ROOT
ATOM      1  N   UNK A   0       1.129  10.419  18.024  0.00  0.00    +0.000 N 
ATOM      2  H   UNK A   0       0.456  10.277  17.274  0.00  0.00    +0.000 HD
ENDROOT
BRANCH   1   6
ATOM      3  C   UNK A   0       2.731   6.736  19.314  0.00  0.00    +0.000 A 
ATOM      4  C   UNK A   0       1.963   7.526  20.171  0.00  0.00    +0.000 A 
ATOM      5  C   UNK A   0       1.459   8.751  19.724  0.00  0.00    +0.000 A 
ATOM      6  C   UNK A   0       1.738   9.232  18.436  0.00  0.00    +0.000 A 
ATOM      7  C   UNK A   0       2.505   8.422  17.589  0.00  0.00    +0.000 A 
ATOM      8  C   UNK A   0       3.015   7.194  18.026  0.00  0.00    +0.000 A 
BRANCH   3  10
ATOM      9  N   ALA A   1       2.325   4.538  20.260  0.00  0.00    +0.000 N 
ATOM     10  C   UNK A   0       3.251   5.411  19.739  0.00  0.00    +0.000 C 
ATOM     11  O   UNK A   0       4.434   5.128  19.593  0.00  0.00    +0.000 OA
ATOM     12  H   ALA A   1       1.333   4.755  20.239  0.00  0.00    +0.000 HD
BRANCH   9  14
ATOM     13  CB  ALA A   1       1.599   2.603  21.576  0.00  0.00    +0.000 C 
ATOM     14  CA  ALA A   1       2.698   3.205  20.715  0.00  0.00    +0.000 C 
BRANCH  14  15
ATOM     15  C   ALA A   1       2.939   2.312  19.496  0.00  0.00    +0.000 C 
ATOM     16  O   ALA A   1       2.044   1.856  18.796  0.00  0.00    +0.000 OA
BRANCH  15  17
ATOM     17  OXT ALA A   1       4.247   2.035  19.272  0.00  0.00    +0.000 OA
ATOM     18  HXT ALA A   1       4.427   1.622  18.407  0.00  0.00    +0.000 HD
ENDBRANCH  15  17
ENDBRANCH  14  15
ENDBRANCH   9  14
ENDBRANCH   3  10
ENDBRANCH   1   6
BRANCH   1  19
ATOM     19  C   UNK A   0       0.644  11.383  19.011  0.00  0.00    +0.000 C 
BRANCH  19  20
ATOM     20  C   UNK A   0      -0.848  11.601  18.916  0.00  0.00    +0.000 A 
ATOM     21  C   UNK A   0      -1.609  12.026  19.986  0.00  0.00    +0.000 A 
ATOM     22  N   UNK A   0      -2.957  12.188  19.920  0.00  0.00    +0.000 NA
ATOM     23  C   UNK A   0      -3.570  11.898  18.768  0.00  0.00    +0.000 A 
ATOM     24  N   UNK A   0      -4.888  12.058  18.711  0.00  0.00    +0.000 NA
ATOM     25  C   UNK A   0      -5.500  11.749  17.572  0.00  0.00    +0.000 A 
ATOM     26  N   UNK A   0      -6.869  11.887  17.527  0.00  0.00    +0.000 N 
ATOM     27  N   UNK A   0      -4.886  11.334  16.467  0.00  0.00    +0.000 NA
ATOM     28  C   UNK A   0      -3.556  11.180  16.546  0.00  0.00    +0.000 A 
ATOM     29  N   UNK A   0      -2.940  10.630  15.408  0.00  0.00    +0.000 N 
ATOM     30  C   UNK A   0      -2.806  11.446  17.685  0.00  0.00    +0.000 A 
ATOM     31  N   UNK A   0      -1.447  11.301  17.738  0.00  0.00    +0.000 NA
ATOM     32  H   UNK A   0      -7.195  12.527  18.238  0.00  0.00    +0.000 HD
ATOM     33  H   UNK A   0      -7.198  12.014  16.582  0.00  0.00    +0.000 HD
ATOM     34  H   UNK A   0      -3.591  10.627  14.630  0.00  0.00    +0.000 HD
ATOM     35  H   UNK A   0      -2.039  11.057  15.222  0.00  0.00    +0.000 HD
ENDBRANCH  19  20
ENDBRANCH   1  19
TORSDOF 7
ENDMDL
MODEL 4
REMARK VINA RESULT:      -8.2      5.563     10.725
REMARK  Name = 
REMARK  8 active torsions:
REMARK  status: ('A' for Active; 'I' for Inactive)
REMARK    1  A    between atoms: CB_1  and  CA_2
REMARK    2  A    between atoms: CA_2  and  N_3
REMARK    3  A    between atoms: CA_2  and  C_26
REMARK    4  A    between atoms: C_4  and  C_6
REMARK    5  A    between atoms: C_9  and  N_10
REMARK    6  A    between atoms: N_10  and  C_11
REMARK    7  A    between atoms: C_11  and  C_12
REMARK    8  A    between atoms: C_26  and  OXT_28
REMARK                            x       y       z     vdW  Elec       q    Type
REMARK                         _______ _______ _______ _____ _____    ______ ____
ROOT
ATOM      1  N   UNK A   0       0.770   9.458  19.933  0.00  0.00    +0.000 N 
ATOM      2  H   UNK A   0       0.921   9.699  20.909  0.00  0.00    +0.000 HD
ENDROOT
BRANCH   1   6
ATOM      3  C   UNK A   0       3.150   6.241  18.600  0.00  0.00    +0.000 A 
ATOM      4  C   UNK A   0       2.562   6.225  19.865  0.00  0.00    +0.000 A 
ATOM      5  C   UNK A   0       1.792   7.312  20.289  0.00  0.00    +0.000 A 
ATOM      6  C   UNK A   0       1.623   8.449  19.485  0.00  0.00    +0.000 A 
ATOM      7  C   UNK A   0       2.217   8.444  18.217  0.00  0.00    +0.000 A 
ATOM      8  C   UNK A   0       2.990   7.361  17.781  0.00  0.00    +0.000 A 
BRANCH   3  10
ATOM      9  N   ALA A   1       4.623   5.293  16.919  0.00  0.00    +0.000 N 
ATOM     10  C   UNK A   0       3.942   5.089  18.097  0.00  0.00    +0.000 C 
ATOM     11  O   UNK A   0       3.993   4.041  18.730  0.00  0.00    +0.000 OA
ATOM     12  H   ALA A   1       4.668   6.215  16.495  0.00  0.00    +0.000 HD
BRANCH   9  14
ATOM     13  CB  ALA A   1       5.396   4.345  14.797  0.00  0.00    +0.000 C 
ATOM     14  CA  ALA A   1       5.438   4.249  16.314  0.00  0.00    +0.000 C 
BRANCH  14  15
ATOM     15  C   ALA A   1       6.883   4.402  16.796  0.00  0.00    +0.000 C 
ATOM     16  O   ALA A   1       7.814   4.727  16.070  0.00  0.00    +0.000 OA
BRANCH  15  17
ATOM     17  OXT ALA A   1       7.054   4.112  18.108  0.00  0.00    +0.000 OA
ATOM     18  HXT ALA A   1       7.168   3.161  18.297  0.00  0.00    +0.000 HD
ENDBRANCH  15  17
ENDBRANCH  14  15
ENDBRANCH   9  14
ENDBRANCH   3  10
ENDBRANCH   1   6
BRANCH   1  19
ATOM     19  C   UNK A   0       0.536  10.647  19.113  0.00  0.00    +0.000 C 
BRANCH  19  20
ATOM     20  C   UNK A   0      -0.886  10.726  18.609  0.00  0.00    +0.000 A 
ATOM     21  C   UNK A   0      -1.308  10.083  17.462  0.00  0.00    +0.000 A 
ATOM     22  N   UNK A   0      -2.575  10.181  16.981  0.00  0.00    +0.000 NA
ATOM     23  C   UNK A   0      -3.442  10.955  17.642  0.00  0.00    +0.000 A 
ATOM     24  N   UNK A   0      -4.679  11.046  17.165  0.00  0.00    +0.000 NA
ATOM     25  C   UNK A   0      -5.534  11.832  17.810  0.00  0.00    +0.000 A 
ATOM     26  N   UNK A   0      -6.806  11.948  17.296  0.00  0.00    +0.000 N 
ATOM     27  N   UNK A   0      -5.258  12.503  18.926  0.00  0.00    +0.000 NA
ATOM     28  C   UNK A   0      -4.005  12.397  19.391  0.00  0.00    +0.000 A 
ATOM     29  N   UNK A   0      -3.699  13.203  20.501  0.00  0.00    +0.000 N 
ATOM     30  C   UNK A   0      -3.014  11.626  18.794  0.00  0.00    +0.000 A 
ATOM     31  N   UNK A   0      -1.746  11.517  19.295  0.00  0.00    +0.000 NA
ATOM     32  H   UNK A   0      -7.032  11.161  16.702  0.00  0.00    +0.000 HD
ATOM     33  H   UNK A   0      -7.470  12.218  18.005  0.00  0.00    +0.000 HD
ATOM     34  H   UNK A   0      -4.551  13.588  20.894  0.00  0.00    +0.000 HD
ATOM     35  H   UNK A   0      -3.091  12.726  21.159  0.00  0.00    +0.000 HD
ENDBRANCH  19  20
ENDBRANCH   1  19
TORSDOF 7
ENDMDL
MODEL 5
REMARK VINA RESULT:      -8.2      5.455     10.363
REMARK  Name = 
REMARK  8 active torsions:
REMARK  status: ('A' for Active; 'I' for Inactive)
REMARK    1  A    between atoms: CB_1  and  CA_2
REMARK    2  A    between atoms: CA_2  and  N_3
REMARK    3  A    between atoms: CA_2  and  C_26
REMARK    4  A    between atoms: C_4  and  C_6
REMARK    5  A    between atoms: C_9  and  N_10
REMARK    6  A    between atoms: N_10  and  C_11
REMARK    7  A    between atoms: C_11  and  C_12
REMARK    8  A    between atoms: C_26  and  OXT_28
REMARK                            x       y       z     vdW  Elec       q    Type
REMARK                         _______ _______ _______ _____ _____    ______ ____
ROOT
ATOM      1  N   UNK A   0       0.670  10.181  20.583  0.00  0.00    +0.000 N 
ATOM      2  H   UNK A   0       1.046  10.347  21.514  0.00  0.00    +0.000 HD
ENDROOT
BRANCH   1   6
ATOM      3  C   UNK A   0       2.601   6.978  18.633  0.00  0.00    +0.000 A 
ATOM      4  C   UNK A   0       2.233   8.128  17.935  0.00  0.00    +0.000 A 
ATOM      5  C   UNK A   0       1.578   9.168  18.601  0.00  0.00    +0.000 A 
ATOM      6  C   UNK A   0       1.242   9.071  19.959  0.00  0.00    +0.000 A 
ATOM      7  C   UNK A   0       1.625   7.911  20.645  0.00  0.00    +0.000 A 
ATOM      8  C   UNK A   0       2.281   6.864  19.988  0.00  0.00    +0.000 A 
BRANCH   3  10
ATOM      9  N   ALA A   1       4.652   6.112  17.667  0.00  0.00    +0.000 N 
ATOM     10  C   UNK A   0       3.333   5.868  17.971  0.00  0.00    +0.000 C 
ATOM     11  O   UNK A   0       2.779   4.798  17.748  0.00  0.00    +0.000 OA
ATOM     12  H   ALA A   1       5.114   6.957  17.988  0.00  0.00    +0.000 HD
BRANCH   9  14
ATOM     13  CB  ALA A   1       6.427   5.764  16.014  0.00  0.00    +0.000 C 
ATOM     14  CA  ALA A   1       5.488   5.112  17.016  0.00  0.00    +0.000 C 
BRANCH  14  15
ATOM     15  C   ALA A   1       6.305   4.377  18.081  0.00  0.00    +0.000 C 
ATOM     16  O   ALA A   1       7.517   4.495  18.213  0.00  0.00    +0.000 OA
BRANCH  15  17
ATOM     17  OXT ALA A   1       5.569   3.545  18.857  0.00  0.00    +0.000 OA
ATOM     18  HXT ALA A   1       4.965   2.961  18.359  0.00  0.00    +0.000 HD
ENDBRANCH  15  17
ENDBRANCH  14  15
ENDBRANCH   9  14
ENDBRANCH   3  10
ENDBRANCH   1   6
BRANCH   1  19
ATOM     19  C   UNK A   0       0.482  11.430  19.844  0.00  0.00    +0.000 C 
BRANCH  19  20
ATOM     20  C   UNK A   0      -0.966  11.678  19.496  0.00  0.00    +0.000 A 
ATOM     21  C   UNK A   0      -1.880  12.166  20.409  0.00  0.00    +0.000 A 
ATOM     22  N   UNK A   0      -3.193  12.355  20.115  0.00  0.00    +0.000 NA
ATOM     23  C   UNK A   0      -3.617  12.032  18.889  0.00  0.00    +0.000 A 
ATOM     24  N   UNK A   0      -4.903  12.220  18.609  0.00  0.00    +0.000 NA
ATOM     25  C   UNK A   0      -5.328  11.878  17.397  0.00  0.00    +0.000 A 
ATOM     26  N   UNK A   0      -6.666  12.045  17.121  0.00  0.00    +0.000 N 
ATOM     27  N   UNK A   0      -4.554  11.403  16.425  0.00  0.00    +0.000 NA
ATOM     28  C   UNK A   0      -3.260  11.221  16.728  0.00  0.00    +0.000 A 
ATOM     29  N   UNK A   0      -2.482  10.609  15.729  0.00  0.00    +0.000 N 
ATOM     30  C   UNK A   0      -2.699  11.517  17.965  0.00  0.00    +0.000 A 
ATOM     31  N   UNK A   0      -1.373  11.343  18.248  0.00  0.00    +0.000 NA
ATOM     32  H   UNK A   0      -7.085  12.722  17.743  0.00  0.00    +0.000 HD
ATOM     33  H   UNK A   0      -6.831  12.140  16.131  0.00  0.00    +0.000 HD
ATOM     34  H   UNK A   0      -2.996  10.589  14.855  0.00  0.00    +0.000 HD
ATOM     35  H   UNK A   0      -1.551  11.008  15.678  0.00  0.00    +0.000 HD
ENDBRANCH  19  20
ENDBRANCH   1  19
TORSDOF 7
ENDMDL
MODEL 6
REMARK VINA RESULT:      -8.2      1.903      2.698
REMARK  Name = 
REMARK  8 active torsions:
REMARK  status: ('A' for Active; 'I' for Inactive)
REMARK    1  A    between atoms: CB_1  and  CA_2
REMARK    2  A    between atoms: CA_2  and  N_3
REMARK    3  A    between atoms: CA_2  and  C_26
REMARK    4  A    between atoms: C_4  and  C_6
REMARK    5  A    between atoms: C_9  and  N_10
REMARK    6  A    between atoms: N_10  and  C_11
REMARK    7  A    between atoms: C_11  and  C_12
REMARK    8  A    between atoms: C_26  and  OXT_28
REMARK                            x       y       z     vdW  Elec       q    Type
REMARK                         _______ _______ _______ _____ _____    ______ ____
ROOT
ATOM      1  N   UNK A   0       1.910   7.808  21.266  0.00  0.00    +0.000 N 
ATOM      2  H   UNK A   0       2.157   7.347  22.139  0.00  0.00    +0.000 HD
ENDROOT
BRANCH   1   6
ATOM      3  C   UNK A   0      -0.763  11.046  21.668  0.00  0.00    +0.000 A 
ATOM      4  C   UNK A   0      -0.191  10.735  20.434  0.00  0.00    +0.000 A 
ATOM      5  C   UNK A   0       0.706   9.667  20.332  0.00  0.00    +0.000 A 
ATOM      6  C   UNK A   0       1.081   8.915  21.455  0.00  0.00    +0.000 A 
ATOM      7  C   UNK A   0       0.492   9.239  22.683  0.00  0.00    +0.000 A 
ATOM      8  C   UNK A   0      -0.408  10.306  22.798  0.00  0.00    +0.000 A 
BRANCH   3  10
ATOM      9  N   ALA A   1      -2.676  12.001  22.817  0.00  0.00    +0.000 N 
ATOM     10  C   UNK A   0      -1.750  12.147  21.810  0.00  0.00    +0.000 C 
ATOM     11  O   UNK A   0      -1.699  13.130  21.080  0.00  0.00    +0.000 OA
ATOM     12  H   ALA A   1      -2.603  11.242  23.487  0.00  0.00    +0.000 HD
BRANCH   9  14
ATOM     13  CB  ALA A   1      -4.901  12.789  22.160  0.00  0.00    +0.000 C 
ATOM     14  CA  ALA A   1      -3.701  13.005  23.068  0.00  0.00    +0.000 C 
BRANCH  14  15
ATOM     15  C   ALA A   1      -4.142  12.912  24.530  0.00  0.00    +0.000 C 
ATOM     16  O   ALA A   1      -4.788  11.979  24.990  0.00  0.00    +0.000 OA
BRANCH  15  17
ATOM     17  OXT ALA A   1      -3.780  13.981  25.280  0.00  0.00    +0.000 OA
ATOM     18  HXT ALA A   1      -2.831  14.205  25.229  0.00  0.00    +0.000 HD
ENDBRANCH  15  17
ENDBRANCH  14  15
ENDBRANCH   9  14
ENDBRANCH   3  10
ENDBRANCH   1   6
BRANCH   1  19
ATOM     19  C   UNK A   0       1.624   6.841  20.206  0.00  0.00    +0.000 C 
BRANCH  19  20
ATOM     20  C   UNK A   0       2.728   6.773  19.179  0.00  0.00    +0.000 A 
ATOM     21  C   UNK A   0       2.827   7.664  18.128  0.00  0.00    +0.000 A 
ATOM     22  N   UNK A   0       3.794   7.586  17.178  0.00  0.00    +0.000 NA
ATOM     23  C   UNK A   0       4.676   6.584  17.257  0.00  0.00    +0.000 A 
ATOM     24  N   UNK A   0       5.620   6.514  16.324  0.00  0.00    +0.000 NA
ATOM     25  C   UNK A   0       6.482   5.506  16.391  0.00  0.00    +0.000 A 
ATOM     26  N   UNK A   0       7.439   5.419  15.405  0.00  0.00    +0.000 N 
ATOM     27  N   UNK A   0       6.502   4.583  17.350  0.00  0.00    +0.000 NA
ATOM     28  C   UNK A   0       5.542   4.673  18.282  0.00  0.00    +0.000 A 
ATOM     29  N   UNK A   0       5.505   3.624  19.219  0.00  0.00    +0.000 N 
ATOM     30  C   UNK A   0       4.569   5.665  18.308  0.00  0.00    +0.000 A 
ATOM     31  N   UNK A   0       3.610   5.749  19.279  0.00  0.00    +0.000 NA
ATOM     32  H   UNK A   0       7.584   6.314  14.957  0.00  0.00    +0.000 HD
ATOM     33  H   UNK A   0       8.248   4.905  15.717  0.00  0.00    +0.000 HD
ATOM     34  H   UNK A   0       6.352   3.070  19.150  0.00  0.00    +0.000 HD
ATOM     35  H   UNK A   0       5.276   3.956  20.149  0.00  0.00    +0.000 HD
ENDBRANCH  19  20
ENDBRANCH   1  19
TORSDOF 7
ENDMDL
MODEL 7
REMARK VINA RESULT:      -8.2      5.581     10.737
REMARK  Name = 
REMARK  8 active torsions:
REMARK  status: ('A' for Active; 'I' for Inactive)
REMARK    1  A    between atoms: CB_1  and  CA_2
REMARK    2  A    between atoms: CA_2  and  N_3
REMARK    3  A    between atoms: CA_2  and  C_26
REMARK    4  A    between atoms: C_4  and  C_6
REMARK    5  A    between atoms: C_9  and  N_10
REMARK    6  A    between atoms: N_10  and  C_11
REMARK    7  A    between atoms: C_11  and  C_12
REMARK    8  A    between atoms: C_26  and  OXT_28
REMARK                            x       y       z     vdW  Elec       q    Type
REMARK                         _______ _______ _______ _____ _____    ______ ____
ROOT
ATOM      1  N   UNK A   0       0.769   9.626  19.699  0.00  0.00    +0.000 N 
ATOM      2  H   UNK A   0       1.027   9.999  20.610  0.00  0.00    +0.000 HD
ENDROOT
BRANCH   1   6
ATOM      3  C   UNK A   0       3.376   6.530  18.508  0.00  0.00    +0.000 A 
ATOM      4  C   UNK A   0       3.117   7.615  17.670  0.00  0.00    +0.000 A 
ATOM      5  C   UNK A   0       2.235   8.619  18.081  0.00  0.00    +0.000 A 
ATOM      6  C   UNK A   0       1.565   8.547  19.312  0.00  0.00    +0.000 A 
ATOM      7  C   UNK A   0       1.842   7.454  20.142  0.00  0.00    +0.000 A 
ATOM      8  C   UNK A   0       2.723   6.442  19.740  0.00  0.00    +0.000 A 
BRANCH   3  10
ATOM      9  N   ALA A   1       4.696   5.426  16.797  0.00  0.00    +0.000 N 
ATOM     10  C   UNK A   0       4.335   5.464  18.124  0.00  0.00    +0.000 C 
ATOM     11  O   UNK A   0       4.788   4.697  18.966  0.00  0.00    +0.000 OA
ATOM     12  H   ALA A   1       4.408   6.160  16.157  0.00  0.00    +0.000 HD
BRANCH   9  14
ATOM     13  CB  ALA A   1       5.490   4.292  14.776  0.00  0.00    +0.000 C 
ATOM     14  CA  ALA A   1       5.629   4.433  16.284  0.00  0.00    +0.000 C 
BRANCH  14  15
ATOM     15  C   ALA A   1       7.056   4.865  16.627  0.00  0.00    +0.000 C 
ATOM     16  O   ALA A   1       7.665   5.746  16.031  0.00  0.00    +0.000 OA
BRANCH  15  17
ATOM     17  OXT ALA A   1       7.612   4.159  17.641  0.00  0.00    +0.000 OA
ATOM     18  HXT ALA A   1       8.554   3.938  17.507  0.00  0.00    +0.000 HD
ENDBRANCH  15  17
ENDBRANCH  14  15
ENDBRANCH   9  14
ENDBRANCH   3  10
ENDBRANCH   1   6
BRANCH   1  19
ATOM     19  C   UNK A   0       0.454  10.692  18.748  0.00  0.00    +0.000 C 
BRANCH  19  20
ATOM     20  C   UNK A   0      -1.014  10.727  18.392  0.00  0.00    +0.000 A 
ATOM     21  C   UNK A   0      -1.553   9.965  17.374  0.00  0.00    +0.000 A 
ATOM     22  N   UNK A   0      -2.864  10.019  17.022  0.00  0.00    +0.000 NA
ATOM     23  C   UNK A   0      -3.659  10.869  17.681  0.00  0.00    +0.000 A 
ATOM     24  N   UNK A   0      -4.940  10.917  17.331  0.00  0.00    +0.000 NA
ATOM     25  C   UNK A   0      -5.724  11.777  17.971  0.00  0.00    +0.000 A 
ATOM     26  N   UNK A   0      -7.044  11.845  17.585  0.00  0.00    +0.000 N 
ATOM     27  N   UNK A   0      -5.334  12.564  18.971  0.00  0.00    +0.000 NA
ATOM     28  C   UNK A   0      -4.038  12.500  19.309  0.00  0.00    +0.000 A 
ATOM     29  N   UNK A   0      -3.618  13.421  20.285  0.00  0.00    +0.000 N 
ATOM     30  C   UNK A   0      -3.113  11.660  18.700  0.00  0.00    +0.000 A 
ATOM     31  N   UNK A   0      -1.799  11.596  19.073  0.00  0.00    +0.000 NA
ATOM     32  H   UNK A   0      -7.329  11.001  17.109  0.00  0.00    +0.000 HD
ATOM     33  H   UNK A   0      -7.630  12.198  18.326  0.00  0.00    +0.000 HD
ATOM     34  H   UNK A   0      -4.426  13.854  20.721  0.00  0.00    +0.000 HD
ATOM     35  H   UNK A   0      -2.943  13.015  20.923  0.00  0.00    +0.000 HD
ENDBRANCH  19  20
ENDBRANCH   1  19
TORSDOF 7
ENDMDL
MODEL 8
REMARK VINA RESULT:      -8.1      5.673     10.797
REMARK  Name = 
REMARK  8 active torsions:
REMARK  status: ('A' for Active; 'I' for Inactive)
REMARK    1  A    between atoms: CB_1  and  CA_2
REMARK    2  A    between atoms: CA_2  and  N_3
REMARK    3  A    between atoms: CA_2  and  C_26
REMARK    4  A    between atoms: C_4  and  C_6
REMARK    5  A    between atoms: C_9  and  N_10
REMARK    6  A    between atoms: N_10  and  C_11
REMARK    7  A    between atoms: C_11  and  C_12
REMARK    8  A    between atoms: C_26  and  OXT_28
REMARK                            x       y       z     vdW  Elec       q    Type
REMARK                         _______ _______ _______ _____ _____    ______ ____
ROOT
ATOM      1  N   UNK A   0       0.746  10.082  19.746  0.00  0.00    +0.000 N 
ATOM      2  H   UNK A   0       0.999  10.406  20.676  0.00  0.00    +0.000 HD
ENDROOT
BRANCH   1   6
ATOM      3  C   UNK A   0       2.978   6.749  18.441  0.00  0.00    +0.000 A 
ATOM      4  C   UNK A   0       2.470   6.811  19.739  0.00  0.00    +0.000 A 
ATOM      5  C   UNK A   0       1.749   7.935  20.152  0.00  0.00    +0.000 A 
ATOM      6  C   UNK A   0       1.551   9.032  19.301  0.00  0.00    +0.000 A 
ATOM      7  C   UNK A   0       2.064   8.949  18.000  0.00  0.00    +0.000 A 
ATOM      8  C   UNK A   0       2.788   7.828  17.576  0.00  0.00    +0.000 A 
BRANCH   3  10
ATOM      9  N   ALA A   1       4.862   5.807  17.234  0.00  0.00    +0.000 N 
ATOM     10  C   UNK A   0       3.716   5.556  17.953  0.00  0.00    +0.000 C 
ATOM     11  O   UNK A   0       3.321   4.426  18.215  0.00  0.00    +0.000 OA
ATOM     12  H   ALA A   1       5.231   6.750  17.154  0.00  0.00    +0.000 HD
BRANCH   9  14
ATOM     13  CB  ALA A   1       5.279   4.410  15.266  0.00  0.00    +0.000 C 
ATOM     14  CA  ALA A   1       5.682   4.730  16.696  0.00  0.00    +0.000 C 
BRANCH  14  15
ATOM     15  C   ALA A   1       7.151   5.158  16.730  0.00  0.00    +0.000 C 
ATOM     16  O   ALA A   1       7.547   6.266  16.391  0.00  0.00    +0.000 OA
BRANCH  15  17
ATOM     17  OXT ALA A   1       7.995   4.182  17.141  0.00  0.00    +0.000 OA
ATOM     18  HXT ALA A   1       8.920   4.304  16.856  0.00  0.00    +0.000 HD
ENDBRANCH  15  17
ENDBRANCH  14  15
ENDBRANCH   9  14
ENDBRANCH   3  10
ENDBRANCH   1   6
BRANCH   1  19
ATOM     19  C   UNK A   0       0.421  11.195  18.854  0.00  0.00    +0.000 C 
BRANCH  19  20
ATOM     20  C   UNK A   0      -1.052  11.526  18.861  0.00  0.00    +0.000 A 
ATOM     21  C   UNK A   0      -1.697  12.031  19.973  0.00  0.00    +0.000 A 
ATOM     22  N   UNK A   0      -3.030  12.295  20.001  0.00  0.00    +0.000 NA
ATOM     23  C   UNK A   0      -3.748  12.031  18.904  0.00  0.00    +0.000 A 
ATOM     24  N   UNK A   0      -5.051  12.291  18.939  0.00  0.00    +0.000 NA
ATOM     25  C   UNK A   0      -5.766  12.008  17.856  0.00  0.00    +0.000 A 
ATOM     26  N   UNK A   0      -7.121  12.250  17.907  0.00  0.00    +0.000 N 
ATOM     27  N   UNK A   0      -5.270  11.523  16.720  0.00  0.00    +0.000 NA
ATOM     28  C   UNK A   0      -3.954  11.268  16.706  0.00  0.00    +0.000 A 
ATOM     29  N   UNK A   0      -3.468  10.648  15.542  0.00  0.00    +0.000 N 
ATOM     30  C   UNK A   0      -3.103  11.498  17.781  0.00  0.00    +0.000 A 
ATOM     31  N   UNK A   0      -1.759  11.249  17.739  0.00  0.00    +0.000 NA
ATOM     32  H   UNK A   0      -7.343  12.928  18.622  0.00  0.00    +0.000 HD
ATOM     33  H   UNK A   0      -7.508  12.382  16.985  0.00  0.00    +0.000 HD
ATOM     34  H   UNK A   0      -4.173  10.679  14.813  0.00  0.00    +0.000 HD
ATOM     35  H   UNK A   0      -2.554  11.000  15.279  0.00  0.00    +0.000 HD
ENDBRANCH  19  20
ENDBRANCH   1  19
TORSDOF 7
ENDMDL
MODEL 9
REMARK VINA RESULT:      -8.1      0.805      1.990
REMARK  Name = 
REMARK  8 active torsions:
REMARK  status: ('A' for Active; 'I' for Inactive)
REMARK    1  A    between atoms: CB_1  and  CA_2
REMARK    2  A    between atoms: CA_2  and  N_3
REMARK    3  A    between atoms: CA_2  and  C_26
REMARK    4  A    between atoms: C_4  and  C_6
REMARK    5  A    between atoms: C_9  and  N_10
REMARK    6  A    between atoms: N_10  and  C_11
REMARK    7  A    between atoms: C_11  and  C_12
REMARK    8  A    between atoms: C_26  and  OXT_28
REMARK                            x       y       z     vdW  Elec       q    Type
REMARK                         _______ _______ _______ _____ _____    ______ ____
ROOT
ATOM      1  N   UNK A   0       1.479   8.259  21.462  0.00  0.00    +0.000 N 
ATOM      2  H   UNK A   0       1.314   7.417  22.008  0.00  0.00    +0.000 HD
ENDROOT
BRANCH   1   6
ATOM      3  C   UNK A   0      -1.210  11.367  22.416  0.00  0.00    +0.000 A 
ATOM      4  C   UNK A   0      -0.899  10.374  23.345  0.00  0.00    +0.000 A 
ATOM      5  C   UNK A   0      -0.019   9.345  22.998  0.00  0.00    +0.000 A 
ATOM      6  C   UNK A   0       0.539   9.259  21.713  0.00  0.00    +0.000 A 
ATOM      7  C   UNK A   0       0.219  10.268  20.796  0.00  0.00    +0.000 A 
ATOM      8  C   UNK A   0      -0.661  11.304  21.133  0.00  0.00    +0.000 A 
BRANCH   3  10
ATOM      9  N   ALA A   1      -3.455  12.213  22.781  0.00  0.00    +0.000 N 
ATOM     10  C   UNK A   0      -2.109  12.497  22.759  0.00  0.00    +0.000 C 
ATOM     11  O   UNK A   0      -1.651  13.600  23.032  0.00  0.00    +0.000 OA
ATOM     12  H   ALA A   1      -3.788  11.258  22.684  0.00  0.00    +0.000 HD
BRANCH   9  14
ATOM     13  CB  ALA A   1      -5.236  13.622  21.864  0.00  0.00    +0.000 C 
ATOM     14  CA  ALA A   1      -4.449  13.228  23.103  0.00  0.00    +0.000 C 
BRANCH  14  15
ATOM     15  C   ALA A   1      -5.405  12.671  24.161  0.00  0.00    +0.000 C 
ATOM     16  O   ALA A   1      -6.617  12.844  24.143  0.00  0.00    +0.000 OA
BRANCH  15  17
ATOM     17  OXT ALA A   1      -4.784  11.988  25.153  0.00  0.00    +0.000 OA
ATOM     18  HXT ALA A   1      -5.380  11.436  25.693  0.00  0.00    +0.000 HD
ENDBRANCH  15  17
ENDBRANCH  14  15
ENDBRANCH   9  14
ENDBRANCH   3  10
ENDBRANCH   1   6
BRANCH   1  19
ATOM     19  C   UNK A   0       1.876   7.945  20.089  0.00  0.00    +0.000 C 
BRANCH  19  20
ATOM     20  C   UNK A   0       2.135   6.471  19.890  0.00  0.00    +0.000 A 
ATOM     21  C   UNK A   0       1.686   5.508  20.772  0.00  0.00    +0.000 A 
ATOM     22  N   UNK A   0       1.947   4.184  20.621  0.00  0.00    +0.000 NA
ATOM     23  C   UNK A   0       2.693   3.804  19.579  0.00  0.00    +0.000 A 
ATOM     24  N   UNK A   0       2.945   2.506  19.437  0.00  0.00    +0.000 NA
ATOM     25  C   UNK A   0       3.705   2.132  18.414  0.00  0.00    +0.000 A 
ATOM     26  N   UNK A   0       3.989   0.791  18.288  0.00  0.00    +0.000 N 
ATOM     27  N   UNK A   0       4.197   2.954  17.490  0.00  0.00    +0.000 NA
ATOM     28  C   UNK A   0       3.930   4.259  17.651  0.00  0.00    +0.000 A 
ATOM     29  N   UNK A   0       4.555   5.124  16.735  0.00  0.00    +0.000 N 
ATOM     30  C   UNK A   0       3.170   4.777  18.692  0.00  0.00    +0.000 A 
ATOM     31  N   UNK A   0       2.894   6.110  18.827  0.00  0.00    +0.000 NA
ATOM     32  H   UNK A   0       3.309   0.227  18.779  0.00  0.00    +0.000 HD
ATOM     33  H   UNK A   0       4.215   0.547  17.336  0.00  0.00    +0.000 HD
ATOM     34  H   UNK A   0       4.951   4.588  15.969  0.00  0.00    +0.000 HD
ATOM     35  H   UNK A   0       3.948   5.889  16.464  0.00  0.00    +0.000 HD
ENDBRANCH  19  20
ENDBRANCH   1  19
TORSDOF 7
ENDMDL
