MODEL 1
REMARK VINA RESULT:      -5.8      0.000      0.000
REMARK  Name = 
REMARK  2 active torsions:
REMARK  status: ('A' for Active; 'I' for Inactive)
REMARK    1  A    between atoms: N_1  and  C_2
REMARK    2  A    between atoms: C_4  and  C_6
REMARK                            x       y       z     vdW  Elec       q    Type
REMARK                         _______ _______ _______ _____ _____    ______ ____
ROOT
ATOM      1  C   UNL     1       6.665   4.685  17.444  0.00  0.00    +0.000 C 
ATOM      2  C   UNL     1       6.026   5.620  16.464  0.00  0.00    +0.000 C 
ATOM      3  C   UNL     1       5.512   4.208  16.574  0.00  0.00    +0.000 C 
ATOM      4  F   UNL     1       5.860   3.390  15.500  0.00  0.00    +0.000 F 
ENDROOT
BRANCH   3   5
ATOM      5  C   UNL     1       4.202   3.857  17.234  0.00  0.00    +0.000 A 
ATOM      6  C   UNL     1       3.207   4.812  17.509  0.00  0.00    +0.000 A 
ATOM      7  C   UNL     1       2.003   4.457  18.127  0.00  0.00    +0.000 A 
ATOM      8  C   UNL     1       1.766   3.129  18.471  0.00  0.00    +0.000 A 
ATOM      9 CL   UNL     1       0.285   2.690  19.225  0.00  0.00    +0.000 Cl
ATOM     10  C   UNL     1       2.722   2.156  18.201  0.00  0.00    +0.000 A 
ATOM     11  C   UNL     1       3.926   2.522  17.588  0.00  0.00    +0.000 A 
ENDBRANCH   3   5
BRANCH   1  12
ATOM     12  N   UNL     1       8.041   4.221  17.217  0.00  0.00    +0.000 NA
ATOM     13  H   UNL     1       8.143   3.239  17.467  0.00  0.00    +0.000 HD
ATOM     14  H   UNL     1       8.701   4.740  17.798  0.00  0.00    +0.000 HD
ENDBRANCH   1  12
TORSDOF 2
ENDMDL
MODEL 2
REMARK VINA RESULT:      -5.8      1.532      2.116
REMARK  Name = 
REMARK  2 active torsions:
REMARK  status: ('A' for Active; 'I' for Inactive)
REMARK    1  A    between atoms: N_1  and  C_2
REMARK    2  A    between atoms: C_4  and  C_6
REMARK                            x       y       z     vdW  Elec       q    Type
REMARK                         _______ _______ _______ _____ _____    ______ ____
ROOT
ATOM      1  C   UNL     1       6.732   5.443  16.407  0.00  0.00    +0.000 C 
ATOM      2  C   UNL     1       6.428   6.684  17.188  0.00  0.00    +0.000 C 
ATOM      3  C   UNL     1       5.324   6.019  16.408  0.00  0.00    +0.000 C 
ATOM      4  F   UNL     1       4.948   6.705  15.254  0.00  0.00    +0.000 F 
ENDROOT
BRANCH   3   5
ATOM      5  C   UNL     1       4.217   5.227  17.059  0.00  0.00    +0.000 A 
ATOM      6  C   UNL     1       4.036   3.850  16.839  0.00  0.00    +0.000 A 
ATOM      7  C   UNL     1       2.997   3.141  17.454  0.00  0.00    +0.000 A 
ATOM      8  C   UNL     1       2.125   3.801  18.316  0.00  0.00    +0.000 A 
ATOM      9 CL   UNL     1       0.851   2.931  19.076  0.00  0.00    +0.000 Cl
ATOM     10  C   UNL     1       2.284   5.159  18.568  0.00  0.00    +0.000 A 
ATOM     11  C   UNL     1       3.322   5.860  17.943  0.00  0.00    +0.000 A 
ENDBRANCH   3   5
BRANCH   1  12
ATOM     12  N   UNL     1       7.593   5.523  15.218  0.00  0.00    +0.000 NA
ATOM     13  H   UNL     1       7.243   6.216  14.558  0.00  0.00    +0.000 HD
ATOM     14  H   UNL     1       7.611   4.631  14.721  0.00  0.00    +0.000 HD
ENDBRANCH   1  12
TORSDOF 2
ENDMDL
MODEL 3
REMARK VINA RESULT:      -5.8      1.533      1.687
REMARK  Name = 
REMARK  2 active torsions:
REMARK  status: ('A' for Active; 'I' for Inactive)
REMARK    1  A    between atoms: N_1  and  C_2
REMARK    2  A    between atoms: C_4  and  C_6
REMARK                            x       y       z     vdW  Elec       q    Type
REMARK                         _______ _______ _______ _____ _____    ______ ____
ROOT
ATOM      1  C   UNL     1       6.743   5.453  16.417  0.00  0.00    +0.000 C 
ATOM      2  C   UNL     1       6.456   6.713  17.174  0.00  0.00    +0.000 C 
ATOM      3  C   UNL     1       5.343   6.049  16.407  0.00  0.00    +0.000 C 
ATOM      4  F   UNL     1       4.976   6.718  15.240  0.00  0.00    +0.000 F 
ENDROOT
BRANCH   3   5
ATOM      5  C   UNL     1       4.226   5.284  17.073  0.00  0.00    +0.000 A 
ATOM      6  C   UNL     1       3.298   5.890  17.939  0.00  0.00    +0.000 A 
ATOM      7  C   UNL     1       2.274   5.155  18.546  0.00  0.00    +0.000 A 
ATOM      8  C   UNL     1       2.151   3.793  18.283  0.00  0.00    +0.000 A 
ATOM      9 CL   UNL     1       0.889   2.889  19.023  0.00  0.00    +0.000 Cl
ATOM     10  C   UNL     1       3.041   3.164  17.419  0.00  0.00    +0.000 A 
ATOM     11  C   UNL     1       4.065   3.907  16.823  0.00  0.00    +0.000 A 
ENDBRANCH   3   5
BRANCH   1  12
ATOM     12  N   UNL     1       7.604   5.499  15.227  0.00  0.00    +0.000 NA
ATOM     13  H   UNL     1       7.621   6.433  14.822  0.00  0.00    +0.000 HD
ATOM     14  H   UNL     1       7.254   4.873  14.499  0.00  0.00    +0.000 HD
ENDBRANCH   1  12
TORSDOF 2
ENDMDL
MODEL 4
REMARK VINA RESULT:      -5.7      3.999      5.325
REMARK  Name = 
REMARK  2 active torsions:
REMARK  status: ('A' for Active; 'I' for Inactive)
REMARK    1  A    between atoms: N_1  and  C_2
REMARK    2  A    between atoms: C_4  and  C_6
REMARK                            x       y       z     vdW  Elec       q    Type
REMARK                         _______ _______ _______ _____ _____    ______ ____
ROOT
ATOM      1  C   UNL     1       1.913   2.689  20.579  0.00  0.00    +0.000 C 
ATOM      2  C   UNL     1       0.779   2.696  19.600  0.00  0.00    +0.000 C 
ATOM      3  C   UNL     1       1.566   3.962  19.820  0.00  0.00    +0.000 C 
ATOM      4  F   UNL     1       0.886   4.937  20.549  0.00  0.00    +0.000 F 
ENDROOT
BRANCH   3   5
ATOM      5  C   UNL     1       2.557   4.501  18.819  0.00  0.00    +0.000 A 
ATOM      6  C   UNL     1       3.116   3.710  17.799  0.00  0.00    +0.000 A 
ATOM      7  C   UNL     1       4.037   4.236  16.886  0.00  0.00    +0.000 A 
ATOM      8  C   UNL     1       4.404   5.577  16.969  0.00  0.00    +0.000 A 
ATOM      9 CL   UNL     1       5.531   6.227  15.844  0.00  0.00    +0.000 Cl
ATOM     10  C   UNL     1       3.859   6.392  17.955  0.00  0.00    +0.000 A 
ATOM     11  C   UNL     1       2.945   5.854  18.867  0.00  0.00    +0.000 A 
ENDBRANCH   3   5
BRANCH   1  12
ATOM     12  N   UNL     1       1.634   2.552  22.015  0.00  0.00    +0.000 NA
ATOM     13  H   UNL     1       1.999   3.347  22.537  0.00  0.00    +0.000 HD
ATOM     14  H   UNL     1       2.087   1.721  22.397  0.00  0.00    +0.000 HD
ENDBRANCH   1  12
TORSDOF 2
ENDMDL
MODEL 5
REMARK VINA RESULT:      -5.7      1.764      2.234
REMARK  Name = 
REMARK  2 active torsions:
REMARK  status: ('A' for Active; 'I' for Inactive)
REMARK    1  A    between atoms: N_1  and  C_2
REMARK    2  A    between atoms: C_4  and  C_6
REMARK                            x       y       z     vdW  Elec       q    Type
REMARK                         _______ _______ _______ _____ _____    ______ ____
ROOT
ATOM      1  C   UNL     1       6.921   4.570  16.339  0.00  0.00    +0.000 C 
ATOM      2  C   UNL     1       7.569   4.611  17.688  0.00  0.00    +0.000 C 
ATOM      3  C   UNL     1       6.249   5.309  17.487  0.00  0.00    +0.000 C 
ATOM      4  F   UNL     1       6.339   6.700  17.449  0.00  0.00    +0.000 F 
ENDROOT
BRANCH   3   5
ATOM      5  C   UNL     1       4.945   4.776  18.026  0.00  0.00    +0.000 A 
ATOM      6  C   UNL     1       4.880   3.826  19.061  0.00  0.00    +0.000 A 
ATOM      7  C   UNL     1       3.655   3.346  19.539  0.00  0.00    +0.000 A 
ATOM      8  C   UNL     1       2.466   3.825  18.996  0.00  0.00    +0.000 A 
ATOM      9 CL   UNL     1       0.960   3.241  19.585  0.00  0.00    +0.000 Cl
ATOM     10  C   UNL     1       2.492   4.776  17.982  0.00  0.00    +0.000 A 
ATOM     11  C   UNL     1       3.722   5.244  17.507  0.00  0.00    +0.000 A 
ENDBRANCH   3   5
BRANCH   1  12
ATOM     12  N   UNL     1       7.533   5.293  15.215  0.00  0.00    +0.000 NA
ATOM     13  H   UNL     1       8.482   4.967  15.042  0.00  0.00    +0.000 HD
ATOM     14  H   UNL     1       7.601   6.292  15.418  0.00  0.00    +0.000 HD
ENDBRANCH   1  12
TORSDOF 2
ENDMDL
MODEL 6
REMARK VINA RESULT:      -5.6      3.801      5.155
REMARK  Name = 
REMARK  2 active torsions:
REMARK  status: ('A' for Active; 'I' for Inactive)
REMARK    1  A    between atoms: N_1  and  C_2
REMARK    2  A    between atoms: C_4  and  C_6
REMARK                            x       y       z     vdW  Elec       q    Type
REMARK                         _______ _______ _______ _____ _____    ______ ____
ROOT
ATOM      1  C   UNL     1       1.813   3.253  19.350  0.00  0.00    +0.000 C 
ATOM      2  C   UNL     1       1.935   2.374  18.144  0.00  0.00    +0.000 C 
ATOM      3  C   UNL     1       2.076   3.865  17.981  0.00  0.00    +0.000 C 
ATOM      4  F   UNL     1       0.984   4.478  17.370  0.00  0.00    +0.000 F 
ENDROOT
BRANCH   3   5
ATOM      5  C   UNL     1       3.400   4.544  17.734  0.00  0.00    +0.000 A 
ATOM      6  C   UNL     1       4.567   3.838  17.391  0.00  0.00    +0.000 A 
ATOM      7  C   UNL     1       5.783   4.496  17.172  0.00  0.00    +0.000 A 
ATOM      8  C   UNL     1       5.848   5.882  17.278  0.00  0.00    +0.000 A 
ATOM      9 CL   UNL     1       7.340   6.693  17.004  0.00  0.00    +0.000 Cl
ATOM     10  C   UNL     1       4.710   6.614  17.601  0.00  0.00    +0.000 A 
ATOM     11  C   UNL     1       3.502   5.947  17.825  0.00  0.00    +0.000 A 
ENDBRANCH   3   5
BRANCH   1  12
ATOM     12  N   UNL     1       0.511   3.398  20.017  0.00  0.00    +0.000 NA
ATOM     13  H   UNL     1      -0.254   3.328  19.347  0.00  0.00    +0.000 HD
ATOM     14  H   UNL     1       0.428   4.315  20.458  0.00  0.00    +0.000 HD
ENDBRANCH   1  12
TORSDOF 2
ENDMDL
MODEL 7
REMARK VINA RESULT:      -5.6      1.900      2.017
REMARK  Name = 
REMARK  2 active torsions:
REMARK  status: ('A' for Active; 'I' for Inactive)
REMARK    1  A    between atoms: N_1  and  C_2
REMARK    2  A    between atoms: C_4  and  C_6
REMARK                            x       y       z     vdW  Elec       q    Type
REMARK                         _______ _______ _______ _____ _____    ______ ____
ROOT
ATOM      1  C   UNL     1       6.891   4.607  16.353  0.00  0.00    +0.000 C 
ATOM      2  C   UNL     1       7.564   4.647  17.690  0.00  0.00    +0.000 C 
ATOM      3  C   UNL     1       6.287   5.421  17.487  0.00  0.00    +0.000 C 
ATOM      4  F   UNL     1       6.465   6.802  17.405  0.00  0.00    +0.000 F 
ENDROOT
BRANCH   3   5
ATOM      5  C   UNL     1       4.962   4.990  18.064  0.00  0.00    +0.000 A 
ATOM      6  C   UNL     1       3.730   5.466  17.581  0.00  0.00    +0.000 A 
ATOM      7  C   UNL     1       2.515   5.051  18.138  0.00  0.00    +0.000 A 
ATOM      8  C   UNL     1       2.512   4.134  19.186  0.00  0.00    +0.000 A 
ATOM      9 CL   UNL     1       1.021   3.619  19.869  0.00  0.00    +0.000 Cl
ATOM     10  C   UNL     1       3.712   3.631  19.679  0.00  0.00    +0.000 A 
ATOM     11  C   UNL     1       4.921   4.058  19.119  0.00  0.00    +0.000 A 
ENDBRANCH   3   5
BRANCH   1  12
ATOM     12  N   UNL     1       7.528   5.256  15.197  0.00  0.00    +0.000 NA
ATOM     13  H   UNL     1       8.492   5.508  15.404  0.00  0.00    +0.000 HD
ATOM     14  H   UNL     1       7.046   6.123  14.955  0.00  0.00    +0.000 HD
ENDBRANCH   1  12
TORSDOF 2
ENDMDL
MODEL 8
REMARK VINA RESULT:      -5.6      3.802      4.970
REMARK  Name = 
REMARK  2 active torsions:
REMARK  status: ('A' for Active; 'I' for Inactive)
REMARK    1  A    between atoms: N_1  and  C_2
REMARK    2  A    between atoms: C_4  and  C_6
REMARK                            x       y       z     vdW  Elec       q    Type
REMARK                         _______ _______ _______ _____ _____    ______ ____
ROOT
ATOM      1  C   UNL     1       1.810   3.255  19.337  0.00  0.00    +0.000 C 
ATOM      2  C   UNL     1       1.968   2.378  18.134  0.00  0.00    +0.000 C 
ATOM      3  C   UNL     1       2.068   3.872  17.971  0.00  0.00    +0.000 C 
ATOM      4  F   UNL     1       0.964   4.453  17.348  0.00  0.00    +0.000 F 
ENDROOT
BRANCH   3   5
ATOM      5  C   UNL     1       3.373   4.590  17.735  0.00  0.00    +0.000 A 
ATOM      6  C   UNL     1       3.504   5.987  17.833  0.00  0.00    +0.000 A 
ATOM      7  C   UNL     1       4.727   6.626  17.604  0.00  0.00    +0.000 A 
ATOM      8  C   UNL     1       5.853   5.871  17.286  0.00  0.00    +0.000 A 
ATOM      9 CL   UNL     1       7.359   6.654  17.010  0.00  0.00    +0.000 Cl
ATOM     10  C   UNL     1       5.764   4.486  17.195  0.00  0.00    +0.000 A 
ATOM     11  C   UNL     1       4.535   3.858  17.419  0.00  0.00    +0.000 A 
ENDBRANCH   3   5
BRANCH   1  12
ATOM     12  N   UNL     1       0.498   3.363  19.992  0.00  0.00    +0.000 NA
ATOM     13  H   UNL     1       0.024   4.223  19.723  0.00  0.00    +0.000 HD
ATOM     14  H   UNL     1       0.599   3.392  21.008  0.00  0.00    +0.000 HD
ENDBRANCH   1  12
TORSDOF 2
ENDMDL
MODEL 9
REMARK VINA RESULT:      -5.6      4.003      5.172
REMARK  Name = 
REMARK  2 active torsions:
REMARK  status: ('A' for Active; 'I' for Inactive)
REMARK    1  A    between atoms: N_1  and  C_2
REMARK    2  A    between atoms: C_4  and  C_6
REMARK                            x       y       z     vdW  Elec       q    Type
REMARK                         _______ _______ _______ _____ _____    ______ ____
ROOT
ATOM      1  C   UNL     1       1.894   2.729  20.568  0.00  0.00    +0.000 C 
ATOM      2  C   UNL     1       0.748   2.791  19.605  0.00  0.00    +0.000 C 
ATOM      3  C   UNL     1       1.562   4.033  19.857  0.00  0.00    +0.000 C 
ATOM      4  F   UNL     1       0.911   4.995  20.627  0.00  0.00    +0.000 F 
ENDROOT
BRANCH   3   5
ATOM      5  C   UNL     1       2.550   4.585  18.860  0.00  0.00    +0.000 A 
ATOM      6  C   UNL     1       2.922   5.941  18.828  0.00  0.00    +0.000 A 
ATOM      7  C   UNL     1       3.839   6.427  17.888  0.00  0.00    +0.000 A 
ATOM      8  C   UNL     1       4.414   5.555  16.968  0.00  0.00    +0.000 A 
ATOM      9 CL   UNL     1       5.545   6.149  15.817  0.00  0.00    +0.000 Cl
ATOM     10  C   UNL     1       4.081   4.205  16.981  0.00  0.00    +0.000 A 
ATOM     11  C   UNL     1       3.159   3.731  17.920  0.00  0.00    +0.000 A 
ENDBRANCH   3   5
BRANCH   1  12
ATOM     12  N   UNL     1       1.630   2.550  22.003  0.00  0.00    +0.000 NA
ATOM     13  H   UNL     1       1.823   3.405  22.521  0.00  0.00    +0.000 HD
ATOM     14  H   UNL     1       2.236   1.828  22.397  0.00  0.00    +0.000 HD
ENDBRANCH   1  12
TORSDOF 2
ENDMDL
