MODEL 1
REMARK VINA RESULT:      -7.2      0.000      0.000
REMARK  Name = 
REMARK  7 active torsions:
REMARK  status: ('A' for Active; 'I' for Inactive)
REMARK    1  A    between atoms: C_1  and  C_2
REMARK    2  A    between atoms: C_2  and  O_3
REMARK    3  A    between atoms: O_3  and  C_4
REMARK    4  A    between atoms: C_9  and  N_10
REMARK    5  A    between atoms: N_10  and  C_11
REMARK    6  A    between atoms: C_11  and  C_12
REMARK    7  A    between atoms: C_15  and  C_16
REMARK                            x       y       z     vdW  Elec       q    Type
REMARK                         _______ _______ _______ _____ _____    ______ ____
ROOT
ATOM      1  N   UNL     1       4.509   7.075  17.643  0.00  0.00    +0.000 NA
ATOM      2  H   UNL     1       4.685   7.527  18.541  0.00  0.00    +0.000 HD
ENDROOT
BRANCH   1   8
ATOM      3  C   UNL     1       2.420   2.946  18.657  0.00  0.00    +0.000 C 
ATOM      4  O   UNL     1       1.398   3.038  17.980  0.00  0.00    +0.000 OA
ATOM      5  N   UNL     1       3.535   3.709  18.434  0.00  0.00    +0.000 N 
ATOM      6  C   UNL     1       4.748   3.732  19.223  0.00  0.00    +0.000 C 
ATOM      7  C   UNL     1       5.200   5.182  19.146  0.00  0.00    +0.000 C 
ATOM      8  C   UNL     1       4.767   5.634  17.743  0.00  0.00    +0.000 C 
ATOM      9  C   UNL     1       3.497   4.799  17.480  0.00  0.00    +0.000 C 
BRANCH   3  10
ATOM     10  O   UNL     1       2.537   2.157  19.755  0.00  0.00    +0.000 OA
BRANCH  10  12
ATOM     11  C   UNL     1       1.919   3.668  21.499  0.00  0.00    +0.000 C 
ATOM     12  C   UNL     1       1.538   2.397  20.759  0.00  0.00    +0.000 C 
ENDBRANCH  10  12
ENDBRANCH   3  10
ENDBRANCH   1   8
BRANCH   1  13
ATOM     13  C   UNL     1       3.153   7.399  17.206  0.00  0.00    +0.000 C 
BRANCH  13  14
ATOM     14  C   UNL     1       2.366   8.066  18.315  0.00  0.00    +0.000 A 
ATOM     15  C   UNL     1       2.285   7.475  19.586  0.00  0.00    +0.000 A 
ATOM     16  C   UNL     1       1.590   8.106  20.625  0.00  0.00    +0.000 A 
ATOM     17  C   UNL     1       0.966   9.343  20.417  0.00  0.00    +0.000 A 
ATOM     18  C   UNL     1       1.041   9.926  19.144  0.00  0.00    +0.000 A 
ATOM     19  C   UNL     1       1.735   9.297  18.106  0.00  0.00    +0.000 A 
BRANCH  17  20
ATOM     20  C   UNL     1       0.257  10.012  21.504  0.00  0.00    +0.000 A 
ATOM     21  N   UNL     1      -0.707  10.975  21.282  0.00  0.00    +0.000 NA
ATOM     22  C   UNL     1      -1.071  11.288  22.499  0.00  0.00    +0.000 A 
ATOM     23  O   UNL     1      -0.416  10.600  23.465  0.00  0.00    +0.000 OA
ATOM     24  N   UNL     1       0.467   9.747  22.806  0.00  0.00    +0.000 NA
ENDBRANCH  17  20
ENDBRANCH  13  14
ENDBRANCH   1  13
TORSDOF 6
ENDMDL
MODEL 2
REMARK VINA RESULT:      -7.1      0.200      1.024
REMARK  Name = 
REMARK  7 active torsions:
REMARK  status: ('A' for Active; 'I' for Inactive)
REMARK    1  A    between atoms: C_1  and  C_2
REMARK    2  A    between atoms: C_2  and  O_3
REMARK    3  A    between atoms: O_3  and  C_4
REMARK    4  A    between atoms: C_9  and  N_10
REMARK    5  A    between atoms: N_10  and  C_11
REMARK    6  A    between atoms: C_11  and  C_12
REMARK    7  A    between atoms: C_15  and  C_16
REMARK                            x       y       z     vdW  Elec       q    Type
REMARK                         _______ _______ _______ _____ _____    ______ ____
ROOT
ATOM      1  N   UNL     1       4.431   7.157  17.553  0.00  0.00    +0.000 NA
ATOM      2  H   UNL     1       4.677   7.666  18.403  0.00  0.00    +0.000 HD
ENDROOT
BRANCH   1   8
ATOM      3  C   UNL     1       2.498   2.953  18.567  0.00  0.00    +0.000 C 
ATOM      4  O   UNL     1       1.508   2.978  17.838  0.00  0.00    +0.000 OA
ATOM      5  N   UNL     1       3.584   3.766  18.381  0.00  0.00    +0.000 N 
ATOM      6  C   UNL     1       4.752   3.869  19.229  0.00  0.00    +0.000 C 
ATOM      7  C   UNL     1       5.135   5.338  19.138  0.00  0.00    +0.000 C 
ATOM      8  C   UNL     1       4.754   5.734  17.703  0.00  0.00    +0.000 C 
ATOM      9  C   UNL     1       3.541   4.830  17.398  0.00  0.00    +0.000 C 
BRANCH   3  10
ATOM     10  O   UNL     1       2.596   2.197  19.690  0.00  0.00    +0.000 OA
BRANCH  10  12
ATOM     11  C   UNL     1       2.049   3.553  21.579  0.00  0.00    +0.000 C 
ATOM     12  C   UNL     1       1.565   2.447  20.657  0.00  0.00    +0.000 C 
ENDBRANCH  10  12
ENDBRANCH   3  10
ENDBRANCH   1   8
BRANCH   1  13
ATOM     13  C   UNL     1       3.027   7.410  17.239  0.00  0.00    +0.000 C 
BRANCH  13  14
ATOM     14  C   UNL     1       2.317   8.076  18.399  0.00  0.00    +0.000 A 
ATOM     15  C   UNL     1       1.715   9.334  18.238  0.00  0.00    +0.000 A 
ATOM     16  C   UNL     1       1.026   9.939  19.296  0.00  0.00    +0.000 A 
ATOM     17  C   UNL     1       0.919   9.296  20.536  0.00  0.00    +0.000 A 
ATOM     18  C   UNL     1       1.529   8.044  20.698  0.00  0.00    +0.000 A 
ATOM     19  C   UNL     1       2.218   7.440  19.641  0.00  0.00    +0.000 A 
BRANCH  17  20
ATOM     20  C   UNL     1       0.185   9.916  21.635  0.00  0.00    +0.000 A 
ATOM     21  N   UNL     1      -0.509  11.101  21.491  0.00  0.00    +0.000 NA
ATOM     22  C   UNL     1      -1.007  11.277  22.689  0.00  0.00    +0.000 A 
ATOM     23  O   UNL     1      -0.684  10.300  23.569  0.00  0.00    +0.000 OA
ATOM     24  N   UNL     1       0.107   9.391  22.871  0.00  0.00    +0.000 NA
ENDBRANCH  17  20
ENDBRANCH  13  14
ENDBRANCH   1  13
TORSDOF 6
ENDMDL
MODEL 3
REMARK VINA RESULT:      -7.0      3.115      7.967
REMARK  Name = 
REMARK  7 active torsions:
REMARK  status: ('A' for Active; 'I' for Inactive)
REMARK    1  A    between atoms: C_1  and  C_2
REMARK    2  A    between atoms: C_2  and  O_3
REMARK    3  A    between atoms: O_3  and  C_4
REMARK    4  A    between atoms: C_9  and  N_10
REMARK    5  A    between atoms: N_10  and  C_11
REMARK    6  A    between atoms: C_11  and  C_12
REMARK    7  A    between atoms: C_15  and  C_16
REMARK                            x       y       z     vdW  Elec       q    Type
REMARK                         _______ _______ _______ _____ _____    ______ ____
ROOT
ATOM      1  N   UNL     1       1.957   5.716  20.069  0.00  0.00    +0.000 NA
ATOM      2  H   UNL     1       1.372   5.670  20.904  0.00  0.00    +0.000 HD
ENDROOT
BRANCH   1   8
ATOM      3  C   UNL     1       0.213  10.118  19.939  0.00  0.00    +0.000 C 
ATOM      4  O   UNL     1      -0.375  10.160  21.018  0.00  0.00    +0.000 OA
ATOM      5  N   UNL     1       1.187   9.200  19.654  0.00  0.00    +0.000 N 
ATOM      6  C   UNL     1       1.873   9.019  18.393  0.00  0.00    +0.000 C 
ATOM      7  C   UNL     1       2.109   7.518  18.323  0.00  0.00    +0.000 C 
ATOM      8  C   UNL     1       2.329   7.107  19.788  0.00  0.00    +0.000 C 
ATOM      9  C   UNL     1       1.455   8.110  20.570  0.00  0.00    +0.000 C 
BRANCH   3  10
ATOM     10  O   UNL     1      -0.095  10.901  18.874  0.00  0.00    +0.000 OA
BRANCH  10  12
ATOM     11  C   UNL     1      -1.698   9.972  17.366  0.00  0.00    +0.000 C 
ATOM     12  C   UNL     1      -1.492  10.915  18.539  0.00  0.00    +0.000 C 
ENDBRANCH  10  12
ENDBRANCH   3  10
ENDBRANCH   1   8
BRANCH   1  13
ATOM     13  C   UNL     1       3.104   4.827  20.245  0.00  0.00    +0.000 C 
BRANCH  13  14
ATOM     14  C   UNL     1       3.976   4.808  19.007  0.00  0.00    +0.000 A 
ATOM     15  C   UNL     1       3.527   4.191  17.828  0.00  0.00    +0.000 A 
ATOM     16  C   UNL     1       4.313   4.203  16.670  0.00  0.00    +0.000 A 
ATOM     17  C   UNL     1       5.563   4.836  16.664  0.00  0.00    +0.000 A 
ATOM     18  C   UNL     1       6.013   5.443  17.844  0.00  0.00    +0.000 A 
ATOM     19  C   UNL     1       5.228   5.433  19.002  0.00  0.00    +0.000 A 
BRANCH  17  20
ATOM     20  C   UNL     1       6.376   4.866  15.452  0.00  0.00    +0.000 A 
ATOM     21  N   UNL     1       6.093   4.088  14.347  0.00  0.00    +0.000 NA
ATOM     22  C   UNL     1       7.045   4.429  13.517  0.00  0.00    +0.000 A 
ATOM     23  O   UNL     1       7.900   5.358  14.009  0.00  0.00    +0.000 OA
ATOM     24  N   UNL     1       7.455   5.653  15.296  0.00  0.00    +0.000 NA
ENDBRANCH  17  20
ENDBRANCH  13  14
ENDBRANCH   1  13
TORSDOF 6
ENDMDL
MODEL 4
REMARK VINA RESULT:      -6.9      3.138      4.313
REMARK  Name = 
REMARK  7 active torsions:
REMARK  status: ('A' for Active; 'I' for Inactive)
REMARK    1  A    between atoms: C_1  and  C_2
REMARK    2  A    between atoms: C_2  and  O_3
REMARK    3  A    between atoms: O_3  and  C_4
REMARK    4  A    between atoms: C_9  and  N_10
REMARK    5  A    between atoms: N_10  and  C_11
REMARK    6  A    between atoms: C_11  and  C_12
REMARK    7  A    between atoms: C_15  and  C_16
REMARK                            x       y       z     vdW  Elec       q    Type
REMARK                         _______ _______ _______ _____ _____    ______ ____
ROOT
ATOM      1  N   UNL     1       3.809   6.028  19.761  0.00  0.00    +0.000 NA
ATOM      2  H   UNL     1       4.225   6.147  20.685  0.00  0.00    +0.000 HD
ENDROOT
BRANCH   1   8
ATOM      3  C   UNL     1       6.540   4.187  16.356  0.00  0.00    +0.000 C 
ATOM      4  O   UNL     1       7.581   4.817  16.536  0.00  0.00    +0.000 OA
ATOM      5  N   UNL     1       5.560   4.076  17.305  0.00  0.00    +0.000 N 
ATOM      6  C   UNL     1       4.273   3.431  17.159  0.00  0.00    +0.000 C 
ATOM      7  C   UNL     1       3.345   4.280  18.015  0.00  0.00    +0.000 C 
ATOM      8  C   UNL     1       4.237   4.753  19.174  0.00  0.00    +0.000 C 
ATOM      9  C   UNL     1       5.633   4.852  18.526  0.00  0.00    +0.000 C 
BRANCH   3  10
ATOM     10  O   UNL     1       6.193   3.613  15.176  0.00  0.00    +0.000 OA
BRANCH  10  12
ATOM     11  C   UNL     1       6.211   3.592  12.787  0.00  0.00    +0.000 C 
ATOM     12  C   UNL     1       6.430   4.442  14.028  0.00  0.00    +0.000 C 
ENDBRANCH  10  12
ENDBRANCH   3  10
ENDBRANCH   1   8
BRANCH   1  13
ATOM     13  C   UNL     1       2.359   6.164  19.872  0.00  0.00    +0.000 C 
BRANCH  13  14
ATOM     14  C   UNL     1       1.919   7.584  19.581  0.00  0.00    +0.000 A 
ATOM     15  C   UNL     1       1.279   8.348  20.570  0.00  0.00    +0.000 A 
ATOM     16  C   UNL     1       0.903   9.673  20.319  0.00  0.00    +0.000 A 
ATOM     17  C   UNL     1       1.164  10.264  19.075  0.00  0.00    +0.000 A 
ATOM     18  C   UNL     1       1.795   9.496  18.087  0.00  0.00    +0.000 A 
ATOM     19  C   UNL     1       2.171   8.172  18.337  0.00  0.00    +0.000 A 
BRANCH  17  20
ATOM     20  C   UNL     1       0.791  11.652  18.817  0.00  0.00    +0.000 A 
ATOM     21  N   UNL     1      -0.524  12.067  18.743  0.00  0.00    +0.000 NA
ATOM     22  C   UNL     1      -0.397  13.348  18.511  0.00  0.00    +0.000 A 
ATOM     23  O   UNL     1       0.888  13.770  18.435  0.00  0.00    +0.000 OA
ATOM     24  N   UNL     1       1.681  12.644  18.641  0.00  0.00    +0.000 NA
ENDBRANCH  17  20
ENDBRANCH  13  14
ENDBRANCH   1  13
TORSDOF 6
ENDMDL
MODEL 5
REMARK VINA RESULT:      -6.8      3.111      4.370
REMARK  Name = 
REMARK  7 active torsions:
REMARK  status: ('A' for Active; 'I' for Inactive)
REMARK    1  A    between atoms: C_1  and  C_2
REMARK    2  A    between atoms: C_2  and  O_3
REMARK    3  A    between atoms: O_3  and  C_4
REMARK    4  A    between atoms: C_9  and  N_10
REMARK    5  A    between atoms: N_10  and  C_11
REMARK    6  A    between atoms: C_11  and  C_12
REMARK    7  A    between atoms: C_15  and  C_16
REMARK                            x       y       z     vdW  Elec       q    Type
REMARK                         _______ _______ _______ _____ _____    ______ ____
ROOT
ATOM      1  N   UNL     1       4.156   5.837  19.738  0.00  0.00    +0.000 NA
ATOM      2  H   UNL     1       4.477   5.736  20.701  0.00  0.00    +0.000 HD
ENDROOT
BRANCH   1   8
ATOM      3  C   UNL     1       5.871   5.018  15.398  0.00  0.00    +0.000 C 
ATOM      4  O   UNL     1       6.622   5.983  15.267  0.00  0.00    +0.000 OA
ATOM      5  N   UNL     1       5.416   4.586  16.615  0.00  0.00    +0.000 N 
ATOM      6  C   UNL     1       4.469   3.520  16.864  0.00  0.00    +0.000 C 
ATOM      7  C   UNL     1       3.699   4.000  18.084  0.00  0.00    +0.000 C 
ATOM      8  C   UNL     1       4.739   4.787  18.896  0.00  0.00    +0.000 C 
ATOM      9  C   UNL     1       5.670   5.364  17.810  0.00  0.00    +0.000 C 
BRANCH   3  10
ATOM     10  O   UNL     1       5.326   4.332  14.362  0.00  0.00    +0.000 OA
BRANCH  10  12
ATOM     11  C   UNL     1       5.527   3.230  12.252  0.00  0.00    +0.000 C 
ATOM     12  C   UNL     1       6.288   3.816  13.429  0.00  0.00    +0.000 C 
ENDBRANCH  10  12
ENDBRANCH   3  10
ENDBRANCH   1   8
BRANCH   1  13
ATOM     13  C   UNL     1       2.695   5.854  19.724  0.00  0.00    +0.000 C 
BRANCH  13  14
ATOM     14  C   UNL     1       2.166   7.258  19.514  0.00  0.00    +0.000 A 
ATOM     15  C   UNL     1       2.203   7.850  18.242  0.00  0.00    +0.000 A 
ATOM     16  C   UNL     1       1.681   9.132  18.034  0.00  0.00    +0.000 A 
ATOM     17  C   UNL     1       1.106   9.848  19.092  0.00  0.00    +0.000 A 
ATOM     18  C   UNL     1       1.079   9.258  20.364  0.00  0.00    +0.000 A 
ATOM     19  C   UNL     1       1.599   7.977  20.572  0.00  0.00    +0.000 A 
BRANCH  17  20
ATOM     20  C   UNL     1       0.544  11.177  18.874  0.00  0.00    +0.000 A 
ATOM     21  N   UNL     1      -0.722  11.373  18.358  0.00  0.00    +0.000 NA
ATOM     22  C   UNL     1      -0.813  12.679  18.339  0.00  0.00    +0.000 A 
ATOM     23  O   UNL     1       0.289  13.316  18.801  0.00  0.00    +0.000 OA
ATOM     24  N   UNL     1       1.193  12.319  19.160  0.00  0.00    +0.000 NA
ENDBRANCH  17  20
ENDBRANCH  13  14
ENDBRANCH   1  13
TORSDOF 6
ENDMDL
MODEL 6
REMARK VINA RESULT:      -6.8      2.556      3.831
REMARK  Name = 
REMARK  7 active torsions:
REMARK  status: ('A' for Active; 'I' for Inactive)
REMARK    1  A    between atoms: C_1  and  C_2
REMARK    2  A    between atoms: C_2  and  O_3
REMARK    3  A    between atoms: O_3  and  C_4
REMARK    4  A    between atoms: C_9  and  N_10
REMARK    5  A    between atoms: N_10  and  C_11
REMARK    6  A    between atoms: C_11  and  C_12
REMARK    7  A    between atoms: C_15  and  C_16
REMARK                            x       y       z     vdW  Elec       q    Type
REMARK                         _______ _______ _______ _____ _____    ______ ____
ROOT
ATOM      1  N   UNL     1       3.388   5.909  20.026  0.00  0.00    +0.000 NA
ATOM      2  H   UNL     1       2.705   5.649  20.738  0.00  0.00    +0.000 HD
ENDROOT
BRANCH   1   8
ATOM      3  C   UNL     1       6.793   4.488  17.055  0.00  0.00    +0.000 C 
ATOM      4  O   UNL     1       7.732   5.183  17.439  0.00  0.00    +0.000 OA
ATOM      5  N   UNL     1       5.682   4.246  17.817  0.00  0.00    +0.000 N 
ATOM      6  C   UNL     1       4.497   3.516  17.424  0.00  0.00    +0.000 C 
ATOM      7  C   UNL     1       3.371   4.238  18.148  0.00  0.00    +0.000 C 
ATOM      8  C   UNL     1       4.014   4.707  19.463  0.00  0.00    +0.000 C 
ATOM      9  C   UNL     1       5.485   4.951  19.068  0.00  0.00    +0.000 C 
BRANCH   3  10
ATOM     10  O   UNL     1       6.697   3.962  15.808  0.00  0.00    +0.000 OA
BRANCH  10  12
ATOM     11  C   UNL     1       5.764   4.082  13.612  0.00  0.00    +0.000 C 
ATOM     12  C   UNL     1       6.230   4.887  14.814  0.00  0.00    +0.000 C 
ENDBRANCH  10  12
ENDBRANCH   3  10
ENDBRANCH   1   8
BRANCH   1  13
ATOM     13  C   UNL     1       2.735   6.753  19.028  0.00  0.00    +0.000 C 
BRANCH  13  14
ATOM     14  C   UNL     1       1.928   7.853  19.685  0.00  0.00    +0.000 A 
ATOM     15  C   UNL     1       1.528   8.979  18.948  0.00  0.00    +0.000 A 
ATOM     16  C   UNL     1       0.750   9.982  19.540  0.00  0.00    +0.000 A 
ATOM     17  C   UNL     1       0.352   9.878  20.879  0.00  0.00    +0.000 A 
ATOM     18  C   UNL     1       0.760   8.757  21.615  0.00  0.00    +0.000 A 
ATOM     19  C   UNL     1       1.537   7.754  21.025  0.00  0.00    +0.000 A 
BRANCH  17  20
ATOM     20  C   UNL     1      -0.476  10.912  21.492  0.00  0.00    +0.000 A 
ATOM     21  N   UNL     1      -0.435  11.193  22.843  0.00  0.00    +0.000 NA
ATOM     22  C   UNL     1      -1.306  12.163  22.951  0.00  0.00    +0.000 A 
ATOM     23  O   UNL     1      -1.888  12.515  21.779  0.00  0.00    +0.000 OA
ATOM     24  N   UNL     1      -1.335  11.686  20.805  0.00  0.00    +0.000 NA
ENDBRANCH  17  20
ENDBRANCH  13  14
ENDBRANCH   1  13
TORSDOF 6
ENDMDL
MODEL 7
REMARK VINA RESULT:      -6.8      2.788      3.941
REMARK  Name = 
REMARK  7 active torsions:
REMARK  status: ('A' for Active; 'I' for Inactive)
REMARK    1  A    between atoms: C_1  and  C_2
REMARK    2  A    between atoms: C_2  and  O_3
REMARK    3  A    between atoms: O_3  and  C_4
REMARK    4  A    between atoms: C_9  and  N_10
REMARK    5  A    between atoms: N_10  and  C_11
REMARK    6  A    between atoms: C_11  and  C_12
REMARK    7  A    between atoms: C_15  and  C_16
REMARK                            x       y       z     vdW  Elec       q    Type
REMARK                         _______ _______ _______ _____ _____    ______ ____
ROOT
ATOM      1  N   UNL     1       2.578   6.227  17.998  0.00  0.00    +0.000 NA
ATOM      2  H   UNL     1       2.054   5.993  17.155  0.00  0.00    +0.000 HD
ENDROOT
BRANCH   1   8
ATOM      3  C   UNL     1       6.949   5.566  16.295  0.00  0.00    +0.000 C 
ATOM      4  O   UNL     1       7.392   6.711  16.359  0.00  0.00    +0.000 OA
ATOM      5  N   UNL     1       5.858   5.146  17.007  0.00  0.00    +0.000 N 
ATOM      6  C   UNL     1       5.216   3.851  16.936  0.00  0.00    +0.000 C 
ATOM      7  C   UNL     1       3.744   4.167  17.151  0.00  0.00    +0.000 C 
ATOM      8  C   UNL     1       3.756   5.360  18.120  0.00  0.00    +0.000 C 
ATOM      9  C   UNL     1       5.059   6.098  17.752  0.00  0.00    +0.000 C 
BRANCH   3  10
ATOM     10  O   UNL     1       7.420   4.615  15.449  0.00  0.00    +0.000 OA
BRANCH  10  12
ATOM     11  C   UNL     1       6.221   3.840  13.533  0.00  0.00    +0.000 C 
ATOM     12  C   UNL     1       7.181   4.894  14.061  0.00  0.00    +0.000 C 
ENDBRANCH  10  12
ENDBRANCH   3  10
ENDBRANCH   1   8
BRANCH   1  13
ATOM     13  C   UNL     1       2.900   7.652  17.976  0.00  0.00    +0.000 C 
BRANCH  13  14
ATOM     14  C   UNL     1       1.959   8.440  18.864  0.00  0.00    +0.000 A 
ATOM     15  C   UNL     1       1.729   8.039  20.190  0.00  0.00    +0.000 A 
ATOM     16  C   UNL     1       0.890   8.785  21.026  0.00  0.00    +0.000 A 
ATOM     17  C   UNL     1       0.267   9.948  20.557  0.00  0.00    +0.000 A 
ATOM     18  C   UNL     1       0.491  10.341  19.230  0.00  0.00    +0.000 A 
ATOM     19  C   UNL     1       1.330   9.597  18.394  0.00  0.00    +0.000 A 
BRANCH  17  20
ATOM     20  C   UNL     1      -0.593  10.738  21.434  0.00  0.00    +0.000 A 
ATOM     21  N   UNL     1      -0.759  10.446  22.773  0.00  0.00    +0.000 NA
ATOM     22  C   UNL     1      -1.583  11.386  23.161  0.00  0.00    +0.000 A 
ATOM     23  O   UNL     1      -1.946  12.242  22.177  0.00  0.00    +0.000 OA
ATOM     24  N   UNL     1      -1.286  11.816  21.026  0.00  0.00    +0.000 NA
ENDBRANCH  17  20
ENDBRANCH  13  14
ENDBRANCH   1  13
TORSDOF 6
ENDMDL
MODEL 8
REMARK VINA RESULT:      -6.8      2.994      4.081
REMARK  Name = 
REMARK  7 active torsions:
REMARK  status: ('A' for Active; 'I' for Inactive)
REMARK    1  A    between atoms: C_1  and  C_2
REMARK    2  A    between atoms: C_2  and  O_3
REMARK    3  A    between atoms: O_3  and  C_4
REMARK    4  A    between atoms: C_9  and  N_10
REMARK    5  A    between atoms: N_10  and  C_11
REMARK    6  A    between atoms: C_11  and  C_12
REMARK    7  A    between atoms: C_15  and  C_16
REMARK                            x       y       z     vdW  Elec       q    Type
REMARK                         _______ _______ _______ _____ _____    ______ ____
ROOT
ATOM      1  N   UNL     1       4.239   7.375  17.774  0.00  0.00    +0.000 NA
ATOM      2  H   UNL     1       4.430   7.836  18.664  0.00  0.00    +0.000 HD
ENDROOT
BRANCH   1   8
ATOM      3  C   UNL     1       6.792   4.636  14.872  0.00  0.00    +0.000 C 
ATOM      4  O   UNL     1       7.593   5.458  14.432  0.00  0.00    +0.000 OA
ATOM      5  N   UNL     1       6.074   4.832  16.021  0.00  0.00    +0.000 N 
ATOM      6  C   UNL     1       5.053   3.967  16.571  0.00  0.00    +0.000 C 
ATOM      7  C   UNL     1       4.064   4.933  17.204  0.00  0.00    +0.000 C 
ATOM      8  C   UNL     1       4.943   6.090  17.707  0.00  0.00    +0.000 C 
ATOM      9  C   UNL     1       6.104   6.117  16.691  0.00  0.00    +0.000 C 
BRANCH   3  10
ATOM     10  O   UNL     1       6.450   3.490  14.232  0.00  0.00    +0.000 OA
BRANCH  10  12
ATOM     11  C   UNL     1       6.601   3.186  11.867  0.00  0.00    +0.000 C 
ATOM     12  C   UNL     1       5.732   3.695  13.005  0.00  0.00    +0.000 C 
ENDBRANCH  10  12
ENDBRANCH   3  10
ENDBRANCH   1   8
BRANCH   1  13
ATOM     13  C   UNL     1       2.793   7.261  17.601  0.00  0.00    +0.000 C 
BRANCH  13  14
ATOM     14  C   UNL     1       2.051   8.063  18.651  0.00  0.00    +0.000 A 
ATOM     15  C   UNL     1       1.954   7.590  19.970  0.00  0.00    +0.000 A 
ATOM     16  C   UNL     1       1.301   8.344  20.953  0.00  0.00    +0.000 A 
ATOM     17  C   UNL     1       0.738   9.588  20.640  0.00  0.00    +0.000 A 
ATOM     18  C   UNL     1       0.829  10.053  19.321  0.00  0.00    +0.000 A 
ATOM     19  C   UNL     1       1.481   9.301  18.338  0.00  0.00    +0.000 A 
BRANCH  17  20
ATOM     20  C   UNL     1       0.075  10.385  21.668  0.00  0.00    +0.000 A 
ATOM     21  N   UNL     1      -0.798   9.836  22.587  0.00  0.00    +0.000 NA
ATOM     22  C   UNL     1      -1.140  10.878  23.300  0.00  0.00    +0.000 A 
ATOM     23  O   UNL     1      -0.554  12.034  22.906  0.00  0.00    +0.000 OA
ATOM     24  N   UNL     1       0.258  11.708  21.821  0.00  0.00    +0.000 NA
ENDBRANCH  17  20
ENDBRANCH  13  14
ENDBRANCH   1  13
TORSDOF 6
ENDMDL
MODEL 9
REMARK VINA RESULT:      -6.7      3.019      4.276
REMARK  Name = 
REMARK  7 active torsions:
REMARK  status: ('A' for Active; 'I' for Inactive)
REMARK    1  A    between atoms: C_1  and  C_2
REMARK    2  A    between atoms: C_2  and  O_3
REMARK    3  A    between atoms: O_3  and  C_4
REMARK    4  A    between atoms: C_9  and  N_10
REMARK    5  A    between atoms: N_10  and  C_11
REMARK    6  A    between atoms: C_11  and  C_12
REMARK    7  A    between atoms: C_15  and  C_16
REMARK                            x       y       z     vdW  Elec       q    Type
REMARK                         _______ _______ _______ _____ _____    ______ ____
ROOT
ATOM      1  N   UNL     1       3.930   5.289  19.943  0.00  0.00    +0.000 NA
ATOM      2  H   UNL     1       4.197   4.910  20.852  0.00  0.00    +0.000 HD
ENDROOT
BRANCH   1   8
ATOM      3  C   UNL     1       6.598   5.649  16.045  0.00  0.00    +0.000 C 
ATOM      4  O   UNL     1       7.510   6.360  16.461  0.00  0.00    +0.000 OA
ATOM      5  N   UNL     1       5.761   4.948  16.871  0.00  0.00    +0.000 N 
ATOM      6  C   UNL     1       4.614   4.157  16.482  0.00  0.00    +0.000 C 
ATOM      7  C   UNL     1       3.633   4.355  17.628  0.00  0.00    +0.000 C 
ATOM      8  C   UNL     1       4.532   4.493  18.867  0.00  0.00    +0.000 C 
ATOM      9  C   UNL     1       5.809   5.151  18.304  0.00  0.00    +0.000 C 
BRANCH   3  10
ATOM     10  O   UNL     1       6.248   5.549  14.738  0.00  0.00    +0.000 OA
BRANCH  10  12
ATOM     11  C   UNL     1       6.169   3.733  13.188  0.00  0.00    +0.000 C 
ATOM     12  C   UNL     1       7.079   4.662  13.973  0.00  0.00    +0.000 C 
ENDBRANCH  10  12
ENDBRANCH   3  10
ENDBRANCH   1   8
BRANCH   1  13
ATOM     13  C   UNL     1       2.473   5.364  19.871  0.00  0.00    +0.000 C 
BRANCH  13  14
ATOM     14  C   UNL     1       1.998   6.803  19.888  0.00  0.00    +0.000 A 
ATOM     15  C   UNL     1       1.423   7.349  21.047  0.00  0.00    +0.000 A 
ATOM     16  C   UNL     1       1.016   8.688  21.080  0.00  0.00    +0.000 A 
ATOM     17  C   UNL     1       1.180   9.511  19.958  0.00  0.00    +0.000 A 
ATOM     18  C   UNL     1       1.747   8.961  18.800  0.00  0.00    +0.000 A 
ATOM     19  C   UNL     1       2.154   7.623  18.765  0.00  0.00    +0.000 A 
BRANCH  17  20
ATOM     20  C   UNL     1       0.775  10.913  19.998  0.00  0.00    +0.000 A 
ATOM     21  N   UNL     1       0.898  11.691  21.132  0.00  0.00    +0.000 NA
ATOM     22  C   UNL     1       0.435  12.846  20.726  0.00  0.00    +0.000 A 
ATOM     23  O   UNL     1       0.033  12.856  19.433  0.00  0.00    +0.000 OA
ATOM     24  N   UNL     1       0.261  11.571  18.944  0.00  0.00    +0.000 NA
ENDBRANCH  17  20
ENDBRANCH  13  14
ENDBRANCH   1  13
TORSDOF 6
ENDMDL
