MODEL 1
REMARK VINA RESULT:      -7.0      0.000      0.000
REMARK  Name = 
REMARK  6 active torsions:
REMARK  status: ('A' for Active; 'I' for Inactive)
REMARK    1  A    between atoms: C_1  and  N_2
REMARK    2  A    between atoms: C_3  and  C_5
REMARK    3  A    between atoms: C_5  and  N_6
REMARK    4  A    between atoms: C_7  and  C_9
REMARK    5  A    between atoms: C_9  and  N_10
REMARK    6  A    between atoms: C_11  and  C_13
REMARK                            x       y       z     vdW  Elec       q    Type
REMARK                         _______ _______ _______ _____ _____    ______ ____
ROOT
ATOM      1  C   UNL     1       7.120   4.615  16.176  0.00  0.00    +0.000 C 
ENDROOT
BRANCH   1   3
ATOM      2  N   UNL     1       6.491   3.880  13.934  0.00  0.00    +0.000 N 
ATOM      3  C   UNL     1       7.212   4.800  14.663  0.00  0.00    +0.000 C 
ATOM      4  O   UNL     1       7.960   5.628  14.152  0.00  0.00    +0.000 OA
ATOM      5  H   UNL     1       6.111   3.068  14.418  0.00  0.00    +0.000 HD
BRANCH   2   6
ATOM      6  C   UNL     1       6.510   3.875  12.476  0.00  0.00    +0.000 C 
BRANCH   6   9
ATOM      7  C   UNL     1       3.220   2.874  10.820  0.00  0.00    +0.000 C 
ATOM      8  N   UNL     1       4.326   3.603  11.380  0.00  0.00    +0.000 N 
ATOM      9  C   UNL     1       5.458   2.961  11.824  0.00  0.00    +0.000 C 
ATOM     10  O   UNL     1       5.646   1.752  11.688  0.00  0.00    +0.000 OA
ATOM     11  H   UNL     1       4.215   4.580  11.620  0.00  0.00    +0.000 HD
ENDBRANCH   6   9
ENDBRANCH   2   6
ENDBRANCH   1   3
BRANCH   1  12
ATOM     12  N   UNL     1       5.732   4.480  16.581  0.00  0.00    +0.000 N 
ATOM     13  C   UNL     1       5.399   4.290  17.904  0.00  0.00    +0.000 C 
ATOM     14  O   UNL     1       6.242   4.290  18.795  0.00  0.00    +0.000 OA
ATOM     15  H   UNL     1       5.025   4.778  15.920  0.00  0.00    +0.000 HD
BRANCH  13  16
ATOM     16  C   UNL     1       3.948   4.151  18.222  0.00  0.00    +0.000 A 
ATOM     17  C   UNL     1       2.947   4.500  17.305  0.00  0.00    +0.000 A 
ATOM     18  C   UNL     1       1.600   4.349  17.646  0.00  0.00    +0.000 A 
ATOM     19  C   UNL     1       1.246   3.845  18.898  0.00  0.00    +0.000 A 
ATOM     20  C   UNL     1       2.243   3.480  19.803  0.00  0.00    +0.000 A 
ATOM     21  I   UNL     1       1.717   2.714  21.663  0.00  0.00    +0.000 I 
ATOM     22  C   UNL     1       3.590   3.624  19.470  0.00  0.00    +0.000 A 
ENDBRANCH  13  16
ENDBRANCH   1  12
TORSDOF 5
ENDMDL
MODEL 2
REMARK VINA RESULT:      -7.0      1.177      1.263
REMARK  Name = 
REMARK  6 active torsions:
REMARK  status: ('A' for Active; 'I' for Inactive)
REMARK    1  A    between atoms: C_1  and  N_2
REMARK    2  A    between atoms: C_3  and  C_5
REMARK    3  A    between atoms: C_5  and  N_6
REMARK    4  A    between atoms: C_7  and  C_9
REMARK    5  A    between atoms: C_9  and  N_10
REMARK    6  A    between atoms: C_11  and  C_13
REMARK                            x       y       z     vdW  Elec       q    Type
REMARK                         _______ _______ _______ _____ _____    ______ ____
ROOT
ATOM      1  C   UNL     1       7.191   4.255  16.629  0.00  0.00    +0.000 C 
ENDROOT
BRANCH   1   3
ATOM      2  N   UNL     1       6.557   3.843  14.307  0.00  0.00    +0.000 N 
ATOM      3  C   UNL     1       7.197   4.705  15.170  0.00  0.00    +0.000 C 
ATOM      4  O   UNL     1       7.822   5.693  14.795  0.00  0.00    +0.000 OA
ATOM      5  H   UNL     1       6.294   2.920  14.651  0.00  0.00    +0.000 HD
BRANCH   2   6
ATOM      6  C   UNL     1       6.514   4.089  12.871  0.00  0.00    +0.000 C 
BRANCH   6   9
ATOM      7  C   UNL     1       6.077   0.868  10.870  0.00  0.00    +0.000 C 
ATOM      8  N   UNL     1       6.582   1.927  11.702  0.00  0.00    +0.000 N 
ATOM      9  C   UNL     1       5.797   3.000  12.054  0.00  0.00    +0.000 C 
ATOM     10  O   UNL     1       4.602   3.084  11.772  0.00  0.00    +0.000 OA
ATOM     11  H   UNL     1       7.574   1.988  11.891  0.00  0.00    +0.000 HD
ENDBRANCH   6   9
ENDBRANCH   2   6
ENDBRANCH   1   3
BRANCH   1  12
ATOM     12  N   UNL     1       5.837   3.941  17.052  0.00  0.00    +0.000 N 
ATOM     13  C   UNL     1       5.085   4.859  17.749  0.00  0.00    +0.000 C 
ATOM     14  O   UNL     1       5.494   5.991  17.987  0.00  0.00    +0.000 OA
ATOM     15  H   UNL     1       5.385   3.150  16.609  0.00  0.00    +0.000 HD
BRANCH  13  16
ATOM     16  C   UNL     1       3.710   4.442  18.150  0.00  0.00    +0.000 A 
ATOM     17  C   UNL     1       2.621   4.517  17.271  0.00  0.00    +0.000 A 
ATOM     18  C   UNL     1       1.351   4.111  17.690  0.00  0.00    +0.000 A 
ATOM     19  C   UNL     1       1.163   3.623  18.984  0.00  0.00    +0.000 A 
ATOM     20  C   UNL     1       2.251   3.529  19.853  0.00  0.00    +0.000 A 
ATOM     21  I   UNL     1       1.974   2.788  21.775  0.00  0.00    +0.000 I 
ATOM     22  C   UNL     1       3.522   3.930  19.441  0.00  0.00    +0.000 A 
ENDBRANCH  13  16
ENDBRANCH   1  12
TORSDOF 5
ENDMDL
MODEL 3
REMARK VINA RESULT:      -6.5      3.682      5.346
REMARK  Name = 
REMARK  6 active torsions:
REMARK  status: ('A' for Active; 'I' for Inactive)
REMARK    1  A    between atoms: C_1  and  N_2
REMARK    2  A    between atoms: C_3  and  C_5
REMARK    3  A    between atoms: C_5  and  N_6
REMARK    4  A    between atoms: C_7  and  C_9
REMARK    5  A    between atoms: C_9  and  N_10
REMARK    6  A    between atoms: C_11  and  C_13
REMARK                            x       y       z     vdW  Elec       q    Type
REMARK                         _______ _______ _______ _____ _____    ______ ____
ROOT
ATOM      1  C   UNL     1       2.894   3.706  19.118  0.00  0.00    +0.000 C 
ENDROOT
BRANCH   1   3
ATOM      2  N   UNL     1       4.970   3.784  17.837  0.00  0.00    +0.000 N 
ATOM      3  C   UNL     1       3.615   3.545  17.783  0.00  0.00    +0.000 C 
ATOM      4  O   UNL     1       3.009   3.335  16.736  0.00  0.00    +0.000 OA
ATOM      5  H   UNL     1       5.354   4.208  18.680  0.00  0.00    +0.000 HD
BRANCH   2   6
ATOM      6  C   UNL     1       5.806   3.729  16.644  0.00  0.00    +0.000 C 
BRANCH   6   9
ATOM      7  C   UNL     1       7.399   7.130  17.324  0.00  0.00    +0.000 C 
ATOM      8  N   UNL     1       6.609   5.929  17.389  0.00  0.00    +0.000 N 
ATOM      9  C   UNL     1       6.791   4.901  16.494  0.00  0.00    +0.000 C 
ATOM     10  O   UNL     1       7.688   4.890  15.652  0.00  0.00    +0.000 OA
ATOM     11  H   UNL     1       5.789   5.899  17.980  0.00  0.00    +0.000 HD
ENDBRANCH   6   9
ENDBRANCH   2   6
ENDBRANCH   1   3
BRANCH   1  12
ATOM     12  N   UNL     1       2.249   5.006  19.187  0.00  0.00    +0.000 N 
ATOM     13  C   UNL     1       2.993   6.156  19.330  0.00  0.00    +0.000 C 
ATOM     14  O   UNL     1       4.220   6.142  19.341  0.00  0.00    +0.000 OA
ATOM     15  H   UNL     1       1.286   5.063  18.878  0.00  0.00    +0.000 HD
BRANCH  13  16
ATOM     16  C   UNL     1       2.241   7.442  19.402  0.00  0.00    +0.000 A 
ATOM     17  C   UNL     1       2.130   8.304  18.303  0.00  0.00    +0.000 A 
ATOM     18  C   UNL     1       1.412   9.498  18.417  0.00  0.00    +0.000 A 
ATOM     19  C   UNL     1       0.798   9.834  19.625  0.00  0.00    +0.000 A 
ATOM     20  C   UNL     1       0.893   8.967  20.713  0.00  0.00    +0.000 A 
ATOM     21  I   UNL     1      -0.034   9.459  22.507  0.00  0.00    +0.000 I 
ATOM     22  C   UNL     1       1.605   7.772  20.607  0.00  0.00    +0.000 A 
ENDBRANCH  13  16
ENDBRANCH   1  12
TORSDOF 5
ENDMDL
MODEL 4
REMARK VINA RESULT:      -6.4      1.693      1.891
REMARK  Name = 
REMARK  6 active torsions:
REMARK  status: ('A' for Active; 'I' for Inactive)
REMARK    1  A    between atoms: C_1  and  N_2
REMARK    2  A    between atoms: C_3  and  C_5
REMARK    3  A    between atoms: C_5  and  N_6
REMARK    4  A    between atoms: C_7  and  C_9
REMARK    5  A    between atoms: C_9  and  N_10
REMARK    6  A    between atoms: C_11  and  C_13
REMARK                            x       y       z     vdW  Elec       q    Type
REMARK                         _______ _______ _______ _____ _____    ______ ____
ROOT
ATOM      1  C   UNL     1       6.204   3.976  16.572  0.00  0.00    +0.000 C 
ENDROOT
BRANCH   1   3
ATOM      2  N   UNL     1       6.378   3.568  14.171  0.00  0.00    +0.000 N 
ATOM      3  C   UNL     1       6.103   4.504  15.144  0.00  0.00    +0.000 C 
ATOM      4  O   UNL     1       5.906   5.691  14.899  0.00  0.00    +0.000 OA
ATOM      5  H   UNL     1       6.787   2.679  14.456  0.00  0.00    +0.000 HD
BRANCH   2   6
ATOM      6  C   UNL     1       6.381   3.913  12.755  0.00  0.00    +0.000 C 
BRANCH   6   9
ATOM      7  C   UNL     1       3.308   2.956  10.705  0.00  0.00    +0.000 C 
ATOM      8  N   UNL     1       4.305   3.663  11.462  0.00  0.00    +0.000 N 
ATOM      9  C   UNL     1       5.461   3.045  11.879  0.00  0.00    +0.000 C 
ATOM     10  O   UNL     1       5.766   1.897  11.560  0.00  0.00    +0.000 OA
ATOM     11  H   UNL     1       4.090   4.571  11.852  0.00  0.00    +0.000 HD
ENDBRANCH   6   9
ENDBRANCH   2   6
ENDBRANCH   1   3
BRANCH   1  12
ATOM     12  N   UNL     1       4.955   4.198  17.280  0.00  0.00    +0.000 N 
ATOM     13  C   UNL     1       4.902   4.137  18.654  0.00  0.00    +0.000 C 
ATOM     14  O   UNL     1       5.905   3.957  19.338  0.00  0.00    +0.000 OA
ATOM     15  H   UNL     1       4.203   4.640  16.764  0.00  0.00    +0.000 HD
BRANCH  13  16
ATOM     16  C   UNL     1       3.573   4.368  19.290  0.00  0.00    +0.000 A 
ATOM     17  C   UNL     1       2.698   3.316  19.594  0.00  0.00    +0.000 A 
ATOM     18  C   UNL     1       1.463   3.580  20.193  0.00  0.00    +0.000 A 
ATOM     19  C   UNL     1       1.098   4.893  20.496  0.00  0.00    +0.000 A 
ATOM     20  C   UNL     1       1.977   5.938  20.211  0.00  0.00    +0.000 A 
ATOM     21  I   UNL     1       1.440   7.892  20.676  0.00  0.00    +0.000 I 
ATOM     22  C   UNL     1       3.212   5.682  19.615  0.00  0.00    +0.000 A 
ENDBRANCH  13  16
ENDBRANCH   1  12
TORSDOF 5
ENDMDL
MODEL 5
REMARK VINA RESULT:      -6.4      1.739      1.939
REMARK  Name = 
REMARK  6 active torsions:
REMARK  status: ('A' for Active; 'I' for Inactive)
REMARK    1  A    between atoms: C_1  and  N_2
REMARK    2  A    between atoms: C_3  and  C_5
REMARK    3  A    between atoms: C_5  and  N_6
REMARK    4  A    between atoms: C_7  and  C_9
REMARK    5  A    between atoms: C_9  and  N_10
REMARK    6  A    between atoms: C_11  and  C_13
REMARK                            x       y       z     vdW  Elec       q    Type
REMARK                         _______ _______ _______ _____ _____    ______ ____
ROOT
ATOM      1  C   UNL     1       7.159   4.376  16.577  0.00  0.00    +0.000 C 
ENDROOT
BRANCH   1   3
ATOM      2  N   UNL     1       5.866   3.950  14.550  0.00  0.00    +0.000 N 
ATOM      3  C   UNL     1       6.881   4.694  15.110  0.00  0.00    +0.000 C 
ATOM      4  O   UNL     1       7.584   5.466  14.465  0.00  0.00    +0.000 OA
ATOM      5  H   UNL     1       5.508   3.150  15.070  0.00  0.00    +0.000 HD
BRANCH   2   6
ATOM      6  C   UNL     1       5.503   4.085  13.145  0.00  0.00    +0.000 C 
BRANCH   6   9
ATOM      7  C   UNL     1       6.535   1.071  11.043  0.00  0.00    +0.000 C 
ATOM      8  N   UNL     1       5.822   2.008  11.870  0.00  0.00    +0.000 N 
ATOM      9  C   UNL     1       6.350   3.240  12.178  0.00  0.00    +0.000 C 
ATOM     10  O   UNL     1       7.403   3.662  11.701  0.00  0.00    +0.000 OA
ATOM     11  H   UNL     1       5.005   1.705  12.383  0.00  0.00    +0.000 HD
ENDBRANCH   6   9
ENDBRANCH   2   6
ENDBRANCH   1   3
BRANCH   1  12
ATOM     12  N   UNL     1       5.917   4.345  17.329  0.00  0.00    +0.000 N 
ATOM     13  C   UNL     1       5.318   5.512  17.749  0.00  0.00    +0.000 C 
ATOM     14  O   UNL     1       5.765   6.616  17.457  0.00  0.00    +0.000 OA
ATOM     15  H   UNL     1       5.387   3.482  17.312  0.00  0.00    +0.000 HD
BRANCH  13  16
ATOM     16  C   UNL     1       4.050   5.378  18.525  0.00  0.00    +0.000 A 
ATOM     17  C   UNL     1       3.537   6.426  19.301  0.00  0.00    +0.000 A 
ATOM     18  C   UNL     1       2.344   6.256  20.009  0.00  0.00    +0.000 A 
ATOM     19  C   UNL     1       1.655   5.044  19.940  0.00  0.00    +0.000 A 
ATOM     20  C   UNL     1       2.155   4.009  19.151  0.00  0.00    +0.000 A 
ATOM     21  I   UNL     1       1.121   2.209  19.036  0.00  0.00    +0.000 I 
ATOM     22  C   UNL     1       3.345   4.171  18.440  0.00  0.00    +0.000 A 
ENDBRANCH  13  16
ENDBRANCH   1  12
TORSDOF 5
ENDMDL
MODEL 6
REMARK VINA RESULT:      -6.4      3.816      4.874
REMARK  Name = 
REMARK  6 active torsions:
REMARK  status: ('A' for Active; 'I' for Inactive)
REMARK    1  A    between atoms: C_1  and  N_2
REMARK    2  A    between atoms: C_3  and  C_5
REMARK    3  A    between atoms: C_5  and  N_6
REMARK    4  A    between atoms: C_7  and  C_9
REMARK    5  A    between atoms: C_9  and  N_10
REMARK    6  A    between atoms: C_11  and  C_13
REMARK                            x       y       z     vdW  Elec       q    Type
REMARK                         _______ _______ _______ _____ _____    ______ ____
ROOT
ATOM      1  C   UNL     1       4.092   4.567  18.892  0.00  0.00    +0.000 C 
ENDROOT
BRANCH   1   3
ATOM      2  N   UNL     1       5.667   4.604  17.027  0.00  0.00    +0.000 N 
ATOM      3  C   UNL     1       5.535   4.602  18.398  0.00  0.00    +0.000 C 
ATOM      4  O   UNL     1       6.490   4.517  19.166  0.00  0.00    +0.000 OA
ATOM      5  H   UNL     1       4.842   4.408  16.461  0.00  0.00    +0.000 HD
BRANCH   2   6
ATOM      6  C   UNL     1       6.974   4.581  16.383  0.00  0.00    +0.000 C 
BRANCH   6   9
ATOM      7  C   UNL     1       7.837   5.440  12.766  0.00  0.00    +0.000 C 
ATOM      8  N   UNL     1       7.813   5.339  14.200  0.00  0.00    +0.000 N 
ATOM      9  C   UNL     1       6.932   4.504  14.847  0.00  0.00    +0.000 C 
ATOM     10  O   UNL     1       6.183   3.726  14.257  0.00  0.00    +0.000 OA
ATOM     11  H   UNL     1       8.320   6.013  14.760  0.00  0.00    +0.000 HD
ENDBRANCH   6   9
ENDBRANCH   2   6
ENDBRANCH   1   3
BRANCH   1  12
ATOM     12  N   UNL     1       3.504   5.893  18.821  0.00  0.00    +0.000 N 
ATOM     13  C   UNL     1       2.540   6.287  19.721  0.00  0.00    +0.000 C 
ATOM     14  O   UNL     1       2.183   5.570  20.650  0.00  0.00    +0.000 OA
ATOM     15  H   UNL     1       3.993   6.587  18.269  0.00  0.00    +0.000 HD
BRANCH  13  16
ATOM     16  C   UNL     1       1.988   7.664  19.561  0.00  0.00    +0.000 A 
ATOM     17  C   UNL     1       2.114   8.383  18.364  0.00  0.00    +0.000 A 
ATOM     18  C   UNL     1       1.578   9.670  18.259  0.00  0.00    +0.000 A 
ATOM     19  C   UNL     1       0.909  10.241  19.343  0.00  0.00    +0.000 A 
ATOM     20  C   UNL     1       0.766   9.517  20.527  0.00  0.00    +0.000 A 
ATOM     21  I   UNL     1      -0.243  10.361  22.136  0.00  0.00    +0.000 I 
ATOM     22  C   UNL     1       1.296   8.231  20.639  0.00  0.00    +0.000 A 
ENDBRANCH  13  16
ENDBRANCH   1  12
TORSDOF 5
ENDMDL
MODEL 7
REMARK VINA RESULT:      -6.4      1.637      1.754
REMARK  Name = 
REMARK  6 active torsions:
REMARK  status: ('A' for Active; 'I' for Inactive)
REMARK    1  A    between atoms: C_1  and  N_2
REMARK    2  A    between atoms: C_3  and  C_5
REMARK    3  A    between atoms: C_5  and  N_6
REMARK    4  A    between atoms: C_7  and  C_9
REMARK    5  A    between atoms: C_9  and  N_10
REMARK    6  A    between atoms: C_11  and  C_13
REMARK                            x       y       z     vdW  Elec       q    Type
REMARK                         _______ _______ _______ _____ _____    ______ ____
ROOT
ATOM      1  C   UNL     1       7.126   4.224  16.379  0.00  0.00    +0.000 C 
ENDROOT
BRANCH   1   3
ATOM      2  N   UNL     1       6.540   3.729  14.061  0.00  0.00    +0.000 N 
ATOM      3  C   UNL     1       6.743   4.726  14.989  0.00  0.00    +0.000 C 
ATOM      4  O   UNL     1       6.733   5.921  14.707  0.00  0.00    +0.000 OA
ATOM      5  H   UNL     1       6.822   2.780  14.300  0.00  0.00    +0.000 HD
BRANCH   2   6
ATOM      6  C   UNL     1       6.221   4.030  12.671  0.00  0.00    +0.000 C 
BRANCH   6   9
ATOM      7  C   UNL     1       6.043   0.645  10.917  0.00  0.00    +0.000 C 
ATOM      8  N   UNL     1       6.444   1.783  11.700  0.00  0.00    +0.000 N 
ATOM      9  C   UNL     1       5.608   2.859  11.884  0.00  0.00    +0.000 C 
ATOM     10  O   UNL     1       4.445   2.887  11.483  0.00  0.00    +0.000 OA
ATOM     11  H   UNL     1       7.412   1.886  11.978  0.00  0.00    +0.000 HD
ENDBRANCH   6   9
ENDBRANCH   2   6
ENDBRANCH   1   3
BRANCH   1  12
ATOM     12  N   UNL     1       6.137   4.645  17.356  0.00  0.00    +0.000 N 
ATOM     13  C   UNL     1       4.806   4.334  17.191  0.00  0.00    +0.000 C 
ATOM     14  O   UNL     1       4.408   3.644  16.259  0.00  0.00    +0.000 OA
ATOM     15  H   UNL     1       6.479   4.940  18.263  0.00  0.00    +0.000 HD
BRANCH  13  16
ATOM     16  C   UNL     1       3.864   4.820  18.242  0.00  0.00    +0.000 A 
ATOM     17  C   UNL     1       3.487   6.166  18.341  0.00  0.00    +0.000 A 
ATOM     18  C   UNL     1       2.599   6.574  19.340  0.00  0.00    +0.000 A 
ATOM     19  C   UNL     1       2.079   5.642  20.239  0.00  0.00    +0.000 A 
ATOM     20  C   UNL     1       2.440   4.299  20.128  0.00  0.00    +0.000 A 
ATOM     21  I   UNL     1       1.654   2.907  21.457  0.00  0.00    +0.000 I 
ATOM     22  C   UNL     1       3.324   3.883  19.132  0.00  0.00    +0.000 A 
ENDBRANCH  13  16
ENDBRANCH   1  12
TORSDOF 5
ENDMDL
MODEL 8
REMARK VINA RESULT:      -6.4      3.871      5.651
REMARK  Name = 
REMARK  6 active torsions:
REMARK  status: ('A' for Active; 'I' for Inactive)
REMARK    1  A    between atoms: C_1  and  N_2
REMARK    2  A    between atoms: C_3  and  C_5
REMARK    3  A    between atoms: C_5  and  N_6
REMARK    4  A    between atoms: C_7  and  C_9
REMARK    5  A    between atoms: C_9  and  N_10
REMARK    6  A    between atoms: C_11  and  C_13
REMARK                            x       y       z     vdW  Elec       q    Type
REMARK                         _______ _______ _______ _____ _____    ______ ____
ROOT
ATOM      1  C   UNL     1       3.711   4.412  19.939  0.00  0.00    +0.000 C 
ENDROOT
BRANCH   1   3
ATOM      2  N   UNL     1       5.758   5.580  19.302  0.00  0.00    +0.000 N 
ATOM      3  C   UNL     1       5.138   4.354  19.400  0.00  0.00    +0.000 C 
ATOM      4  O   UNL     1       5.637   3.312  18.985  0.00  0.00    +0.000 OA
ATOM      5  H   UNL     1       5.192   6.420  19.416  0.00  0.00    +0.000 HD
BRANCH   2   6
ATOM      6  C   UNL     1       7.103   5.716  18.756  0.00  0.00    +0.000 C 
BRANCH   6   9
ATOM      7  C   UNL     1       6.963   4.816  15.050  0.00  0.00    +0.000 C 
ATOM      8  N   UNL     1       6.873   4.804  16.485  0.00  0.00    +0.000 N 
ATOM      9  C   UNL     1       7.161   5.922  17.232  0.00  0.00    +0.000 C 
ATOM     10  O   UNL     1       7.416   7.019  16.736  0.00  0.00    +0.000 OA
ATOM     11  H   UNL     1       6.770   3.924  16.974  0.00  0.00    +0.000 HD
ENDBRANCH   6   9
ENDBRANCH   2   6
ENDBRANCH   1   3
BRANCH   1  12
ATOM     12  N   UNL     1       3.224   5.781  19.924  0.00  0.00    +0.000 N 
ATOM     13  C   UNL     1       2.538   6.274  18.837  0.00  0.00    +0.000 C 
ATOM     14  O   UNL     1       2.256   5.572  17.871  0.00  0.00    +0.000 OA
ATOM     15  H   UNL     1       3.179   6.266  20.813  0.00  0.00    +0.000 HD
BRANCH  13  16
ATOM     16  C   UNL     1       2.088   7.694  18.910  0.00  0.00    +0.000 A 
ATOM     17  C   UNL     1       2.269   8.590  17.848  0.00  0.00    +0.000 A 
ATOM     18  C   UNL     1       1.828   9.911  17.961  0.00  0.00    +0.000 A 
ATOM     19  C   UNL     1       1.198  10.342  19.129  0.00  0.00    +0.000 A 
ATOM     20  C   UNL     1       1.000   9.446  20.179  0.00  0.00    +0.000 A 
ATOM     21  I   UNL     1       0.049  10.083  21.914  0.00  0.00    +0.000 I 
ATOM     22  C   UNL     1       1.436   8.124  20.073  0.00  0.00    +0.000 A 
ENDBRANCH  13  16
ENDBRANCH   1  12
TORSDOF 5
ENDMDL
MODEL 9
REMARK VINA RESULT:      -6.4      2.049      2.300
REMARK  Name = 
REMARK  6 active torsions:
REMARK  status: ('A' for Active; 'I' for Inactive)
REMARK    1  A    between atoms: C_1  and  N_2
REMARK    2  A    between atoms: C_3  and  C_5
REMARK    3  A    between atoms: C_5  and  N_6
REMARK    4  A    between atoms: C_7  and  C_9
REMARK    5  A    between atoms: C_9  and  N_10
REMARK    6  A    between atoms: C_11  and  C_13
REMARK                            x       y       z     vdW  Elec       q    Type
REMARK                         _______ _______ _______ _____ _____    ______ ____
ROOT
ATOM      1  C   UNL     1       7.187   4.388  16.681  0.00  0.00    +0.000 C 
ENDROOT
BRANCH   1   3
ATOM      2  N   UNL     1       5.863   3.930  14.681  0.00  0.00    +0.000 N 
ATOM      3  C   UNL     1       6.834   4.733  15.236  0.00  0.00    +0.000 C 
ATOM      4  O   UNL     1       7.453   5.580  14.598  0.00  0.00    +0.000 OA
ATOM      5  H   UNL     1       5.587   3.086  15.183  0.00  0.00    +0.000 HD
BRANCH   2   6
ATOM      6  C   UNL     1       5.442   4.083  13.294  0.00  0.00    +0.000 C 
BRANCH   6   9
ATOM      7  C   UNL     1       6.750   1.300  11.034  0.00  0.00    +0.000 C 
ATOM      8  N   UNL     1       5.960   2.111  11.921  0.00  0.00    +0.000 N 
ATOM      9  C   UNL     1       6.350   3.384  12.267  0.00  0.00    +0.000 C 
ATOM     10  O   UNL     1       7.328   3.947  11.778  0.00  0.00    +0.000 OA
ATOM     11  H   UNL     1       5.202   1.692  12.443  0.00  0.00    +0.000 HD
ENDBRANCH   6   9
ENDBRANCH   2   6
ENDBRANCH   1   3
BRANCH   1  12
ATOM     12  N   UNL     1       5.980   4.293  17.483  0.00  0.00    +0.000 N 
ATOM     13  C   UNL     1       5.360   5.426  17.961  0.00  0.00    +0.000 C 
ATOM     14  O   UNL     1       5.756   6.553  17.682  0.00  0.00    +0.000 OA
ATOM     15  H   UNL     1       5.479   3.413  17.465  0.00  0.00    +0.000 HD
BRANCH  13  16
ATOM     16  C   UNL     1       4.132   5.227  18.785  0.00  0.00    +0.000 A 
ATOM     17  C   UNL     1       3.660   3.952  19.125  0.00  0.00    +0.000 A 
ATOM     18  C   UNL     1       2.507   3.815  19.903  0.00  0.00    +0.000 A 
ATOM     19  C   UNL     1       1.824   4.947  20.349  0.00  0.00    +0.000 A 
ATOM     20  C   UNL     1       2.305   6.216  20.028  0.00  0.00    +0.000 A 
ATOM     21  I   UNL     1       1.297   7.903  20.706  0.00  0.00    +0.000 I 
ATOM     22  C   UNL     1       3.457   6.362  19.254  0.00  0.00    +0.000 A 
ENDBRANCH  13  16
ENDBRANCH   1  12
TORSDOF 5
ENDMDL
