MODEL 1
REMARK VINA RESULT:      -8.4      0.000      0.000
REMARK  Name = 
REMARK  6 active torsions:
REMARK  status: ('A' for Active; 'I' for Inactive)
REMARK    1  A    between atoms: C_4  and  C_5
REMARK    2  A    between atoms: C_5  and  C_6
REMARK    3  A    between atoms: C_6  and  N_7
REMARK    4  A    between atoms: N_7  and  C_8
REMARK    5  A    between atoms: C_8  and  C_9
REMARK    6  A    between atoms: C_12  and  C_13
REMARK                            x       y       z     vdW  Elec       q    Type
REMARK                         _______ _______ _______ _____ _____    ______ ____
ROOT
ATOM      1  C   UNL     1       1.495   9.100  19.086  0.00  0.00    +0.000 A 
ATOM      2  C   UNL     1       1.827   9.519  17.818  0.00  0.00    +0.000 A 
ATOM      3  O   UNL     1       2.575   8.546  17.227  0.00  0.00    +0.000 OA
ATOM      4  C   UNL     1       2.675   7.561  18.180  0.00  0.00    +0.000 A 
ATOM      5  N   UNL     1       2.057   7.861  19.308  0.00  0.00    +0.000 NA
ENDROOT
BRANCH   4   6
ATOM      6  C   UNL     1       3.377   6.328  17.786  0.00  0.00    +0.000 A 
ATOM      7  C   UNL     1       4.556   6.443  17.021  0.00  0.00    +0.000 A 
ATOM      8  C   UNL     1       5.198   5.320  16.511  0.00  0.00    +0.000 A 
ATOM      9  C   UNL     1       4.647   4.060  16.715  0.00  0.00    +0.000 A 
ATOM     10  C   UNL     1       3.469   3.902  17.458  0.00  0.00    +0.000 A 
ATOM     11  C   UNL     1       2.895   2.626  17.584  0.00  0.00    +0.000 A 
ATOM     12  C   UNL     1       1.740   2.427  18.339  0.00  0.00    +0.000 A 
ATOM     13  C   UNL     1       1.179   3.494  19.024  0.00  0.00    +0.000 A 
ATOM     14  C   UNL     1       1.728   4.771  18.891  0.00  0.00    +0.000 A 
ATOM     15  C   UNL     1       2.849   5.029  18.060  0.00  0.00    +0.000 A 
ENDBRANCH   4   6
BRANCH   1  16
ATOM     16  C   UNL     1       0.740   9.805  20.162  0.00  0.00    +0.000 C 
BRANCH  16  17
ATOM     17  N   UNL     1       0.857  11.264  20.026  0.00  0.00    +0.000 NA
ATOM     18  H   UNL     1       0.822  11.695  20.948  0.00  0.00    +0.000 HD
BRANCH  17  19
ATOM     19  C   UNL     1      -0.251  11.776  19.205  0.00  0.00    +0.000 C 
BRANCH  19  20
ATOM     20  C   UNL     1      -1.543  10.976  19.429  0.00  0.00    +0.000 C 
BRANCH  20  24
ATOM     21  C   UNL     1      -3.797  10.631  15.760  0.00  0.00    +0.000 A 
ATOM     22  C   UNL     1      -2.599   9.935  15.911  0.00  0.00    +0.000 A 
ATOM     23  C   UNL     1      -1.876  10.040  17.101  0.00  0.00    +0.000 A 
ATOM     24  C   UNL     1      -2.341  10.840  18.150  0.00  0.00    +0.000 A 
ATOM     25  C   UNL     1      -3.546  11.540  17.987  0.00  0.00    +0.000 A 
ATOM     26  C   UNL     1      -4.274  11.434  16.795  0.00  0.00    +0.000 A 
ENDBRANCH  20  24
ENDBRANCH  19  20
ENDBRANCH  17  19
ENDBRANCH  16  17
ENDBRANCH   1  16
TORSDOF 6
ENDMDL
MODEL 2
REMARK VINA RESULT:      -8.3      5.295      8.306
REMARK  Name = 
REMARK  6 active torsions:
REMARK  status: ('A' for Active; 'I' for Inactive)
REMARK    1  A    between atoms: C_4  and  C_5
REMARK    2  A    between atoms: C_5  and  C_6
REMARK    3  A    between atoms: C_6  and  N_7
REMARK    4  A    between atoms: N_7  and  C_8
REMARK    5  A    between atoms: C_8  and  C_9
REMARK    6  A    between atoms: C_12  and  C_13
REMARK                            x       y       z     vdW  Elec       q    Type
REMARK                         _______ _______ _______ _____ _____    ______ ____
ROOT
ATOM      1  C   UNL     1       6.930   6.424  17.948  0.00  0.00    +0.000 A 
ATOM      2  C   UNL     1       7.577   5.510  18.747  0.00  0.00    +0.000 A 
ATOM      3  O   UNL     1       6.711   4.499  19.033  0.00  0.00    +0.000 OA
ATOM      4  C   UNL     1       5.548   4.850  18.389  0.00  0.00    +0.000 A 
ATOM      5  N   UNL     1       5.634   5.999  17.745  0.00  0.00    +0.000 NA
ENDROOT
BRANCH   4   6
ATOM      6  C   UNL     1       4.437   3.886  18.459  0.00  0.00    +0.000 A 
ATOM      7  C   UNL     1       4.506   2.724  17.664  0.00  0.00    +0.000 A 
ATOM      8  C   UNL     1       3.437   1.837  17.588  0.00  0.00    +0.000 A 
ATOM      9  C   UNL     1       2.258   2.120  18.267  0.00  0.00    +0.000 A 
ATOM     10  C   UNL     1       2.142   3.271  19.057  0.00  0.00    +0.000 A 
ATOM     11  C   UNL     1       0.914   3.570  19.672  0.00  0.00    +0.000 A 
ATOM     12  C   UNL     1       0.770   4.691  20.488  0.00  0.00    +0.000 A 
ATOM     13  C   UNL     1       1.870   5.494  20.745  0.00  0.00    +0.000 A 
ATOM     14  C   UNL     1       3.091   5.220  20.125  0.00  0.00    +0.000 A 
ATOM     15  C   UNL     1       3.253   4.142  19.218  0.00  0.00    +0.000 A 
ENDBRANCH   4   6
BRANCH   1  16
ATOM     16  C   UNL     1       7.405   7.729  17.403  0.00  0.00    +0.000 C 
BRANCH  16  17
ATOM     17  N   UNL     1       8.375   8.362  18.308  0.00  0.00    +0.000 NA
ATOM     18  H   UNL     1       8.075   8.231  19.273  0.00  0.00    +0.000 HD
BRANCH  17  19
ATOM     19  C   UNL     1       8.463   9.800  18.014  0.00  0.00    +0.000 C 
BRANCH  19  20
ATOM     20  C   UNL     1       9.375  10.531  19.009  0.00  0.00    +0.000 C 
BRANCH  20  24
ATOM     21  C   UNL     1      11.051  14.148  17.344  0.00  0.00    +0.000 A 
ATOM     22  C   UNL     1      11.760  12.950  17.267  0.00  0.00    +0.000 A 
ATOM     23  C   UNL     1      11.213  11.780  17.797  0.00  0.00    +0.000 A 
ATOM     24  C   UNL     1       9.955  11.794  18.409  0.00  0.00    +0.000 A 
ATOM     25  C   UNL     1       9.252  13.005  18.486  0.00  0.00    +0.000 A 
ATOM     26  C   UNL     1       9.797  14.179  17.953  0.00  0.00    +0.000 A 
ENDBRANCH  20  24
ENDBRANCH  19  20
ENDBRANCH  17  19
ENDBRANCH  16  17
ENDBRANCH   1  16
TORSDOF 6
ENDMDL
MODEL 3
REMARK VINA RESULT:      -8.2      4.905      8.409
REMARK  Name = 
REMARK  6 active torsions:
REMARK  status: ('A' for Active; 'I' for Inactive)
REMARK    1  A    between atoms: C_4  and  C_5
REMARK    2  A    between atoms: C_5  and  C_6
REMARK    3  A    between atoms: C_6  and  N_7
REMARK    4  A    between atoms: N_7  and  C_8
REMARK    5  A    between atoms: C_8  and  C_9
REMARK    6  A    between atoms: C_12  and  C_13
REMARK                            x       y       z     vdW  Elec       q    Type
REMARK                         _______ _______ _______ _____ _____    ______ ____
ROOT
ATOM      1  C   UNL     1       6.525   5.609  16.806  0.00  0.00    +0.000 A 
ATOM      2  C   UNL     1       6.008   4.958  15.710  0.00  0.00    +0.000 A 
ATOM      3  O   UNL     1       5.001   4.142  16.129  0.00  0.00    +0.000 OA
ATOM      4  C   UNL     1       4.950   4.329  17.489  0.00  0.00    +0.000 A 
ATOM      5  N   UNL     1       5.854   5.184  17.934  0.00  0.00    +0.000 NA
ENDROOT
BRANCH   4   6
ATOM      6  C   UNL     1       3.883   3.620  18.215  0.00  0.00    +0.000 A 
ATOM      7  C   UNL     1       3.676   2.253  17.936  0.00  0.00    +0.000 A 
ATOM      8  C   UNL     1       2.608   1.557  18.492  0.00  0.00    +0.000 A 
ATOM      9  C   UNL     1       1.696   2.226  19.300  0.00  0.00    +0.000 A 
ATOM     10  C   UNL     1       1.857   3.587  19.591  0.00  0.00    +0.000 A 
ATOM     11  C   UNL     1       0.880   4.254  20.350  0.00  0.00    +0.000 A 
ATOM     12  C   UNL     1       1.020   5.600  20.683  0.00  0.00    +0.000 A 
ATOM     13  C   UNL     1       2.170   6.279  20.311  0.00  0.00    +0.000 A 
ATOM     14  C   UNL     1       3.139   5.634  19.540  0.00  0.00    +0.000 A 
ATOM     15  C   UNL     1       2.990   4.292  19.105  0.00  0.00    +0.000 A 
ENDBRANCH   4   6
BRANCH   1  16
ATOM     16  C   UNL     1       7.668   6.562  16.907  0.00  0.00    +0.000 C 
BRANCH  16  17
ATOM     17  N   UNL     1       7.207   7.905  17.290  0.00  0.00    +0.000 NA
ATOM     18  H   UNL     1       7.027   8.453  16.451  0.00  0.00    +0.000 HD
BRANCH  17  19
ATOM     19  C   UNL     1       8.241   8.571  18.097  0.00  0.00    +0.000 C 
BRANCH  19  20
ATOM     20  C   UNL     1       8.286  10.083  17.830  0.00  0.00    +0.000 C 
BRANCH  20  24
ATOM     21  C   UNL     1      11.586  12.004  19.849  0.00  0.00    +0.000 A 
ATOM     22  C   UNL     1      10.495  11.538  20.582  0.00  0.00    +0.000 A 
ATOM     23  C   UNL     1       9.434  10.908  19.929  0.00  0.00    +0.000 A 
ATOM     24  C   UNL     1       9.450  10.739  18.540  0.00  0.00    +0.000 A 
ATOM     25  C   UNL     1      10.550  11.215  17.812  0.00  0.00    +0.000 A 
ATOM     26  C   UNL     1      11.617  11.844  18.465  0.00  0.00    +0.000 A 
ENDBRANCH  20  24
ENDBRANCH  19  20
ENDBRANCH  17  19
ENDBRANCH  16  17
ENDBRANCH   1  16
TORSDOF 6
ENDMDL
MODEL 4
REMARK VINA RESULT:      -8.2      4.906      8.362
REMARK  Name = 
REMARK  6 active torsions:
REMARK  status: ('A' for Active; 'I' for Inactive)
REMARK    1  A    between atoms: C_4  and  C_5
REMARK    2  A    between atoms: C_5  and  C_6
REMARK    3  A    between atoms: C_6  and  N_7
REMARK    4  A    between atoms: N_7  and  C_8
REMARK    5  A    between atoms: C_8  and  C_9
REMARK    6  A    between atoms: C_12  and  C_13
REMARK                            x       y       z     vdW  Elec       q    Type
REMARK                         _______ _______ _______ _____ _____    ______ ____
ROOT
ATOM      1  C   UNL     1       6.243   6.731  17.312  0.00  0.00    +0.000 A 
ATOM      2  C   UNL     1       5.319   6.963  16.319  0.00  0.00    +0.000 A 
ATOM      3  O   UNL     1       4.094   6.576  16.772  0.00  0.00    +0.000 OA
ATOM      4  C   UNL     1       4.329   6.110  18.044  0.00  0.00    +0.000 A 
ATOM      5  N   UNL     1       5.601   6.171  18.396  0.00  0.00    +0.000 NA
ENDROOT
BRANCH   4   6
ATOM      6  C   UNL     1       3.153   5.688  18.822  0.00  0.00    +0.000 A 
ATOM      7  C   UNL     1       2.633   6.574  19.787  0.00  0.00    +0.000 A 
ATOM      8  C   UNL     1       1.604   6.190  20.641  0.00  0.00    +0.000 A 
ATOM      9  C   UNL     1       1.106   4.894  20.579  0.00  0.00    +0.000 A 
ATOM     10  C   UNL     1       1.603   3.977  19.643  0.00  0.00    +0.000 A 
ATOM     11  C   UNL     1       1.134   2.652  19.653  0.00  0.00    +0.000 A 
ATOM     12  C   UNL     1       1.585   1.721  18.720  0.00  0.00    +0.000 A 
ATOM     13  C   UNL     1       2.468   2.119  17.728  0.00  0.00    +0.000 A 
ATOM     14  C   UNL     1       2.957   3.427  17.719  0.00  0.00    +0.000 A 
ATOM     15  C   UNL     1       2.592   4.378  18.705  0.00  0.00    +0.000 A 
ENDBRANCH   4   6
BRANCH   1  16
ATOM     16  C   UNL     1       7.722   6.925  17.311  0.00  0.00    +0.000 C 
BRANCH  16  17
ATOM     17  N   UNL     1       8.157   7.701  18.481  0.00  0.00    +0.000 NA
ATOM     18  H   UNL     1       7.413   7.712  19.176  0.00  0.00    +0.000 HD
BRANCH  17  19
ATOM     19  C   UNL     1       8.466   9.081  18.074  0.00  0.00    +0.000 C 
BRANCH  19  20
ATOM     20  C   UNL     1       8.739   9.984  19.284  0.00  0.00    +0.000 C 
BRANCH  20  24
ATOM     21  C   UNL     1      12.127  12.568  18.572  0.00  0.00    +0.000 A 
ATOM     22  C   UNL     1      11.269  12.237  17.524  0.00  0.00    +0.000 A 
ATOM     23  C   UNL     1      10.169  11.410  17.758  0.00  0.00    +0.000 A 
ATOM     24  C   UNL     1       9.915  10.905  19.038  0.00  0.00    +0.000 A 
ATOM     25  C   UNL     1      10.787  11.239  20.084  0.00  0.00    +0.000 A 
ATOM     26  C   UNL     1      11.889  12.071  19.853  0.00  0.00    +0.000 A 
ENDBRANCH  20  24
ENDBRANCH  19  20
ENDBRANCH  17  19
ENDBRANCH  16  17
ENDBRANCH   1  16
TORSDOF 6
ENDMDL
MODEL 5
REMARK VINA RESULT:      -8.2      0.738      1.297
REMARK  Name = 
REMARK  6 active torsions:
REMARK  status: ('A' for Active; 'I' for Inactive)
REMARK    1  A    between atoms: C_4  and  C_5
REMARK    2  A    between atoms: C_5  and  C_6
REMARK    3  A    between atoms: C_6  and  N_7
REMARK    4  A    between atoms: N_7  and  C_8
REMARK    5  A    between atoms: C_8  and  C_9
REMARK    6  A    between atoms: C_12  and  C_13
REMARK                            x       y       z     vdW  Elec       q    Type
REMARK                         _______ _______ _______ _____ _____    ______ ____
ROOT
ATOM      1  C   UNL     1       1.614   9.071  19.059  0.00  0.00    +0.000 A 
ATOM      2  C   UNL     1       2.137   9.285  17.805  0.00  0.00    +0.000 A 
ATOM      3  O   UNL     1       2.772   8.149  17.404  0.00  0.00    +0.000 OA
ATOM      4  C   UNL     1       2.613   7.277  18.454  0.00  0.00    +0.000 A 
ATOM      5  N   UNL     1       1.942   7.795  19.467  0.00  0.00    +0.000 NA
ENDROOT
BRANCH   4   6
ATOM      6  C   UNL     1       3.141   5.915  18.268  0.00  0.00    +0.000 A 
ATOM      7  C   UNL     1       4.110   5.702  17.267  0.00  0.00    +0.000 A 
ATOM      8  C   UNL     1       4.558   4.422  16.956  0.00  0.00    +0.000 A 
ATOM      9  C   UNL     1       4.008   3.324  17.607  0.00  0.00    +0.000 A 
ATOM     10  C   UNL     1       3.033   3.490  18.599  0.00  0.00    +0.000 A 
ATOM     11  C   UNL     1       2.443   2.359  19.188  0.00  0.00    +0.000 A 
ATOM     12  C   UNL     1       1.490   2.486  20.197  0.00  0.00    +0.000 A 
ATOM     13  C   UNL     1       1.160   3.746  20.671  0.00  0.00    +0.000 A 
ATOM     14  C   UNL     1       1.725   4.879  20.081  0.00  0.00    +0.000 A 
ATOM     15  C   UNL     1       2.628   4.794  18.992  0.00  0.00    +0.000 A 
ENDBRANCH   4   6
BRANCH   1  16
ATOM     16  C   UNL     1       0.879  10.002  19.965  0.00  0.00    +0.000 C 
BRANCH  16  17
ATOM     17  N   UNL     1       1.015  11.396  19.518  0.00  0.00    +0.000 NA
ATOM     18  H   UNL     1       1.520  11.930  20.223  0.00  0.00    +0.000 HD
BRANCH  17  19
ATOM     19  C   UNL     1      -0.318  11.985  19.320  0.00  0.00    +0.000 C 
BRANCH  19  20
ATOM     20  C   UNL     1      -1.429  10.932  19.436  0.00  0.00    +0.000 C 
BRANCH  20  24
ATOM     21  C   UNL     1      -3.781  10.629  15.825  0.00  0.00    +0.000 A 
ATOM     22  C   UNL     1      -4.207  11.449  16.869  0.00  0.00    +0.000 A 
ATOM     23  C   UNL     1      -3.441  11.553  18.032  0.00  0.00    +0.000 A 
ATOM     24  C   UNL     1      -2.244  10.841  18.164  0.00  0.00    +0.000 A 
ATOM     25  C   UNL     1      -1.826  10.016  17.109  0.00  0.00    +0.000 A 
ATOM     26  C   UNL     1      -2.591   9.912  15.942  0.00  0.00    +0.000 A 
ENDBRANCH  20  24
ENDBRANCH  19  20
ENDBRANCH  17  19
ENDBRANCH  16  17
ENDBRANCH   1  16
TORSDOF 6
ENDMDL
MODEL 6
REMARK VINA RESULT:      -8.1      5.480      8.519
REMARK  Name = 
REMARK  6 active torsions:
REMARK  status: ('A' for Active; 'I' for Inactive)
REMARK    1  A    between atoms: C_4  and  C_5
REMARK    2  A    between atoms: C_5  and  C_6
REMARK    3  A    between atoms: C_6  and  N_7
REMARK    4  A    between atoms: N_7  and  C_8
REMARK    5  A    between atoms: C_8  and  C_9
REMARK    6  A    between atoms: C_12  and  C_13
REMARK                            x       y       z     vdW  Elec       q    Type
REMARK                         _______ _______ _______ _____ _____    ______ ____
ROOT
ATOM      1  C   UNL     1       7.121   6.580  18.097  0.00  0.00    +0.000 A 
ATOM      2  C   UNL     1       7.634   5.659  18.981  0.00  0.00    +0.000 A 
ATOM      3  O   UNL     1       6.719   4.663  19.144  0.00  0.00    +0.000 OA
ATOM      4  C   UNL     1       5.665   5.030  18.342  0.00  0.00    +0.000 A 
ATOM      5  N   UNL     1       5.860   6.176  17.714  0.00  0.00    +0.000 NA
ENDROOT
BRANCH   4   6
ATOM      6  C   UNL     1       4.539   4.085  18.255  0.00  0.00    +0.000 A 
ATOM      7  C   UNL     1       4.579   3.083  17.264  0.00  0.00    +0.000 A 
ATOM      8  C   UNL     1       3.495   2.239  17.047  0.00  0.00    +0.000 A 
ATOM      9  C   UNL     1       2.329   2.412  17.785  0.00  0.00    +0.000 A 
ATOM     10  C   UNL     1       2.243   3.404  18.771  0.00  0.00    +0.000 A 
ATOM     11  C   UNL     1       1.029   3.604  19.449  0.00  0.00    +0.000 A 
ATOM     12  C   UNL     1       0.914   4.563  20.455  0.00  0.00    +0.000 A 
ATOM     13  C   UNL     1       2.031   5.292  20.834  0.00  0.00    +0.000 A 
ATOM     14  C   UNL     1       3.238   5.117  20.155  0.00  0.00    +0.000 A 
ATOM     15  C   UNL     1       3.370   4.217  19.067  0.00  0.00    +0.000 A 
ENDBRANCH   4   6
BRANCH   1  16
ATOM     16  C   UNL     1       7.690   7.875  17.622  0.00  0.00    +0.000 C 
BRANCH  16  17
ATOM     17  N   UNL     1       8.611   8.447  18.615  0.00  0.00    +0.000 NA
ATOM     18  H   UNL     1       8.277   8.231  19.552  0.00  0.00    +0.000 HD
BRANCH  17  19
ATOM     19  C   UNL     1       8.680   9.906  18.444  0.00  0.00    +0.000 C 
BRANCH  19  20
ATOM     20  C   UNL     1       9.598  10.559  19.487  0.00  0.00    +0.000 C 
BRANCH  20  24
ATOM     21  C   UNL     1      11.478  14.103  17.887  0.00  0.00    +0.000 A 
ATOM     22  C   UNL     1      10.591  14.207  18.958  0.00  0.00    +0.000 A 
ATOM     23  C   UNL     1       9.992  13.059  19.480  0.00  0.00    +0.000 A 
ATOM     24  C   UNL     1      10.270  11.799  18.939  0.00  0.00    +0.000 A 
ATOM     25  C   UNL     1      11.160  11.707  17.859  0.00  0.00    +0.000 A 
ATOM     26  C   UNL     1      11.764  12.856  17.335  0.00  0.00    +0.000 A 
ENDBRANCH  20  24
ENDBRANCH  19  20
ENDBRANCH  17  19
ENDBRANCH  16  17
ENDBRANCH   1  16
TORSDOF 6
ENDMDL
MODEL 7
REMARK VINA RESULT:      -8.0      5.251      8.593
REMARK  Name = 
REMARK  6 active torsions:
REMARK  status: ('A' for Active; 'I' for Inactive)
REMARK    1  A    between atoms: C_4  and  C_5
REMARK    2  A    between atoms: C_5  and  C_6
REMARK    3  A    between atoms: C_6  and  N_7
REMARK    4  A    between atoms: N_7  and  C_8
REMARK    5  A    between atoms: C_8  and  C_9
REMARK    6  A    between atoms: C_12  and  C_13
REMARK                            x       y       z     vdW  Elec       q    Type
REMARK                         _______ _______ _______ _____ _____    ______ ____
ROOT
ATOM      1  C   UNL     1       6.651   6.566  18.135  0.00  0.00    +0.000 A 
ATOM      2  C   UNL     1       7.019   5.473  18.885  0.00  0.00    +0.000 A 
ATOM      3  O   UNL     1       5.895   4.920  19.420  0.00  0.00    +0.000 OA
ATOM      4  C   UNL     1       4.871   5.719  18.970  0.00  0.00    +0.000 A 
ATOM      5  N   UNL     1       5.283   6.720  18.215  0.00  0.00    +0.000 NA
ENDROOT
BRANCH   4   6
ATOM      6  C   UNL     1       3.504   5.309  19.334  0.00  0.00    +0.000 A 
ATOM      7  C   UNL     1       2.782   6.113  20.239  0.00  0.00    +0.000 A 
ATOM      8  C   UNL     1       1.537   5.719  20.720  0.00  0.00    +0.000 A 
ATOM      9  C   UNL     1       1.012   4.489  20.343  0.00  0.00    +0.000 A 
ATOM     10  C   UNL     1       1.703   3.653  19.456  0.00  0.00    +0.000 A 
ATOM     11  C   UNL     1       1.183   2.384  19.151  0.00  0.00    +0.000 A 
ATOM     12  C   UNL     1       1.829   1.538  18.251  0.00  0.00    +0.000 A 
ATOM     13  C   UNL     1       2.972   1.976  17.601  0.00  0.00    +0.000 A 
ATOM     14  C   UNL     1       3.511   3.226  17.910  0.00  0.00    +0.000 A 
ATOM     15  C   UNL     1       2.933   4.078  18.886  0.00  0.00    +0.000 A 
ENDBRANCH   4   6
BRANCH   1  16
ATOM     16  C   UNL     1       7.493   7.546  17.391  0.00  0.00    +0.000 C 
BRANCH  16  17
ATOM     17  N   UNL     1       8.540   8.112  18.254  0.00  0.00    +0.000 NA
ATOM     18  H   UNL     1       8.390   7.805  19.214  0.00  0.00    +0.000 HD
BRANCH  17  19
ATOM     19  C   UNL     1       8.489   9.581  18.198  0.00  0.00    +0.000 C 
BRANCH  19  20
ATOM     20  C   UNL     1       9.128  10.221  19.438  0.00  0.00    +0.000 C 
BRANCH  20  24
ATOM     21  C   UNL     1      12.229  13.031  18.365  0.00  0.00    +0.000 A 
ATOM     22  C   UNL     1      12.064  12.647  19.695  0.00  0.00    +0.000 A 
ATOM     23  C   UNL     1      11.068  11.732  20.039  0.00  0.00    +0.000 A 
ATOM     24  C   UNL     1      10.227  11.192  19.061  0.00  0.00    +0.000 A 
ATOM     25  C   UNL     1      10.397  11.588  17.726  0.00  0.00    +0.000 A 
ATOM     26  C   UNL     1      11.398  12.503  17.378  0.00  0.00    +0.000 A 
ENDBRANCH  20  24
ENDBRANCH  19  20
ENDBRANCH  17  19
ENDBRANCH  16  17
ENDBRANCH   1  16
TORSDOF 6
ENDMDL
MODEL 8
REMARK VINA RESULT:      -8.0      1.606      7.829
REMARK  Name = 
REMARK  6 active torsions:
REMARK  status: ('A' for Active; 'I' for Inactive)
REMARK    1  A    between atoms: C_4  and  C_5
REMARK    2  A    between atoms: C_5  and  C_6
REMARK    3  A    between atoms: C_6  and  N_7
REMARK    4  A    between atoms: N_7  and  C_8
REMARK    5  A    between atoms: C_8  and  C_9
REMARK    6  A    between atoms: C_12  and  C_13
REMARK                            x       y       z     vdW  Elec       q    Type
REMARK                         _______ _______ _______ _____ _____    ______ ____
ROOT
ATOM      1  C   UNL     1       2.700   7.748  18.123  0.00  0.00    +0.000 A 
ATOM      2  C   UNL     1       2.199   7.596  19.396  0.00  0.00    +0.000 A 
ATOM      3  O   UNL     1       1.446   8.690  19.696  0.00  0.00    +0.000 OA
ATOM      4  C   UNL     1       1.526   9.481  18.575  0.00  0.00    +0.000 A 
ATOM      5  N   UNL     1       2.278   8.962  17.622  0.00  0.00    +0.000 NA
ENDROOT
BRANCH   4   6
ATOM      6  C   UNL     1       0.731  10.720  18.582  0.00  0.00    +0.000 A 
ATOM      7  C   UNL     1       1.332  11.901  19.065  0.00  0.00    +0.000 A 
ATOM      8  C   UNL     1       0.600  13.074  19.216  0.00  0.00    +0.000 A 
ATOM      9  C   UNL     1      -0.760  13.078  18.932  0.00  0.00    +0.000 A 
ATOM     10  C   UNL     1      -1.400  11.923  18.462  0.00  0.00    +0.000 A 
ATOM     11  C   UNL     1      -2.790  11.936  18.255  0.00  0.00    +0.000 A 
ATOM     12  C   UNL     1      -3.455  10.815  17.762  0.00  0.00    +0.000 A 
ATOM     13  C   UNL     1      -2.728   9.686  17.415  0.00  0.00    +0.000 A 
ATOM     14  C   UNL     1      -1.350   9.653  17.635  0.00  0.00    +0.000 A 
ATOM     15  C   UNL     1      -0.651  10.741  18.219  0.00  0.00    +0.000 A 
ENDBRANCH   4   6
BRANCH   1  16
ATOM     16  C   UNL     1       3.620   6.872  17.342  0.00  0.00    +0.000 C 
BRANCH  16  17
ATOM     17  N   UNL     1       4.483   6.081  18.231  0.00  0.00    +0.000 NA
ATOM     18  H   UNL     1       5.371   6.564  18.359  0.00  0.00    +0.000 HD
BRANCH  17  19
ATOM     19  C   UNL     1       4.727   4.758  17.637  0.00  0.00    +0.000 C 
BRANCH  19  20
ATOM     20  C   UNL     1       3.424   3.966  17.455  0.00  0.00    +0.000 C 
BRANCH  20  24
ATOM     21  C   UNL     1       1.519   3.074  21.227  0.00  0.00    +0.000 A 
ATOM     22  C   UNL     1       2.849   2.714  21.015  0.00  0.00    +0.000 A 
ATOM     23  C   UNL     1       3.466   3.012  19.799  0.00  0.00    +0.000 A 
ATOM     24  C   UNL     1       2.763   3.669  18.784  0.00  0.00    +0.000 A 
ATOM     25  C   UNL     1       1.424   4.023  19.006  0.00  0.00    +0.000 A 
ATOM     26  C   UNL     1       0.804   3.728  20.225  0.00  0.00    +0.000 A 
ENDBRANCH  20  24
ENDBRANCH  19  20
ENDBRANCH  17  19
ENDBRANCH  16  17
ENDBRANCH   1  16
TORSDOF 6
ENDMDL
MODEL 9
REMARK VINA RESULT:      -7.9      1.870      3.016
REMARK  Name = 
REMARK  6 active torsions:
REMARK  status: ('A' for Active; 'I' for Inactive)
REMARK    1  A    between atoms: C_4  and  C_5
REMARK    2  A    between atoms: C_5  and  C_6
REMARK    3  A    between atoms: C_6  and  N_7
REMARK    4  A    between atoms: N_7  and  C_8
REMARK    5  A    between atoms: C_8  and  C_9
REMARK    6  A    between atoms: C_12  and  C_13
REMARK                            x       y       z     vdW  Elec       q    Type
REMARK                         _______ _______ _______ _____ _____    ______ ____
ROOT
ATOM      1  C   UNL     1       1.443   9.226  18.881  0.00  0.00    +0.000 A 
ATOM      2  C   UNL     1       1.540   8.595  20.100  0.00  0.00    +0.000 A 
ATOM      3  O   UNL     1       2.146   7.389  19.912  0.00  0.00    +0.000 OA
ATOM      4  C   UNL     1       2.390   7.333  18.561  0.00  0.00    +0.000 A 
ATOM      5  N   UNL     1       1.970   8.402  17.909  0.00  0.00    +0.000 NA
ENDROOT
BRANCH   4   6
ATOM      6  C   UNL     1       3.121   6.153  18.069  0.00  0.00    +0.000 A 
ATOM      7  C   UNL     1       4.259   6.357  17.263  0.00  0.00    +0.000 A 
ATOM      8  C   UNL     1       4.920   5.289  16.664  0.00  0.00    +0.000 A 
ATOM      9  C   UNL     1       4.426   3.999  16.820  0.00  0.00    +0.000 A 
ATOM     10  C   UNL     1       3.289   3.754  17.601  0.00  0.00    +0.000 A 
ATOM     11  C   UNL     1       2.770   2.451  17.681  0.00  0.00    +0.000 A 
ATOM     12  C   UNL     1       1.658   2.165  18.471  0.00  0.00    +0.000 A 
ATOM     13  C   UNL     1       1.088   3.169  19.238  0.00  0.00    +0.000 A 
ATOM     14  C   UNL     1       1.582   4.473  19.153  0.00  0.00    +0.000 A 
ATOM     15  C   UNL     1       2.654   4.821  18.292  0.00  0.00    +0.000 A 
ENDBRANCH   4   6
BRANCH   1  16
ATOM     16  C   UNL     1       0.819  10.533  18.525  0.00  0.00    +0.000 C 
BRANCH  16  17
ATOM     17  N   UNL     1      -0.445  10.338  17.798  0.00  0.00    +0.000 NA
ATOM     18  H   UNL     1      -0.346  10.687  16.847  0.00  0.00    +0.000 HD
BRANCH  17  19
ATOM     19  C   UNL     1      -1.525  11.070  18.478  0.00  0.00    +0.000 C 
BRANCH  19  20
ATOM     20  C   UNL     1      -0.980  12.198  19.364  0.00  0.00    +0.000 C 
BRANCH  20  24
ATOM     21  C   UNL     1      -2.648  11.975  23.342  0.00  0.00    +0.000 A 
ATOM     22  C   UNL     1      -1.461  11.307  23.044  0.00  0.00    +0.000 A 
ATOM     23  C   UNL     1      -0.918  11.388  21.761  0.00  0.00    +0.000 A 
ATOM     24  C   UNL     1      -1.554  12.135  20.763  0.00  0.00    +0.000 A 
ATOM     25  C   UNL     1      -2.750  12.799  21.071  0.00  0.00    +0.000 A 
ATOM     26  C   UNL     1      -3.295  12.722  22.358  0.00  0.00    +0.000 A 
ENDBRANCH  20  24
ENDBRANCH  19  20
ENDBRANCH  17  19
ENDBRANCH  16  17
ENDBRANCH   1  16
TORSDOF 6
ENDMDL
