MODEL 1
REMARK VINA RESULT:      -8.8      0.000      0.000
REMARK  Name = 
REMARK  11 active torsions:
REMARK  status: ('A' for Active; 'I' for Inactive)
REMARK    1  A    between atoms: C_1  and  O_2
REMARK    2  A    between atoms: O_2  and  C_3
REMARK    3  A    between atoms: C_6  and  O_7
REMARK    4  A    between atoms: O_7  and  C_8
REMARK    5  A    between atoms: C_9  and  C_10
REMARK    6  A    between atoms: N_12  and  C_13
REMARK    7  A    between atoms: C_20  and  C_21
REMARK    8  A    between atoms: C_21  and  C_22
REMARK    9  A    between atoms: C_22  and  C_23
REMARK   10  A    between atoms: N_25  and  C_26
REMARK   11  A    between atoms: C_26  and  C_27
REMARK                            x       y       z     vdW  Elec       q    Type
REMARK                         _______ _______ _______ _____ _____    ______ ____
ROOT
ATOM      1  C   UNL     1       5.105   5.401  17.290  0.00  0.00    +0.000 A 
ATOM      2  N   UNL     1       4.890   5.182  15.984  0.00  0.00    +0.000 NA
ATOM      3  N   UNL     1       6.105   4.989  15.448  0.00  0.00    +0.000 N 
ATOM      4  C   UNL     1       7.102   5.258  16.354  0.00  0.00    +0.000 A 
ATOM      5  C   UNL     1       6.506   5.522  17.559  0.00  0.00    +0.000 A 
ENDROOT
BRANCH   1  10
ATOM      6  C   UNL     1       2.386   7.190  19.108  0.00  0.00    +0.000 A 
ATOM      7  C   UNL     1       1.795   6.168  19.850  0.00  0.00    +0.000 A 
ATOM      8  C   UNL     1       2.304   4.881  19.777  0.00  0.00    +0.000 A 
ATOM      9  C   UNL     1       3.358   4.562  18.958  0.00  0.00    +0.000 A 
ATOM     10  C   UNL     1       3.998   5.590  18.221  0.00  0.00    +0.000 A 
ATOM     11  C   UNL     1       3.486   6.899  18.321  0.00  0.00    +0.000 A 
BRANCH   6  13
ATOM     12  C   UNL     1       1.620   9.165  18.063  0.00  0.00    +0.000 C 
ATOM     13  O   UNL     1       1.808   8.419  19.263  0.00  0.00    +0.000 OA
ENDBRANCH   6  13
BRANCH   9  14
ATOM     14  O   UNL     1       3.712   3.241  18.913  0.00  0.00    +0.000 OA
ATOM     15  C   UNL     1       2.836   2.230  19.404  0.00  0.00    +0.000 C 
ENDBRANCH   9  14
ENDBRANCH   1  10
BRANCH   3  16
ATOM     16  C   UNL     1       6.263   4.535  14.118  0.00  0.00    +0.000 A 
ATOM     17  C   UNL     1       5.359   3.612  13.576  0.00  0.00    +0.000 A 
ATOM     18  C   UNL     1       5.577   3.111  12.294  0.00  0.00    +0.000 A 
ATOM     19  C   UNL     1       6.691   3.518  11.571  0.00  0.00    +0.000 A 
ATOM     20  C   UNL     1       7.592   4.439  12.106  0.00  0.00    +0.000 A 
ATOM     21  C   UNL     1       7.370   4.960  13.374  0.00  0.00    +0.000 A 
ENDBRANCH   3  16
BRANCH   5  22
ATOM     22  C   UNL     1       7.158   5.910  18.835  0.00  0.00    +0.000 C 
BRANCH  22  23
ATOM     23  C   UNL     1       8.367   6.808  18.651  0.00  0.00    +0.000 C 
BRANCH  23  24
ATOM     24  C   UNL     1       7.977   8.134  18.045  0.00  0.00    +0.000 C 
ATOM     25  O   UNL     1       7.116   8.282  17.221  0.00  0.00    +0.000 OA
ATOM     26  N   UNL     1       8.743   9.173  18.556  0.00  0.00    +0.000 N 
ATOM     27  H   UNL     1       9.336   9.021  19.356  0.00  0.00    +0.000 HD
BRANCH  26  28
ATOM     28  C   UNL     1       8.541  10.513  18.069  0.00  0.00    +0.000 C 
BRANCH  28  29
ATOM     29  C   UNL     1       9.618  11.447  18.555  0.00  0.00    +0.000 A 
ATOM     30  C   UNL     1      10.347  11.171  19.721  0.00  0.00    +0.000 A 
ATOM     31  C   UNL     1      11.322  12.061  20.178  0.00  0.00    +0.000 A 
ATOM     32  C   UNL     1      11.597  13.224  19.460  0.00  0.00    +0.000 A 
ATOM     33  C   UNL     1      10.900  13.490  18.282  0.00  0.00    +0.000 A 
ATOM     34 CL   UNL     1      11.256  14.912  17.382  0.00  0.00    +0.000 Cl
ATOM     35  C   UNL     1       9.916  12.612  17.828  0.00  0.00    +0.000 A 
ENDBRANCH  28  29
ENDBRANCH  26  28
ENDBRANCH  23  24
ENDBRANCH  22  23
ENDBRANCH   5  22
TORSDOF 9
ENDMDL
MODEL 2
REMARK VINA RESULT:      -8.7      1.186      1.336
REMARK  Name = 
REMARK  11 active torsions:
REMARK  status: ('A' for Active; 'I' for Inactive)
REMARK    1  A    between atoms: C_1  and  O_2
REMARK    2  A    between atoms: O_2  and  C_3
REMARK    3  A    between atoms: C_6  and  O_7
REMARK    4  A    between atoms: O_7  and  C_8
REMARK    5  A    between atoms: C_9  and  C_10
REMARK    6  A    between atoms: N_12  and  C_13
REMARK    7  A    between atoms: C_20  and  C_21
REMARK    8  A    between atoms: C_21  and  C_22
REMARK    9  A    between atoms: C_22  and  C_23
REMARK   10  A    between atoms: N_25  and  C_26
REMARK   11  A    between atoms: C_26  and  C_27
REMARK                            x       y       z     vdW  Elec       q    Type
REMARK                         _______ _______ _______ _____ _____    ______ ____
ROOT
ATOM      1  C   UNL     1       5.130   5.975  17.071  0.00  0.00    +0.000 A 
ATOM      2  N   UNL     1       4.983   5.765  15.755  0.00  0.00    +0.000 NA
ATOM      3  N   UNL     1       6.107   5.145  15.363  0.00  0.00    +0.000 N 
ATOM      4  C   UNL     1       7.041   5.116  16.369  0.00  0.00    +0.000 A 
ATOM      5  C   UNL     1       6.454   5.636  17.494  0.00  0.00    +0.000 A 
ENDROOT
BRANCH   1  10
ATOM      6  C   UNL     1       2.491   8.432  18.017  0.00  0.00    +0.000 A 
ATOM      7  C   UNL     1       1.940   7.859  19.163  0.00  0.00    +0.000 A 
ATOM      8  C   UNL     1       2.451   6.667  19.650  0.00  0.00    +0.000 A 
ATOM      9  C   UNL     1       3.467   5.998  19.014  0.00  0.00    +0.000 A 
ATOM     10  C   UNL     1       4.067   6.578  17.868  0.00  0.00    +0.000 A 
ATOM     11  C   UNL     1       3.554   7.803  17.396  0.00  0.00    +0.000 A 
BRANCH   6  13
ATOM     12  C   UNL     1       0.566   9.802  18.053  0.00  0.00    +0.000 C 
ATOM     13  O   UNL     1       1.915   9.611  17.633  0.00  0.00    +0.000 OA
ENDBRANCH   6  13
BRANCH   9  14
ATOM     14  O   UNL     1       3.824   4.790  19.548  0.00  0.00    +0.000 OA
ATOM     15  C   UNL     1       3.061   3.616  19.281  0.00  0.00    +0.000 C 
ENDBRANCH   9  14
ENDBRANCH   1  10
BRANCH   3  16
ATOM     16  C   UNL     1       6.231   4.587  14.069  0.00  0.00    +0.000 A 
ATOM     17  C   UNL     1       5.266   3.689  13.593  0.00  0.00    +0.000 A 
ATOM     18  C   UNL     1       5.448   3.084  12.351  0.00  0.00    +0.000 A 
ATOM     19  C   UNL     1       6.584   3.364  11.603  0.00  0.00    +0.000 A 
ATOM     20  C   UNL     1       7.545   4.260  12.072  0.00  0.00    +0.000 A 
ATOM     21  C   UNL     1       7.361   4.884  13.299  0.00  0.00    +0.000 A 
ENDBRANCH   3  16
BRANCH   5  22
ATOM     22  C   UNL     1       7.071   5.856  18.826  0.00  0.00    +0.000 C 
BRANCH  22  23
ATOM     23  C   UNL     1       8.338   6.690  18.779  0.00  0.00    +0.000 C 
BRANCH  23  24
ATOM     24  C   UNL     1       8.088   8.031  18.135  0.00  0.00    +0.000 C 
ATOM     25  O   UNL     1       7.399   8.206  17.166  0.00  0.00    +0.000 OA
ATOM     26  N   UNL     1       8.757   9.049  18.801  0.00  0.00    +0.000 N 
ATOM     27  H   UNL     1       9.186   8.875  19.695  0.00  0.00    +0.000 HD
BRANCH  26  28
ATOM     28  C   UNL     1       8.669  10.399  18.309  0.00  0.00    +0.000 C 
BRANCH  28  29
ATOM     29  C   UNL     1       9.758  11.269  18.880  0.00  0.00    +0.000 A 
ATOM     30  C   UNL     1      11.078  11.177  18.415  0.00  0.00    +0.000 A 
ATOM     31  C   UNL     1      12.086  11.968  18.973  0.00  0.00    +0.000 A 
ATOM     32  C   UNL     1      11.779  12.877  19.986  0.00  0.00    +0.000 A 
ATOM     33  C   UNL     1      10.463  12.998  20.430  0.00  0.00    +0.000 A 
ATOM     34 CL   UNL     1      10.079  14.138  21.660  0.00  0.00    +0.000 Cl
ATOM     35  C   UNL     1       9.456  12.202  19.885  0.00  0.00    +0.000 A 
ENDBRANCH  28  29
ENDBRANCH  26  28
ENDBRANCH  23  24
ENDBRANCH  22  23
ENDBRANCH   5  22
TORSDOF 9
ENDMDL
MODEL 3
REMARK VINA RESULT:      -8.7      4.494      8.294
REMARK  Name = 
REMARK  11 active torsions:
REMARK  status: ('A' for Active; 'I' for Inactive)
REMARK    1  A    between atoms: C_1  and  O_2
REMARK    2  A    between atoms: O_2  and  C_3
REMARK    3  A    between atoms: C_6  and  O_7
REMARK    4  A    between atoms: O_7  and  C_8
REMARK    5  A    between atoms: C_9  and  C_10
REMARK    6  A    between atoms: N_12  and  C_13
REMARK    7  A    between atoms: C_20  and  C_21
REMARK    8  A    between atoms: C_21  and  C_22
REMARK    9  A    between atoms: C_22  and  C_23
REMARK   10  A    between atoms: N_25  and  C_26
REMARK   11  A    between atoms: C_26  and  C_27
REMARK                            x       y       z     vdW  Elec       q    Type
REMARK                         _______ _______ _______ _____ _____    ______ ____
ROOT
ATOM      1  C   UNL     1       2.714   6.509  19.249  0.00  0.00    +0.000 A 
ATOM      2  N   UNL     1       2.106   7.082  20.299  0.00  0.00    +0.000 NA
ATOM      3  N   UNL     1       1.701   8.286  19.866  0.00  0.00    +0.000 N 
ATOM      4  C   UNL     1       2.196   8.562  18.614  0.00  0.00    +0.000 A 
ATOM      5  C   UNL     1       2.852   7.442  18.173  0.00  0.00    +0.000 A 
ENDROOT
BRANCH   1  10
ATOM      6  C   UNL     1       2.680   2.785  19.085  0.00  0.00    +0.000 A 
ATOM      7  C   UNL     1       4.021   2.461  19.293  0.00  0.00    +0.000 A 
ATOM      8  C   UNL     1       4.947   3.468  19.514  0.00  0.00    +0.000 A 
ATOM      9  C   UNL     1       4.595   4.795  19.495  0.00  0.00    +0.000 A 
ATOM     10  C   UNL     1       3.234   5.148  19.322  0.00  0.00    +0.000 A 
ATOM     11  C   UNL     1       2.298   4.113  19.121  0.00  0.00    +0.000 A 
BRANCH   6  13
ATOM     12  C   UNL     1       0.460   2.006  18.872  0.00  0.00    +0.000 C 
ATOM     13  O   UNL     1       1.855   1.713  18.887  0.00  0.00    +0.000 OA
ENDBRANCH   6  13
BRANCH   9  14
ATOM     14  O   UNL     1       5.616   5.693  19.644  0.00  0.00    +0.000 OA
ATOM     15  C   UNL     1       6.977   5.276  19.577  0.00  0.00    +0.000 C 
ENDBRANCH   9  14
ENDBRANCH   1  10
BRANCH   3  16
ATOM     16  C   UNL     1       0.847   9.102  20.643  0.00  0.00    +0.000 A 
ATOM     17  C   UNL     1       0.362  10.310  20.124  0.00  0.00    +0.000 A 
ATOM     18  C   UNL     1      -0.410  11.142  20.932  0.00  0.00    +0.000 A 
ATOM     19  C   UNL     1      -0.681  10.777  22.244  0.00  0.00    +0.000 A 
ATOM     20  C   UNL     1      -0.202   9.574  22.764  0.00  0.00    +0.000 A 
ATOM     21  C   UNL     1       0.548   8.729  21.958  0.00  0.00    +0.000 A 
ENDBRANCH   3  16
BRANCH   5  22
ATOM     22  C   UNL     1       3.591   7.261  16.898  0.00  0.00    +0.000 C 
BRANCH  22  23
ATOM     23  C   UNL     1       4.977   7.876  16.906  0.00  0.00    +0.000 C 
BRANCH  23  24
ATOM     24  C   UNL     1       6.040   6.836  16.649  0.00  0.00    +0.000 C 
ATOM     25  O   UNL     1       7.222   7.034  16.726  0.00  0.00    +0.000 OA
ATOM     26  N   UNL     1       5.483   5.612  16.306  0.00  0.00    +0.000 N 
ATOM     27  H   UNL     1       4.493   5.456  16.414  0.00  0.00    +0.000 HD
BRANCH  26  28
ATOM     28  C   UNL     1       6.343   4.502  15.987  0.00  0.00    +0.000 C 
BRANCH  28  29
ATOM     29  C   UNL     1       6.595   4.404  14.505  0.00  0.00    +0.000 A 
ATOM     30  C   UNL     1       7.598   5.166  13.889  0.00  0.00    +0.000 A 
ATOM     31  C   UNL     1       7.803   5.089  12.508  0.00  0.00    +0.000 A 
ATOM     32  C   UNL     1       7.022   4.231  11.734  0.00  0.00    +0.000 A 
ATOM     33  C   UNL     1       6.046   3.446  12.345  0.00  0.00    +0.000 A 
ATOM     34 CL   UNL     1       5.099   2.368  11.395  0.00  0.00    +0.000 Cl
ATOM     35  C   UNL     1       5.828   3.528  13.720  0.00  0.00    +0.000 A 
ENDBRANCH  28  29
ENDBRANCH  26  28
ENDBRANCH  23  24
ENDBRANCH  22  23
ENDBRANCH   5  22
TORSDOF 9
ENDMDL
MODEL 4
REMARK VINA RESULT:      -8.5      5.780     10.644
REMARK  Name = 
REMARK  11 active torsions:
REMARK  status: ('A' for Active; 'I' for Inactive)
REMARK    1  A    between atoms: C_1  and  O_2
REMARK    2  A    between atoms: O_2  and  C_3
REMARK    3  A    between atoms: C_6  and  O_7
REMARK    4  A    between atoms: O_7  and  C_8
REMARK    5  A    between atoms: C_9  and  C_10
REMARK    6  A    between atoms: N_12  and  C_13
REMARK    7  A    between atoms: C_20  and  C_21
REMARK    8  A    between atoms: C_21  and  C_22
REMARK    9  A    between atoms: C_22  and  C_23
REMARK   10  A    between atoms: N_25  and  C_26
REMARK   11  A    between atoms: C_26  and  C_27
REMARK                            x       y       z     vdW  Elec       q    Type
REMARK                         _______ _______ _______ _____ _____    ______ ____
ROOT
ATOM      1  C   UNL     1      -0.473  12.306  18.495  0.00  0.00    +0.000 A 
ATOM      2  N   UNL     1       0.003  13.554  18.614  0.00  0.00    +0.000 NA
ATOM      3  N   UNL     1       1.338  13.425  18.669  0.00  0.00    +0.000 N 
ATOM      4  C   UNL     1       1.711  12.107  18.767  0.00  0.00    +0.000 A 
ATOM      5  C   UNL     1       0.576  11.346  18.653  0.00  0.00    +0.000 A 
ENDROOT
BRANCH   1  10
ATOM      6  C   UNL     1      -3.619  11.160  16.854  0.00  0.00    +0.000 A 
ATOM      7  C   UNL     1      -4.571  11.361  17.854  0.00  0.00    +0.000 A 
ATOM      8  C   UNL     1      -4.189  11.899  19.071  0.00  0.00    +0.000 A 
ATOM      9  C   UNL     1      -2.882  12.210  19.350  0.00  0.00    +0.000 A 
ATOM     10  C   UNL     1      -1.901  12.049  18.339  0.00  0.00    +0.000 A 
ATOM     11  C   UNL     1      -2.306  11.522  17.097  0.00  0.00    +0.000 A 
BRANCH   6  13
ATOM     12  C   UNL     1      -3.128  10.241  14.735  0.00  0.00    +0.000 C 
ATOM     13  O   UNL     1      -4.109  10.633  15.693  0.00  0.00    +0.000 OA
ENDBRANCH   6  13
BRANCH   9  14
ATOM     14  O   UNL     1      -2.622  12.656  20.617  0.00  0.00    +0.000 OA
ATOM     15  C   UNL     1      -3.681  13.029  21.495  0.00  0.00    +0.000 C 
ENDBRANCH   9  14
ENDBRANCH   1  10
BRANCH   3  16
ATOM     16  C   UNL     1       2.193  14.549  18.598  0.00  0.00    +0.000 A 
ATOM     17  C   UNL     1       3.464  14.433  18.020  0.00  0.00    +0.000 A 
ATOM     18  C   UNL     1       4.326  15.528  18.035  0.00  0.00    +0.000 A 
ATOM     19  C   UNL     1       3.926  16.717  18.632  0.00  0.00    +0.000 A 
ATOM     20  C   UNL     1       2.660  16.838  19.206  0.00  0.00    +0.000 A 
ATOM     21  C   UNL     1       1.787  15.758  19.175  0.00  0.00    +0.000 A 
ENDBRANCH   3  16
BRANCH   5  22
ATOM     22  C   UNL     1       0.455   9.869  18.740  0.00  0.00    +0.000 C 
BRANCH  22  23
ATOM     23  C   UNL     1       1.557   9.125  18.009  0.00  0.00    +0.000 C 
BRANCH  23  24
ATOM     24  C   UNL     1       2.140   8.029  18.867  0.00  0.00    +0.000 C 
ATOM     25  O   UNL     1       1.933   7.899  20.042  0.00  0.00    +0.000 OA
ATOM     26  N   UNL     1       2.955   7.183  18.127  0.00  0.00    +0.000 N 
ATOM     27  H   UNL     1       2.966   7.239  17.122  0.00  0.00    +0.000 HD
BRANCH  26  28
ATOM     28  C   UNL     1       3.633   6.095  18.783  0.00  0.00    +0.000 C 
BRANCH  28  29
ATOM     29  C   UNL     1       2.735   4.896  18.940  0.00  0.00    +0.000 A 
ATOM     30  C   UNL     1       2.105   4.312  17.832  0.00  0.00    +0.000 A 
ATOM     31  C   UNL     1       1.250   3.218  17.994  0.00  0.00    +0.000 A 
ATOM     32  C   UNL     1       1.036   2.683  19.264  0.00  0.00    +0.000 A 
ATOM     33  C   UNL     1       1.684   3.237  20.366  0.00  0.00    +0.000 A 
ATOM     34 CL   UNL     1       1.441   2.560  21.929  0.00  0.00    +0.000 Cl
ATOM     35  C   UNL     1       2.528   4.336  20.212  0.00  0.00    +0.000 A 
ENDBRANCH  28  29
ENDBRANCH  26  28
ENDBRANCH  23  24
ENDBRANCH  22  23
ENDBRANCH   5  22
TORSDOF 9
ENDMDL
MODEL 5
REMARK VINA RESULT:      -8.5      1.524      2.754
REMARK  Name = 
REMARK  11 active torsions:
REMARK  status: ('A' for Active; 'I' for Inactive)
REMARK    1  A    between atoms: C_1  and  O_2
REMARK    2  A    between atoms: O_2  and  C_3
REMARK    3  A    between atoms: C_6  and  O_7
REMARK    4  A    between atoms: O_7  and  C_8
REMARK    5  A    between atoms: C_9  and  C_10
REMARK    6  A    between atoms: N_12  and  C_13
REMARK    7  A    between atoms: C_20  and  C_21
REMARK    8  A    between atoms: C_21  and  C_22
REMARK    9  A    between atoms: C_22  and  C_23
REMARK   10  A    between atoms: N_25  and  C_26
REMARK   11  A    between atoms: C_26  and  C_27
REMARK                            x       y       z     vdW  Elec       q    Type
REMARK                         _______ _______ _______ _____ _____    ______ ____
ROOT
ATOM      1  C   UNL     1       4.984   5.471  17.523  0.00  0.00    +0.000 A 
ATOM      2  N   UNL     1       4.782   5.257  16.214  0.00  0.00    +0.000 NA
ATOM      3  N   UNL     1       6.002   5.057  15.691  0.00  0.00    +0.000 N 
ATOM      4  C   UNL     1       6.990   5.317  16.609  0.00  0.00    +0.000 A 
ATOM      5  C   UNL     1       6.382   5.581  17.808  0.00  0.00    +0.000 A 
ENDROOT
BRANCH   1  10
ATOM      6  C   UNL     1       2.669   4.730  20.349  0.00  0.00    +0.000 A 
ATOM      7  C   UNL     1       1.863   5.868  20.386  0.00  0.00    +0.000 A 
ATOM      8  C   UNL     1       2.059   6.882  19.462  0.00  0.00    +0.000 A 
ATOM      9  C   UNL     1       3.059   6.825  18.523  0.00  0.00    +0.000 A 
ATOM     10  C   UNL     1       3.868   5.664  18.443  0.00  0.00    +0.000 A 
ATOM     11  C   UNL     1       3.643   4.630  19.374  0.00  0.00    +0.000 A 
BRANCH   6  13
ATOM     12  C   UNL     1       2.902   2.489  21.056  0.00  0.00    +0.000 C 
ATOM     13  O   UNL     1       2.380   3.793  21.301  0.00  0.00    +0.000 OA
ENDBRANCH   6  13
BRANCH   9  14
ATOM     14  O   UNL     1       3.202   7.925  17.723  0.00  0.00    +0.000 OA
ATOM     15  C   UNL     1       2.244   8.980  17.749  0.00  0.00    +0.000 C 
ENDBRANCH   9  14
ENDBRANCH   1  10
BRANCH   3  16
ATOM     16  C   UNL     1       6.171   4.606  14.361  0.00  0.00    +0.000 A 
ATOM     17  C   UNL     1       5.232   3.740  13.785  0.00  0.00    +0.000 A 
ATOM     18  C   UNL     1       5.458   3.238  12.505  0.00  0.00    +0.000 A 
ATOM     19  C   UNL     1       6.613   3.588  11.818  0.00  0.00    +0.000 A 
ATOM     20  C   UNL     1       7.548   4.453  12.386  0.00  0.00    +0.000 A 
ATOM     21  C   UNL     1       7.320   4.975  13.652  0.00  0.00    +0.000 A 
ENDBRANCH   3  16
BRANCH   5  22
ATOM     22  C   UNL     1       7.023   5.961  19.092  0.00  0.00    +0.000 C 
BRANCH  22  23
ATOM     23  C   UNL     1       8.341   6.693  18.921  0.00  0.00    +0.000 C 
BRANCH  23  24
ATOM     24  C   UNL     1       8.141   8.033  18.255  0.00  0.00    +0.000 C 
ATOM     25  O   UNL     1       7.385   8.237  17.345  0.00  0.00    +0.000 OA
ATOM     26  N   UNL     1       8.946   9.010  18.825  0.00  0.00    +0.000 N 
ATOM     27  H   UNL     1       9.438   8.825  19.684  0.00  0.00    +0.000 HD
BRANCH  26  28
ATOM     28  C   UNL     1       8.922  10.349  18.296  0.00  0.00    +0.000 C 
BRANCH  28  29
ATOM     29  C   UNL     1       9.445  11.348  19.294  0.00  0.00    +0.000 A 
ATOM     30  C   UNL     1      10.417  12.293  18.933  0.00  0.00    +0.000 A 
ATOM     31  C   UNL     1      10.918  13.195  19.875  0.00  0.00    +0.000 A 
ATOM     32  C   UNL     1      10.432  13.178  21.183  0.00  0.00    +0.000 A 
ATOM     33  C   UNL     1       9.442  12.265  21.541  0.00  0.00    +0.000 A 
ATOM     34 CL   UNL     1       8.825  12.261  23.147  0.00  0.00    +0.000 Cl
ATOM     35  C   UNL     1       8.949  11.353  20.608  0.00  0.00    +0.000 A 
ENDBRANCH  28  29
ENDBRANCH  26  28
ENDBRANCH  23  24
ENDBRANCH  22  23
ENDBRANCH   5  22
TORSDOF 9
ENDMDL
MODEL 6
REMARK VINA RESULT:      -8.5      1.146      1.688
REMARK  Name = 
REMARK  11 active torsions:
REMARK  status: ('A' for Active; 'I' for Inactive)
REMARK    1  A    between atoms: C_1  and  O_2
REMARK    2  A    between atoms: O_2  and  C_3
REMARK    3  A    between atoms: C_6  and  O_7
REMARK    4  A    between atoms: O_7  and  C_8
REMARK    5  A    between atoms: C_9  and  C_10
REMARK    6  A    between atoms: N_12  and  C_13
REMARK    7  A    between atoms: C_20  and  C_21
REMARK    8  A    between atoms: C_21  and  C_22
REMARK    9  A    between atoms: C_22  and  C_23
REMARK   10  A    between atoms: N_25  and  C_26
REMARK   11  A    between atoms: C_26  and  C_27
REMARK                            x       y       z     vdW  Elec       q    Type
REMARK                         _______ _______ _______ _____ _____    ______ ____
ROOT
ATOM      1  C   UNL     1       5.330   5.732  16.982  0.00  0.00    +0.000 A 
ATOM      2  N   UNL     1       5.039   5.144  15.813  0.00  0.00    +0.000 NA
ATOM      3  N   UNL     1       6.177   5.176  15.101  0.00  0.00    +0.000 N 
ATOM      4  C   UNL     1       7.138   5.932  15.727  0.00  0.00    +0.000 A 
ATOM      5  C   UNL     1       6.640   6.308  16.947  0.00  0.00    +0.000 A 
ENDROOT
BRANCH   1  10
ATOM      6  C   UNL     1       2.593   7.206  19.039  0.00  0.00    +0.000 A 
ATOM      7  C   UNL     1       2.311   6.184  19.945  0.00  0.00    +0.000 A 
ATOM      8  C   UNL     1       3.040   5.006  19.903  0.00  0.00    +0.000 A 
ATOM      9  C   UNL     1       4.015   4.789  18.962  0.00  0.00    +0.000 A 
ATOM     10  C   UNL     1       4.343   5.825  18.053  0.00  0.00    +0.000 A 
ATOM     11  C   UNL     1       3.611   7.028  18.121  0.00  0.00    +0.000 A 
BRANCH   6  13
ATOM     12  C   UNL     1       1.667   9.117  18.003  0.00  0.00    +0.000 C 
ATOM     13  O   UNL     1       1.819   8.325  19.179  0.00  0.00    +0.000 OA
ENDBRANCH   6  13
BRANCH   9  14
ATOM     14  O   UNL     1       4.603   3.554  18.973  0.00  0.00    +0.000 OA
ATOM     15  C   UNL     1       4.275   2.594  19.976  0.00  0.00    +0.000 C 
ENDBRANCH   9  14
ENDBRANCH   1  10
BRANCH   3  16
ATOM     16  C   UNL     1       6.308   4.469  13.883  0.00  0.00    +0.000 A 
ATOM     17  C   UNL     1       7.416   4.691  13.055  0.00  0.00    +0.000 A 
ATOM     18  C   UNL     1       7.488   4.049  11.820  0.00  0.00    +0.000 A 
ATOM     19  C   UNL     1       6.458   3.210  11.415  0.00  0.00    +0.000 A 
ATOM     20  C   UNL     1       5.354   2.985  12.238  0.00  0.00    +0.000 A 
ATOM     21  C   UNL     1       5.286   3.602  13.479  0.00  0.00    +0.000 A 
ENDBRANCH   3  16
BRANCH   5  22
ATOM     22  C   UNL     1       7.285   7.169  17.970  0.00  0.00    +0.000 C 
BRANCH  22  23
ATOM     23  C   UNL     1       7.707   8.527  17.443  0.00  0.00    +0.000 C 
BRANCH  23  24
ATOM     24  C   UNL     1       8.568   9.260  18.444  0.00  0.00    +0.000 C 
ATOM     25  O   UNL     1       9.120   8.744  19.377  0.00  0.00    +0.000 OA
ATOM     26  N   UNL     1       8.643  10.616  18.155  0.00  0.00    +0.000 N 
ATOM     27  H   UNL     1       8.298  10.968  17.276  0.00  0.00    +0.000 HD
BRANCH  26  28
ATOM     28  C   UNL     1       9.391  11.488  19.022  0.00  0.00    +0.000 C 
BRANCH  28  29
ATOM     29  C   UNL     1      10.050  12.603  18.253  0.00  0.00    +0.000 A 
ATOM     30  C   UNL     1      11.162  12.360  17.433  0.00  0.00    +0.000 A 
ATOM     31  C   UNL     1      11.784  13.407  16.749  0.00  0.00    +0.000 A 
ATOM     32  C   UNL     1      11.284  14.705  16.857  0.00  0.00    +0.000 A 
ATOM     33  C   UNL     1      10.159  14.949  17.643  0.00  0.00    +0.000 A 
ATOM     34 CL   UNL     1       9.526  16.545  17.756  0.00  0.00    +0.000 Cl
ATOM     35  C   UNL     1       9.543  13.909  18.339  0.00  0.00    +0.000 A 
ENDBRANCH  28  29
ENDBRANCH  26  28
ENDBRANCH  23  24
ENDBRANCH  22  23
ENDBRANCH   5  22
TORSDOF 9
ENDMDL
MODEL 7
REMARK VINA RESULT:      -8.5      6.022     10.571
REMARK  Name = 
REMARK  11 active torsions:
REMARK  status: ('A' for Active; 'I' for Inactive)
REMARK    1  A    between atoms: C_1  and  O_2
REMARK    2  A    between atoms: O_2  and  C_3
REMARK    3  A    between atoms: C_6  and  O_7
REMARK    4  A    between atoms: O_7  and  C_8
REMARK    5  A    between atoms: C_9  and  C_10
REMARK    6  A    between atoms: N_12  and  C_13
REMARK    7  A    between atoms: C_20  and  C_21
REMARK    8  A    between atoms: C_21  and  C_22
REMARK    9  A    between atoms: C_22  and  C_23
REMARK   10  A    between atoms: N_25  and  C_26
REMARK   11  A    between atoms: C_26  and  C_27
REMARK                            x       y       z     vdW  Elec       q    Type
REMARK                         _______ _______ _______ _____ _____    ______ ____
ROOT
ATOM      1  C   UNL     1      -0.038  12.541  20.368  0.00  0.00    +0.000 A 
ATOM      2  N   UNL     1       0.678  13.666  20.229  0.00  0.00    +0.000 NA
ATOM      3  N   UNL     1       1.536  13.425  19.226  0.00  0.00    +0.000 N 
ATOM      4  C   UNL     1       1.501  12.106  18.842  0.00  0.00    +0.000 A 
ATOM      5  C   UNL     1       0.496  11.497  19.547  0.00  0.00    +0.000 A 
ENDROOT
BRANCH   1  10
ATOM      6  C   UNL     1      -3.451  13.039  21.782  0.00  0.00    +0.000 A 
ATOM      7  C   UNL     1      -3.397  12.308  22.968  0.00  0.00    +0.000 A 
ATOM      8  C   UNL     1      -2.224  11.663  23.326  0.00  0.00    +0.000 A 
ATOM      9  C   UNL     1      -1.110  11.682  22.525  0.00  0.00    +0.000 A 
ATOM     10  C   UNL     1      -1.129  12.448  21.332  0.00  0.00    +0.000 A 
ATOM     11  C   UNL     1      -2.320  13.119  20.990  0.00  0.00    +0.000 A 
BRANCH   6  13
ATOM     12  C   UNL     1      -5.797  12.963  22.048  0.00  0.00    +0.000 C 
ATOM     13  O   UNL     1      -4.653  13.641  21.534  0.00  0.00    +0.000 OA
ENDBRANCH   6  13
BRANCH   9  14
ATOM     14  O   UNL     1      -0.044  10.938  22.950  0.00  0.00    +0.000 OA
ATOM     15  C   UNL     1      -0.205   9.569  23.316  0.00  0.00    +0.000 C 
ENDBRANCH   9  14
ENDBRANCH   1  10
BRANCH   3  16
ATOM     16  C   UNL     1       2.325  14.455  18.663  0.00  0.00    +0.000 A 
ATOM     17  C   UNL     1       3.640  14.195  18.257  0.00  0.00    +0.000 A 
ATOM     18  C   UNL     1       4.430  15.240  17.783  0.00  0.00    +0.000 A 
ATOM     19  C   UNL     1       3.915  16.529  17.729  0.00  0.00    +0.000 A 
ATOM     20  C   UNL     1       2.605  16.792  18.129  0.00  0.00    +0.000 A 
ATOM     21  C   UNL     1       1.804  15.752  18.581  0.00  0.00    +0.000 A 
ENDBRANCH   3  16
BRANCH   5  22
ATOM     22  C   UNL     1       0.096  10.068  19.515  0.00  0.00    +0.000 C 
BRANCH  22  23
ATOM     23  C   UNL     1       1.188   9.120  19.974  0.00  0.00    +0.000 C 
BRANCH  23  24
ATOM     24  C   UNL     1       1.786   8.369  18.809  0.00  0.00    +0.000 C 
ATOM     25  O   UNL     1       1.776   8.752  17.672  0.00  0.00    +0.000 OA
ATOM     26  N   UNL     1       2.351   7.168  19.215  0.00  0.00    +0.000 N 
ATOM     27  H   UNL     1       2.476   6.970  20.195  0.00  0.00    +0.000 HD
BRANCH  26  28
ATOM     28  C   UNL     1       2.941   6.291  18.236  0.00  0.00    +0.000 C 
BRANCH  28  29
ATOM     29  C   UNL     1       2.588   4.851  18.497  0.00  0.00    +0.000 A 
ATOM     30  C   UNL     1       2.693   3.884  17.487  0.00  0.00    +0.000 A 
ATOM     31  C   UNL     1       2.334   2.556  17.733  0.00  0.00    +0.000 A 
ATOM     32  C   UNL     1       1.889   2.176  18.999  0.00  0.00    +0.000 A 
ATOM     33  C   UNL     1       1.814   3.125  20.018  0.00  0.00    +0.000 A 
ATOM     34 CL   UNL     1       1.290   2.653  21.587  0.00  0.00    +0.000 Cl
ATOM     35  C   UNL     1       2.158   4.454  19.774  0.00  0.00    +0.000 A 
ENDBRANCH  28  29
ENDBRANCH  26  28
ENDBRANCH  23  24
ENDBRANCH  22  23
ENDBRANCH   5  22
TORSDOF 9
ENDMDL
MODEL 8
REMARK VINA RESULT:      -8.5      1.077      1.366
REMARK  Name = 
REMARK  11 active torsions:
REMARK  status: ('A' for Active; 'I' for Inactive)
REMARK    1  A    between atoms: C_1  and  O_2
REMARK    2  A    between atoms: O_2  and  C_3
REMARK    3  A    between atoms: C_6  and  O_7
REMARK    4  A    between atoms: O_7  and  C_8
REMARK    5  A    between atoms: C_9  and  C_10
REMARK    6  A    between atoms: N_12  and  C_13
REMARK    7  A    between atoms: C_20  and  C_21
REMARK    8  A    between atoms: C_21  and  C_22
REMARK    9  A    between atoms: C_22  and  C_23
REMARK   10  A    between atoms: N_25  and  C_26
REMARK   11  A    between atoms: C_26  and  C_27
REMARK                            x       y       z     vdW  Elec       q    Type
REMARK                         _______ _______ _______ _____ _____    ______ ____
ROOT
ATOM      1  C   UNL     1       5.351   4.748  16.937  0.00  0.00    +0.000 A 
ATOM      2  N   UNL     1       4.912   4.548  15.686  0.00  0.00    +0.000 NA
ATOM      3  N   UNL     1       6.006   4.261  14.963  0.00  0.00    +0.000 N 
ATOM      4  C   UNL     1       7.154   4.450  15.695  0.00  0.00    +0.000 A 
ATOM      5  C   UNL     1       6.782   4.759  16.977  0.00  0.00    +0.000 A 
ENDROOT
BRANCH   1  10
ATOM      6  C   UNL     1       2.913   6.668  19.003  0.00  0.00    +0.000 A 
ATOM      7  C   UNL     1       2.533   5.735  19.968  0.00  0.00    +0.000 A 
ATOM      8  C   UNL     1       3.097   4.470  19.962  0.00  0.00    +0.000 A 
ATOM      9  C   UNL     1       3.998   4.080  19.002  0.00  0.00    +0.000 A 
ATOM     10  C   UNL     1       4.427   5.021  18.033  0.00  0.00    +0.000 A 
ATOM     11  C   UNL     1       3.863   6.313  18.064  0.00  0.00    +0.000 A 
BRANCH   6  13
ATOM     12  C   UNL     1       2.339   8.698  17.939  0.00  0.00    +0.000 C 
ATOM     13  O   UNL     1       2.301   7.886  19.111  0.00  0.00    +0.000 OA
ENDBRANCH   6  13
BRANCH   9  14
ATOM     14  O   UNL     1       4.417   2.779  19.057  0.00  0.00    +0.000 OA
ATOM     15  C   UNL     1       4.566   2.108  20.306  0.00  0.00    +0.000 C 
ENDBRANCH   9  14
ENDBRANCH   1  10
BRANCH   3  16
ATOM     16  C   UNL     1       5.912   3.798  13.630  0.00  0.00    +0.000 A 
ATOM     17  C   UNL     1       7.068   3.639  12.855  0.00  0.00    +0.000 A 
ATOM     18  C   UNL     1       6.951   3.263  11.519  0.00  0.00    +0.000 A 
ATOM     19  C   UNL     1       5.694   3.062  10.964  0.00  0.00    +0.000 A 
ATOM     20  C   UNL     1       4.540   3.216  11.733  0.00  0.00    +0.000 A 
ATOM     21  C   UNL     1       4.649   3.568  13.071  0.00  0.00    +0.000 A 
ENDBRANCH   3  16
BRANCH   5  22
ATOM     22  C   UNL     1       7.659   5.093  18.126  0.00  0.00    +0.000 C 
BRANCH  22  23
ATOM     23  C   UNL     1       7.309   6.407  18.797  0.00  0.00    +0.000 C 
BRANCH  23  24
ATOM     24  C   UNL     1       7.581   7.578  17.885  0.00  0.00    +0.000 C 
ATOM     25  O   UNL     1       7.153   7.688  16.769  0.00  0.00    +0.000 OA
ATOM     26  N   UNL     1       8.395   8.522  18.497  0.00  0.00    +0.000 N 
ATOM     27  H   UNL     1       8.592   8.461  19.483  0.00  0.00    +0.000 HD
BRANCH  26  28
ATOM     28  C   UNL     1       8.796   9.696  17.767  0.00  0.00    +0.000 C 
BRANCH  28  29
ATOM     29  C   UNL     1       9.183  10.820  18.693  0.00  0.00    +0.000 A 
ATOM     30  C   UNL     1       9.514  10.573  20.033  0.00  0.00    +0.000 A 
ATOM     31  C   UNL     1       9.842  11.626  20.891  0.00  0.00    +0.000 A 
ATOM     32  C   UNL     1       9.868  12.935  20.409  0.00  0.00    +0.000 A 
ATOM     33  C   UNL     1       9.573  13.185  19.070  0.00  0.00    +0.000 A 
ATOM     34 CL   UNL     1       9.629  14.796  18.469  0.00  0.00    +0.000 Cl
ATOM     35  C   UNL     1       9.232  12.139  18.213  0.00  0.00    +0.000 A 
ENDBRANCH  28  29
ENDBRANCH  26  28
ENDBRANCH  23  24
ENDBRANCH  22  23
ENDBRANCH   5  22
TORSDOF 9
ENDMDL
MODEL 9
REMARK VINA RESULT:      -8.4      6.148      9.829
REMARK  Name = 
REMARK  11 active torsions:
REMARK  status: ('A' for Active; 'I' for Inactive)
REMARK    1  A    between atoms: C_1  and  O_2
REMARK    2  A    between atoms: O_2  and  C_3
REMARK    3  A    between atoms: C_6  and  O_7
REMARK    4  A    between atoms: O_7  and  C_8
REMARK    5  A    between atoms: C_9  and  C_10
REMARK    6  A    between atoms: N_12  and  C_13
REMARK    7  A    between atoms: C_20  and  C_21
REMARK    8  A    between atoms: C_21  and  C_22
REMARK    9  A    between atoms: C_22  and  C_23
REMARK   10  A    between atoms: N_25  and  C_26
REMARK   11  A    between atoms: C_26  and  C_27
REMARK                            x       y       z     vdW  Elec       q    Type
REMARK                         _______ _______ _______ _____ _____    ______ ____
ROOT
ATOM      1  C   UNL     1       1.385   9.196  19.186  0.00  0.00    +0.000 A 
ATOM      2  N   UNL     1       2.144   8.651  18.223  0.00  0.00    +0.000 NA
ATOM      3  N   UNL     1       2.549   7.469  18.711  0.00  0.00    +0.000 N 
ATOM      4  C   UNL     1       2.209   7.329  20.035  0.00  0.00    +0.000 A 
ATOM      5  C   UNL     1       1.451   8.417  20.384  0.00  0.00    +0.000 A 
ENDROOT
BRANCH   1  10
ATOM      6  C   UNL     1       0.869  12.886  19.294  0.00  0.00    +0.000 A 
ATOM      7  C   UNL     1      -0.341  13.042  18.619  0.00  0.00    +0.000 A 
ATOM      8  C   UNL     1      -1.012  11.928  18.141  0.00  0.00    +0.000 A 
ATOM      9  C   UNL     1      -0.503  10.661  18.275  0.00  0.00    +0.000 A 
ATOM     10  C   UNL     1       0.707  10.473  18.989  0.00  0.00    +0.000 A 
ATOM     11  C   UNL     1       1.369  11.612  19.490  0.00  0.00    +0.000 A 
BRANCH   6  13
ATOM     12  C   UNL     1       1.528  14.200  21.143  0.00  0.00    +0.000 C 
ATOM     13  O   UNL     1       1.438  14.051  19.728  0.00  0.00    +0.000 OA
ENDBRANCH   6  13
BRANCH   9  14
ATOM     14  O   UNL     1      -1.220   9.655  17.688  0.00  0.00    +0.000 OA
ATOM     15  C   UNL     1      -2.622   9.787  17.465  0.00  0.00    +0.000 C 
ENDBRANCH   9  14
ENDBRANCH   1  10
BRANCH   3  16
ATOM     16  C   UNL     1       3.211   6.520  17.897  0.00  0.00    +0.000 A 
ATOM     17  C   UNL     1       2.844   5.169  17.948  0.00  0.00    +0.000 A 
ATOM     18  C   UNL     1       3.562   4.236  17.203  0.00  0.00    +0.000 A 
ATOM     19  C   UNL     1       4.640   4.647  16.430  0.00  0.00    +0.000 A 
ATOM     20  C   UNL     1       5.006   5.992  16.373  0.00  0.00    +0.000 A 
ATOM     21  C   UNL     1       4.282   6.932  17.095  0.00  0.00    +0.000 A 
ENDBRANCH   3  16
BRANCH   5  22
ATOM     22  C   UNL     1       0.885   8.744  21.717  0.00  0.00    +0.000 C 
BRANCH  22  23
ATOM     23  C   UNL     1      -0.562   9.197  21.668  0.00  0.00    +0.000 C 
BRANCH  23  24
ATOM     24  C   UNL     1      -0.761  10.479  22.439  0.00  0.00    +0.000 C 
ATOM     25  O   UNL     1      -0.356  10.676  23.552  0.00  0.00    +0.000 OA
ATOM     26  N   UNL     1      -1.477  11.411  21.701  0.00  0.00    +0.000 N 
ATOM     27  H   UNL     1      -1.651  11.258  20.720  0.00  0.00    +0.000 HD
BRANCH  26  28
ATOM     28  C   UNL     1      -1.799  12.687  22.285  0.00  0.00    +0.000 C 
BRANCH  28  29
ATOM     29  C   UNL     1      -3.224  12.731  22.771  0.00  0.00    +0.000 A 
ATOM     30  C   UNL     1      -3.543  12.459  24.109  0.00  0.00    +0.000 A 
ATOM     31  C   UNL     1      -4.872  12.473  24.541  0.00  0.00    +0.000 A 
ATOM     32  C   UNL     1      -5.893  12.784  23.643  0.00  0.00    +0.000 A 
ATOM     33  C   UNL     1      -5.581  13.088  22.320  0.00  0.00    +0.000 A 
ATOM     34 CL   UNL     1      -6.838  13.497  21.218  0.00  0.00    +0.000 Cl
ATOM     35  C   UNL     1      -4.258  13.062  21.880  0.00  0.00    +0.000 A 
ENDBRANCH  28  29
ENDBRANCH  26  28
ENDBRANCH  23  24
ENDBRANCH  22  23
ENDBRANCH   5  22
TORSDOF 9
ENDMDL
