MODEL 1
REMARK VINA RESULT:      -9.6      0.000      0.000
REMARK  Name = 
REMARK  6 active torsions:
REMARK  status: ('A' for Active; 'I' for Inactive)
REMARK    1  A    between atoms: C_1  and  C_2
REMARK    2  A    between atoms: C_5  and  C_6
REMARK    3  A    between atoms: C_8  and  C_9
REMARK    4  A    between atoms: N_11  and  C_12
REMARK    5  A    between atoms: C_15  and  O_16
REMARK    6  A    between atoms: O_16  and  C_17
REMARK                            x       y       z     vdW  Elec       q    Type
REMARK                         _______ _______ _______ _____ _____    ______ ____
ROOT
ATOM      1  C   UNL     1       0.885  10.316  21.328  0.00  0.00    +0.000 C 
ATOM      2  O   UNL     1       1.376   9.693  22.265  0.00  0.00    +0.000 OA
ATOM      3  N   UNL     1       0.968   9.982  19.989  0.00  0.00    +0.000 N 
ATOM      4  H   UNL     1       0.604  10.674  19.338  0.00  0.00    +0.000 HD
ENDROOT
BRANCH   1   7
ATOM      5  C   UNL     1      -1.824  12.654  22.285  0.00  0.00    +0.000 A 
ATOM      6  C   UNL     1      -1.158  11.476  22.047  0.00  0.00    +0.000 A 
ATOM      7  C   UNL     1       0.153  11.581  21.628  0.00  0.00    +0.000 A 
ATOM      8  N   UNL     1       0.811  12.749  21.456  0.00  0.00    +0.000 NA
ATOM      9  C   UNL     1       0.073  13.835  21.718  0.00  0.00    +0.000 A 
ATOM     10  N   UNL     1      -1.207  13.849  22.130  0.00  0.00    +0.000 NA
BRANCH   5  15
ATOM     11  C   UNL     1      -7.381  12.851  23.998  0.00  0.00    +0.000 C 
ATOM     12  C   UNL     1      -5.950  12.765  23.560  0.00  0.00    +0.000 A 
ATOM     13  C   UNL     1      -4.923  12.539  24.480  0.00  0.00    +0.000 A 
ATOM     14  C   UNL     1      -3.588  12.500  24.059  0.00  0.00    +0.000 A 
ATOM     15  C   UNL     1      -3.239  12.683  22.712  0.00  0.00    +0.000 A 
ATOM     16  C   UNL     1      -4.290  12.896  21.798  0.00  0.00    +0.000 A 
ATOM     17  C   UNL     1      -5.625  12.935  22.213  0.00  0.00    +0.000 A 
ENDBRANCH   5  15
ENDBRANCH   1   7
BRANCH   3  18
ATOM     18  C   UNL     1       1.593   8.830  19.469  0.00  0.00    +0.000 A 
ATOM     19  C   UNL     1       2.131   8.773  18.179  0.00  0.00    +0.000 A 
ATOM     20  C   UNL     1       2.743   7.610  17.708  0.00  0.00    +0.000 A 
ATOM     21  C   UNL     1       2.829   6.489  18.526  0.00  0.00    +0.000 A 
ATOM     22  C   UNL     1       2.255   6.519  19.800  0.00  0.00    +0.000 A 
ATOM     23  C   UNL     1       1.675   7.698  20.284  0.00  0.00    +0.000 A 
BRANCH  21  24
ATOM     24  O   UNL     1       3.444   5.390  17.976  0.00  0.00    +0.000 OA
BRANCH  24  25
ATOM     25  C   UNL     1       4.810   5.249  18.091  0.00  0.00    +0.000 A 
ATOM     26  C   UNL     1       5.514   5.409  19.291  0.00  0.00    +0.000 A 
ATOM     27  C   UNL     1       6.885   5.204  19.298  0.00  0.00    +0.000 A 
ATOM     28  N   UNL     1       7.644   4.903  18.221  0.00  0.00    +0.000 NA
ATOM     29  C   UNL     1       6.934   4.837  17.082  0.00  0.00    +0.000 A 
ATOM     30  N   UNL     1       7.470   4.592  15.850  0.00  0.00    +0.000 N 
ATOM     31  C   UNL     1       6.481   4.607  14.900  0.00  0.00    +0.000 A 
ATOM     32  C   UNL     1       5.286   4.852  15.539  0.00  0.00    +0.000 A 
ATOM     33  C   UNL     1       5.562   4.997  16.929  0.00  0.00    +0.000 A 
ATOM     34  H   UNL     1       8.454   4.437  15.693  0.00  0.00    +0.000 HD
ENDBRANCH  24  25
ENDBRANCH  21  24
ENDBRANCH   3  18
TORSDOF 5
ENDMDL
MODEL 2
REMARK VINA RESULT:      -9.6      7.505     11.065
REMARK  Name = 
REMARK  6 active torsions:
REMARK  status: ('A' for Active; 'I' for Inactive)
REMARK    1  A    between atoms: C_1  and  C_2
REMARK    2  A    between atoms: C_5  and  C_6
REMARK    3  A    between atoms: C_8  and  C_9
REMARK    4  A    between atoms: N_11  and  C_12
REMARK    5  A    between atoms: C_15  and  O_16
REMARK    6  A    between atoms: O_16  and  C_17
REMARK                            x       y       z     vdW  Elec       q    Type
REMARK                         _______ _______ _______ _____ _____    ______ ____
ROOT
ATOM      1  C   UNL     1       7.786   7.402  17.858  0.00  0.00    +0.000 C 
ATOM      2  O   UNL     1       8.406   7.052  18.858  0.00  0.00    +0.000 OA
ATOM      3  N   UNL     1       7.666   8.693  17.378  0.00  0.00    +0.000 N 
ATOM      4  H   UNL     1       7.017   8.818  16.605  0.00  0.00    +0.000 HD
ENDROOT
BRANCH   1   7
ATOM      5  C   UNL     1       5.245   4.872  16.932  0.00  0.00    +0.000 A 
ATOM      6  C   UNL     1       5.891   5.855  17.643  0.00  0.00    +0.000 A 
ATOM      7  C   UNL     1       7.048   6.361  17.086  0.00  0.00    +0.000 A 
ATOM      8  N   UNL     1       7.564   5.966  15.901  0.00  0.00    +0.000 NA
ATOM      9  C   UNL     1       6.857   5.009  15.289  0.00  0.00    +0.000 A 
ATOM     10  N   UNL     1       5.721   4.446  15.739  0.00  0.00    +0.000 NA
BRANCH   5  15
ATOM     11  C   UNL     1       0.425   2.324  18.965  0.00  0.00    +0.000 C 
ATOM     12  C   UNL     1       1.658   2.970  18.409  0.00  0.00    +0.000 A 
ATOM     13  C   UNL     1       2.778   2.211  18.057  0.00  0.00    +0.000 A 
ATOM     14  C   UNL     1       3.935   2.833  17.575  0.00  0.00    +0.000 A 
ATOM     15  C   UNL     1       4.010   4.227  17.428  0.00  0.00    +0.000 A 
ATOM     16  C   UNL     1       2.866   4.974  17.774  0.00  0.00    +0.000 A 
ATOM     17  C   UNL     1       1.708   4.356  18.256  0.00  0.00    +0.000 A 
ENDBRANCH   5  15
ENDBRANCH   1   7
BRANCH   3  18
ATOM     18  C   UNL     1       8.285   9.834  17.931  0.00  0.00    +0.000 A 
ATOM     19  C   UNL     1       8.109  11.122  17.413  0.00  0.00    +0.000 A 
ATOM     20  C   UNL     1       8.740  12.221  17.996  0.00  0.00    +0.000 A 
ATOM     21  C   UNL     1       9.553  12.047  19.110  0.00  0.00    +0.000 A 
ATOM     22  C   UNL     1       9.773  10.760  19.610  0.00  0.00    +0.000 A 
ATOM     23  C   UNL     1       9.109   9.663  19.047  0.00  0.00    +0.000 A 
BRANCH  21  24
ATOM     24  O   UNL     1      10.135  13.186  19.613  0.00  0.00    +0.000 OA
BRANCH  24  25
ATOM     25  C   UNL     1      10.348  14.263  18.781  0.00  0.00    +0.000 A 
ATOM     26  C   UNL     1      11.452  14.386  17.927  0.00  0.00    +0.000 A 
ATOM     27  C   UNL     1      11.544  15.497  17.103  0.00  0.00    +0.000 A 
ATOM     28  N   UNL     1      10.676  16.532  17.074  0.00  0.00    +0.000 NA
ATOM     29  C   UNL     1       9.678  16.404  17.966  0.00  0.00    +0.000 A 
ATOM     30  N   UNL     1       8.696  17.333  18.166  0.00  0.00    +0.000 N 
ATOM     31  C   UNL     1       7.846  16.907  19.154  0.00  0.00    +0.000 A 
ATOM     32  C   UNL     1       8.285  15.674  19.586  0.00  0.00    +0.000 A 
ATOM     33  C   UNL     1       9.449  15.343  18.834  0.00  0.00    +0.000 A 
ATOM     34  H   UNL     1       8.638  18.199  17.653  0.00  0.00    +0.000 HD
ENDBRANCH  24  25
ENDBRANCH  21  24
ENDBRANCH   3  18
TORSDOF 5
ENDMDL
MODEL 3
REMARK VINA RESULT:      -9.5      7.435     11.067
REMARK  Name = 
REMARK  6 active torsions:
REMARK  status: ('A' for Active; 'I' for Inactive)
REMARK    1  A    between atoms: C_1  and  C_2
REMARK    2  A    between atoms: C_5  and  C_6
REMARK    3  A    between atoms: C_8  and  C_9
REMARK    4  A    between atoms: N_11  and  C_12
REMARK    5  A    between atoms: C_15  and  O_16
REMARK    6  A    between atoms: O_16  and  C_17
REMARK                            x       y       z     vdW  Elec       q    Type
REMARK                         _______ _______ _______ _____ _____    ______ ____
ROOT
ATOM      1  C   UNL     1       7.807   7.439  17.859  0.00  0.00    +0.000 C 
ATOM      2  O   UNL     1       8.420   7.053  18.850  0.00  0.00    +0.000 OA
ATOM      3  N   UNL     1       7.712   8.743  17.410  0.00  0.00    +0.000 N 
ATOM      4  H   UNL     1       7.065   8.899  16.641  0.00  0.00    +0.000 HD
ENDROOT
BRANCH   1   7
ATOM      5  C   UNL     1       5.230   4.963  16.887  0.00  0.00    +0.000 A 
ATOM      6  C   UNL     1       5.895   5.915  17.620  0.00  0.00    +0.000 A 
ATOM      7  C   UNL     1       7.048   6.431  17.063  0.00  0.00    +0.000 A 
ATOM      8  N   UNL     1       7.542   6.074  15.858  0.00  0.00    +0.000 NA
ATOM      9  C   UNL     1       6.817   5.143  15.224  0.00  0.00    +0.000 A 
ATOM     10  N   UNL     1       5.684   4.574  15.672  0.00  0.00    +0.000 NA
BRANCH   5  15
ATOM     11  C   UNL     1       0.425   2.374  18.903  0.00  0.00    +0.000 C 
ATOM     12  C   UNL     1       1.651   3.035  18.351  0.00  0.00    +0.000 A 
ATOM     13  C   UNL     1       2.700   2.284  17.813  0.00  0.00    +0.000 A 
ATOM     14  C   UNL     1       3.855   2.915  17.336  0.00  0.00    +0.000 A 
ATOM     15  C   UNL     1       3.998   4.311  17.380  0.00  0.00    +0.000 A 
ATOM     16  C   UNL     1       2.924   5.052  17.913  0.00  0.00    +0.000 A 
ATOM     17  C   UNL     1       1.768   4.425  18.389  0.00  0.00    +0.000 A 
ENDBRANCH   5  15
ENDBRANCH   1   7
BRANCH   3  18
ATOM     18  C   UNL     1       8.353   9.858  17.989  0.00  0.00    +0.000 A 
ATOM     19  C   UNL     1       9.170   9.763  19.121  0.00  0.00    +0.000 A 
ATOM     20  C   UNL     1       9.786  10.895  19.656  0.00  0.00    +0.000 A 
ATOM     21  C   UNL     1       9.598  12.137  19.062  0.00  0.00    +0.000 A 
ATOM     22  C   UNL     1       8.749  12.252  17.958  0.00  0.00    +0.000 A 
ATOM     23  C   UNL     1       8.161  11.111  17.399  0.00  0.00    +0.000 A 
BRANCH  21  24
ATOM     24  O   UNL     1      10.241  13.193  19.662  0.00  0.00    +0.000 OA
BRANCH  24  25
ATOM     25  C   UNL     1       9.686  14.452  19.596  0.00  0.00    +0.000 A 
ATOM     26  C   UNL     1       8.660  14.900  20.438  0.00  0.00    +0.000 A 
ATOM     27  C   UNL     1       8.203  16.202  20.308  0.00  0.00    +0.000 A 
ATOM     28  N   UNL     1       8.625  17.099  19.389  0.00  0.00    +0.000 NA
ATOM     29  C   UNL     1       9.554  16.597  18.556  0.00  0.00    +0.000 A 
ATOM     30  N   UNL     1      10.110  17.284  17.514  0.00  0.00    +0.000 N 
ATOM     31  C   UNL     1      11.006  16.483  16.854  0.00  0.00    +0.000 A 
ATOM     32  C   UNL     1      11.035  15.264  17.495  0.00  0.00    +0.000 A 
ATOM     33  C   UNL     1      10.116  15.326  18.582  0.00  0.00    +0.000 A 
ATOM     34  H   UNL     1       9.868  18.235  17.284  0.00  0.00    +0.000 HD
ENDBRANCH  24  25
ENDBRANCH  21  24
ENDBRANCH   3  18
TORSDOF 5
ENDMDL
MODEL 4
REMARK VINA RESULT:      -9.5      7.455     11.145
REMARK  Name = 
REMARK  6 active torsions:
REMARK  status: ('A' for Active; 'I' for Inactive)
REMARK    1  A    between atoms: C_1  and  C_2
REMARK    2  A    between atoms: C_5  and  C_6
REMARK    3  A    between atoms: C_8  and  C_9
REMARK    4  A    between atoms: N_11  and  C_12
REMARK    5  A    between atoms: C_15  and  O_16
REMARK    6  A    between atoms: O_16  and  C_17
REMARK                            x       y       z     vdW  Elec       q    Type
REMARK                         _______ _______ _______ _____ _____    ______ ____
ROOT
ATOM      1  C   UNL     1       7.806   7.412  17.911  0.00  0.00    +0.000 C 
ATOM      2  O   UNL     1       8.413   7.046  18.914  0.00  0.00    +0.000 OA
ATOM      3  N   UNL     1       7.721   8.706  17.431  0.00  0.00    +0.000 N 
ATOM      4  H   UNL     1       7.079   8.847  16.655  0.00  0.00    +0.000 HD
ENDROOT
BRANCH   1   7
ATOM      5  C   UNL     1       5.231   4.912  16.995  0.00  0.00    +0.000 A 
ATOM      6  C   UNL     1       5.898   5.877  17.709  0.00  0.00    +0.000 A 
ATOM      7  C   UNL     1       7.044   6.390  17.136  0.00  0.00    +0.000 A 
ATOM      8  N   UNL     1       7.530   6.017  15.932  0.00  0.00    +0.000 NA
ATOM      9  C   UNL     1       6.804   5.075  15.318  0.00  0.00    +0.000 A 
ATOM     10  N   UNL     1       5.677   4.508  15.782  0.00  0.00    +0.000 NA
BRANCH   5  15
ATOM     11  C   UNL     1       0.361   2.392  18.942  0.00  0.00    +0.000 C 
ATOM     12  C   UNL     1       1.628   3.041  18.473  0.00  0.00    +0.000 A 
ATOM     13  C   UNL     1       1.861   4.404  18.674  0.00  0.00    +0.000 A 
ATOM     14  C   UNL     1       3.032   5.004  18.197  0.00  0.00    +0.000 A 
ATOM     15  C   UNL     1       4.005   4.263  17.507  0.00  0.00    +0.000 A 
ATOM     16  C   UNL     1       3.759   2.887  17.326  0.00  0.00    +0.000 A 
ATOM     17  C   UNL     1       2.590   2.285  17.802  0.00  0.00    +0.000 A 
ENDBRANCH   5  15
ENDBRANCH   1   7
BRANCH   3  18
ATOM     18  C   UNL     1       8.366   9.830  17.986  0.00  0.00    +0.000 A 
ATOM     19  C   UNL     1       9.247   9.744  19.070  0.00  0.00    +0.000 A 
ATOM     20  C   UNL     1       9.864  10.885  19.583  0.00  0.00    +0.000 A 
ATOM     21  C   UNL     1       9.613  12.128  19.015  0.00  0.00    +0.000 A 
ATOM     22  C   UNL     1       8.701  12.233  17.961  0.00  0.00    +0.000 A 
ATOM     23  C   UNL     1       8.111  11.083  17.423  0.00  0.00    +0.000 A 
BRANCH  21  24
ATOM     24  O   UNL     1      10.263  13.194  19.591  0.00  0.00    +0.000 OA
BRANCH  24  25
ATOM     25  C   UNL     1      10.610  14.277  18.813  0.00  0.00    +0.000 A 
ATOM     26  C   UNL     1      11.716  14.301  17.954  0.00  0.00    +0.000 A 
ATOM     27  C   UNL     1      11.949  15.433  17.189  0.00  0.00    +0.000 A 
ATOM     28  N   UNL     1      11.223  16.572  17.223  0.00  0.00    +0.000 NA
ATOM     29  C   UNL     1      10.220  16.527  18.118  0.00  0.00    +0.000 A 
ATOM     30  N   UNL     1       9.369  17.563  18.377  0.00  0.00    +0.000 N 
ATOM     31  C   UNL     1       8.475  17.199  19.352  0.00  0.00    +0.000 A 
ATOM     32  C   UNL     1       8.752  15.899  19.714  0.00  0.00    +0.000 A 
ATOM     33  C   UNL     1       9.860  15.460  18.932  0.00  0.00    +0.000 A 
ATOM     34  H   UNL     1       9.421  18.456  17.911  0.00  0.00    +0.000 HD
ENDBRANCH  24  25
ENDBRANCH  21  24
ENDBRANCH   3  18
TORSDOF 5
ENDMDL
MODEL 5
REMARK VINA RESULT:      -9.5      2.264     11.564
REMARK  Name = 
REMARK  6 active torsions:
REMARK  status: ('A' for Active; 'I' for Inactive)
REMARK    1  A    between atoms: C_1  and  C_2
REMARK    2  A    between atoms: C_5  and  C_6
REMARK    3  A    between atoms: C_8  and  C_9
REMARK    4  A    between atoms: N_11  and  C_12
REMARK    5  A    between atoms: C_15  and  O_16
REMARK    6  A    between atoms: O_16  and  C_17
REMARK                            x       y       z     vdW  Elec       q    Type
REMARK                         _______ _______ _______ _____ _____    ______ ____
ROOT
ATOM      1  C   UNL     1       1.627   8.077  19.924  0.00  0.00    +0.000 C 
ATOM      2  O   UNL     1       1.471   8.829  18.966  0.00  0.00    +0.000 OA
ATOM      3  N   UNL     1       1.226   8.312  21.226  0.00  0.00    +0.000 N 
ATOM      4  H   UNL     1       1.542   7.633  21.914  0.00  0.00    +0.000 HD
ENDROOT
BRANCH   1   7
ATOM      5  C   UNL     1       3.715   5.464  18.333  0.00  0.00    +0.000 A 
ATOM      6  C   UNL     1       3.085   6.668  18.537  0.00  0.00    +0.000 A 
ATOM      7  C   UNL     1       2.350   6.791  19.699  0.00  0.00    +0.000 A 
ATOM      8  N   UNL     1       2.227   5.824  20.634  0.00  0.00    +0.000 NA
ATOM      9  C   UNL     1       2.882   4.694  20.339  0.00  0.00    +0.000 A 
ATOM     10  N   UNL     1       3.625   4.465  19.242  0.00  0.00    +0.000 NA
BRANCH   5  15
ATOM     11  C   UNL     1       6.928   4.418  13.595  0.00  0.00    +0.000 C 
ATOM     12  C   UNL     1       6.072   4.693  14.795  0.00  0.00    +0.000 A 
ATOM     13  C   UNL     1       5.708   5.997  15.143  0.00  0.00    +0.000 A 
ATOM     14  C   UNL     1       4.941   6.239  16.288  0.00  0.00    +0.000 A 
ATOM     15  C   UNL     1       4.513   5.192  17.118  0.00  0.00    +0.000 A 
ATOM     16  C   UNL     1       4.878   3.883  16.743  0.00  0.00    +0.000 A 
ATOM     17  C   UNL     1       5.644   3.636  15.600  0.00  0.00    +0.000 A 
ENDBRANCH   5  15
ENDBRANCH   1   7
BRANCH   3  18
ATOM     18  C   UNL     1       0.516   9.446  21.673  0.00  0.00    +0.000 A 
ATOM     19  C   UNL     1       0.686  10.718  21.116  0.00  0.00    +0.000 A 
ATOM     20  C   UNL     1      -0.042  11.810  21.590  0.00  0.00    +0.000 A 
ATOM     21  C   UNL     1      -0.954  11.642  22.625  0.00  0.00    +0.000 A 
ATOM     22  C   UNL     1      -1.101  10.386  23.219  0.00  0.00    +0.000 A 
ATOM     23  C   UNL     1      -0.397   9.283  22.718  0.00  0.00    +0.000 A 
BRANCH  21  24
ATOM     24  O   UNL     1      -1.621  12.775  23.027  0.00  0.00    +0.000 OA
BRANCH  24  25
ATOM     25  C   UNL     1      -2.994  12.752  23.133  0.00  0.00    +0.000 A 
ATOM     26  C   UNL     1      -3.684  12.646  24.348  0.00  0.00    +0.000 A 
ATOM     27  C   UNL     1      -5.070  12.673  24.339  0.00  0.00    +0.000 A 
ATOM     28  N   UNL     1      -5.851  12.743  23.238  0.00  0.00    +0.000 NA
ATOM     29  C   UNL     1      -5.144  12.764  22.095  0.00  0.00    +0.000 A 
ATOM     30  N   UNL     1      -5.696  12.789  20.845  0.00  0.00    +0.000 N 
ATOM     31  C   UNL     1      -4.704  12.789  19.898  0.00  0.00    +0.000 A 
ATOM     32  C   UNL     1      -3.493  12.777  20.555  0.00  0.00    +0.000 A 
ATOM     33  C   UNL     1      -3.761  12.764  21.954  0.00  0.00    +0.000 A 
ATOM     34  H   UNL     1      -6.690  12.797  20.677  0.00  0.00    +0.000 HD
ENDBRANCH  24  25
ENDBRANCH  21  24
ENDBRANCH   3  18
TORSDOF 5
ENDMDL
MODEL 6
REMARK VINA RESULT:      -9.4      2.295     11.550
REMARK  Name = 
REMARK  6 active torsions:
REMARK  status: ('A' for Active; 'I' for Inactive)
REMARK    1  A    between atoms: C_1  and  C_2
REMARK    2  A    between atoms: C_5  and  C_6
REMARK    3  A    between atoms: C_8  and  C_9
REMARK    4  A    between atoms: N_11  and  C_12
REMARK    5  A    between atoms: C_15  and  O_16
REMARK    6  A    between atoms: O_16  and  C_17
REMARK                            x       y       z     vdW  Elec       q    Type
REMARK                         _______ _______ _______ _____ _____    ______ ____
ROOT
ATOM      1  C   UNL     1       1.601   8.072  20.015  0.00  0.00    +0.000 C 
ATOM      2  O   UNL     1       1.580   8.891  19.100  0.00  0.00    +0.000 OA
ATOM      3  N   UNL     1       1.088   8.250  21.287  0.00  0.00    +0.000 N 
ATOM      4  H   UNL     1       1.298   7.512  21.954  0.00  0.00    +0.000 HD
ENDROOT
BRANCH   1   7
ATOM      5  C   UNL     1       3.607   5.409  18.403  0.00  0.00    +0.000 A 
ATOM      6  C   UNL     1       3.026   6.634  18.624  0.00  0.00    +0.000 A 
ATOM      7  C   UNL     1       2.272   6.762  19.773  0.00  0.00    +0.000 A 
ATOM      8  N   UNL     1       2.087   5.779  20.681  0.00  0.00    +0.000 NA
ATOM      9  C   UNL     1       2.698   4.628  20.372  0.00  0.00    +0.000 A 
ATOM     10  N   UNL     1       3.454   4.394  19.284  0.00  0.00    +0.000 NA
BRANCH   5  15
ATOM     11  C   UNL     1       6.726   4.290  13.620  0.00  0.00    +0.000 C 
ATOM     12  C   UNL     1       5.951   4.573  14.871  0.00  0.00    +0.000 A 
ATOM     13  C   UNL     1       5.530   3.539  15.712  0.00  0.00    +0.000 A 
ATOM     14  C   UNL     1       4.775   3.817  16.857  0.00  0.00    +0.000 A 
ATOM     15  C   UNL     1       4.419   5.131  17.198  0.00  0.00    +0.000 A 
ATOM     16  C   UNL     1       4.864   6.161  16.345  0.00  0.00    +0.000 A 
ATOM     17  C   UNL     1       5.619   5.887  15.201  0.00  0.00    +0.000 A 
ENDBRANCH   5  15
ENDBRANCH   1   7
BRANCH   3  18
ATOM     18  C   UNL     1       0.400   9.394  21.740  0.00  0.00    +0.000 A 
ATOM     19  C   UNL     1      -0.478   9.373  22.829  0.00  0.00    +0.000 A 
ATOM     20  C   UNL     1      -1.135  10.533  23.243  0.00  0.00    +0.000 A 
ATOM     21  C   UNL     1      -0.917  11.732  22.575  0.00  0.00    +0.000 A 
ATOM     22  C   UNL     1      -0.077  11.758  21.458  0.00  0.00    +0.000 A 
ATOM     23  C   UNL     1       0.610  10.601  21.067  0.00  0.00    +0.000 A 
BRANCH  21  24
ATOM     24  O   UNL     1      -1.611  12.819  23.051  0.00  0.00    +0.000 OA
BRANCH  24  25
ATOM     25  C   UNL     1      -2.984  12.763  23.139  0.00  0.00    +0.000 A 
ATOM     26  C   UNL     1      -3.686  12.637  24.344  0.00  0.00    +0.000 A 
ATOM     27  C   UNL     1      -5.073  12.629  24.317  0.00  0.00    +0.000 A 
ATOM     28  N   UNL     1      -5.841  12.684  23.207  0.00  0.00    +0.000 NA
ATOM     29  C   UNL     1      -5.120  12.726  22.072  0.00  0.00    +0.000 A 
ATOM     30  N   UNL     1      -5.655  12.742  20.816  0.00  0.00    +0.000 N 
ATOM     31  C   UNL     1      -4.652  12.769  19.882  0.00  0.00    +0.000 A 
ATOM     32  C   UNL     1      -3.449  12.784  20.555  0.00  0.00    +0.000 A 
ATOM     33  C   UNL     1      -3.736  12.760  21.950  0.00  0.00    +0.000 A 
ATOM     34  H   UNL     1      -6.647  12.726  20.635  0.00  0.00    +0.000 HD
ENDBRANCH  24  25
ENDBRANCH  21  24
ENDBRANCH   3  18
TORSDOF 5
ENDMDL
MODEL 7
REMARK VINA RESULT:      -9.3      1.276      1.285
REMARK  Name = 
REMARK  6 active torsions:
REMARK  status: ('A' for Active; 'I' for Inactive)
REMARK    1  A    between atoms: C_1  and  C_2
REMARK    2  A    between atoms: C_5  and  C_6
REMARK    3  A    between atoms: C_8  and  C_9
REMARK    4  A    between atoms: N_11  and  C_12
REMARK    5  A    between atoms: C_15  and  O_16
REMARK    6  A    between atoms: O_16  and  C_17
REMARK                            x       y       z     vdW  Elec       q    Type
REMARK                         _______ _______ _______ _____ _____    ______ ____
ROOT
ATOM      1  C   UNL     1      -0.033  10.495  19.016  0.00  0.00    +0.000 C 
ATOM      2  O   UNL     1      -0.598  10.073  18.010  0.00  0.00    +0.000 OA
ATOM      3  N   UNL     1       1.031   9.901  19.669  0.00  0.00    +0.000 N 
ATOM      4  H   UNL     1       1.297  10.324  20.554  0.00  0.00    +0.000 HD
ENDROOT
BRANCH   1   7
ATOM      5  C   UNL     1      -2.170  12.831  20.938  0.00  0.00    +0.000 A 
ATOM      6  C   UNL     1      -1.694  11.659  20.401  0.00  0.00    +0.000 A 
ATOM      7  C   UNL     1      -0.547  11.749  19.639  0.00  0.00    +0.000 A 
ATOM      8  N   UNL     1       0.129  12.895  19.406  0.00  0.00    +0.000 NA
ATOM      9  C   UNL     1      -0.416  13.977  19.976  0.00  0.00    +0.000 A 
ATOM     10  N   UNL     1      -1.526  14.004  20.735  0.00  0.00    +0.000 NA
BRANCH   5  15
ATOM     11  C   UNL     1      -7.006  13.100  24.163  0.00  0.00    +0.000 C 
ATOM     12  C   UNL     1      -5.760  12.996  23.337  0.00  0.00    +0.000 A 
ATOM     13  C   UNL     1      -4.508  12.819  23.932  0.00  0.00    +0.000 A 
ATOM     14  C   UNL     1      -3.350  12.762  23.149  0.00  0.00    +0.000 A 
ATOM     15  C   UNL     1      -3.404  12.878  21.751  0.00  0.00    +0.000 A 
ATOM     16  C   UNL     1      -4.676  13.042  21.168  0.00  0.00    +0.000 A 
ATOM     17  C   UNL     1      -5.836  13.099  21.947  0.00  0.00    +0.000 A 
ENDBRANCH   5  15
ENDBRANCH   1   7
BRANCH   3  18
ATOM     18  C   UNL     1       1.690   8.724  19.258  0.00  0.00    +0.000 A 
ATOM     19  C   UNL     1       2.303   8.591  18.007  0.00  0.00    +0.000 A 
ATOM     20  C   UNL     1       2.946   7.407  17.647  0.00  0.00    +0.000 A 
ATOM     21  C   UNL     1       2.990   6.340  18.536  0.00  0.00    +0.000 A 
ATOM     22  C   UNL     1       2.344   6.443  19.771  0.00  0.00    +0.000 A 
ATOM     23  C   UNL     1       1.731   7.645  20.146  0.00  0.00    +0.000 A 
BRANCH  21  24
ATOM     24  O   UNL     1       3.642   5.214  18.091  0.00  0.00    +0.000 OA
BRANCH  24  25
ATOM     25  C   UNL     1       5.019   5.197  18.057  0.00  0.00    +0.000 A 
ATOM     26  C   UNL     1       5.832   5.466  19.165  0.00  0.00    +0.000 A 
ATOM     27  C   UNL     1       7.209   5.381  19.025  0.00  0.00    +0.000 A 
ATOM     28  N   UNL     1       7.871   5.104  17.880  0.00  0.00    +0.000 NA
ATOM     29  C   UNL     1       7.049   4.930  16.829  0.00  0.00    +0.000 A 
ATOM     30  N   UNL     1       7.468   4.684  15.553  0.00  0.00    +0.000 N 
ATOM     31  C   UNL     1       6.385   4.574  14.720  0.00  0.00    +0.000 A 
ATOM     32  C   UNL     1       5.248   4.741  15.481  0.00  0.00    +0.000 A 
ATOM     33  C   UNL     1       5.660   4.965  16.827  0.00  0.00    +0.000 A 
ATOM     34  H   UNL     1       8.439   4.609  15.292  0.00  0.00    +0.000 HD
ENDBRANCH  24  25
ENDBRANCH  21  24
ENDBRANCH   3  18
TORSDOF 5
ENDMDL
MODEL 8
REMARK VINA RESULT:      -9.3      7.365     11.054
REMARK  Name = 
REMARK  6 active torsions:
REMARK  status: ('A' for Active; 'I' for Inactive)
REMARK    1  A    between atoms: C_1  and  C_2
REMARK    2  A    between atoms: C_5  and  C_6
REMARK    3  A    between atoms: C_8  and  C_9
REMARK    4  A    between atoms: N_11  and  C_12
REMARK    5  A    between atoms: C_15  and  O_16
REMARK    6  A    between atoms: O_16  and  C_17
REMARK                            x       y       z     vdW  Elec       q    Type
REMARK                         _______ _______ _______ _____ _____    ______ ____
ROOT
ATOM      1  C   UNL     1       7.824   7.405  17.904  0.00  0.00    +0.000 C 
ATOM      2  O   UNL     1       8.440   7.018  18.893  0.00  0.00    +0.000 OA
ATOM      3  N   UNL     1       7.728   8.709  17.455  0.00  0.00    +0.000 N 
ATOM      4  H   UNL     1       7.078   8.865  16.688  0.00  0.00    +0.000 HD
ENDROOT
BRANCH   1   7
ATOM      5  C   UNL     1       5.251   4.919  16.944  0.00  0.00    +0.000 A 
ATOM      6  C   UNL     1       5.919   5.870  17.677  0.00  0.00    +0.000 A 
ATOM      7  C   UNL     1       7.062   6.397  17.110  0.00  0.00    +0.000 A 
ATOM      8  N   UNL     1       7.544   6.051  15.897  0.00  0.00    +0.000 NA
ATOM      9  C   UNL     1       6.818   5.120  15.266  0.00  0.00    +0.000 A 
ATOM     10  N   UNL     1       5.693   4.541  15.722  0.00  0.00    +0.000 NA
BRANCH   5  15
ATOM     11  C   UNL     1       0.400   2.330  18.847  0.00  0.00    +0.000 C 
ATOM     12  C   UNL     1       1.658   3.003  18.390  0.00  0.00    +0.000 A 
ATOM     13  C   UNL     1       1.779   4.395  18.396  0.00  0.00    +0.000 A 
ATOM     14  C   UNL     1       2.948   5.010  17.930  0.00  0.00    +0.000 A 
ATOM     15  C   UNL     1       4.029   4.256  17.447  0.00  0.00    +0.000 A 
ATOM     16  C   UNL     1       3.894   2.853  17.462  0.00  0.00    +0.000 A 
ATOM     17  C   UNL     1       2.728   2.236  17.927  0.00  0.00    +0.000 A 
ENDBRANCH   5  15
ENDBRANCH   1   7
BRANCH   3  18
ATOM     18  C   UNL     1       8.371   9.823  18.032  0.00  0.00    +0.000 A 
ATOM     19  C   UNL     1       9.159   9.735  19.185  0.00  0.00    +0.000 A 
ATOM     20  C   UNL     1       9.779  10.866  19.718  0.00  0.00    +0.000 A 
ATOM     21  C   UNL     1       9.622  12.101  19.101  0.00  0.00    +0.000 A 
ATOM     22  C   UNL     1       8.802  12.211  17.975  0.00  0.00    +0.000 A 
ATOM     23  C   UNL     1       8.211  11.069  17.419  0.00  0.00    +0.000 A 
BRANCH  21  24
ATOM     24  O   UNL     1      10.267  13.157  19.700  0.00  0.00    +0.000 OA
BRANCH  24  25
ATOM     25  C   UNL     1       9.532  14.230  20.156  0.00  0.00    +0.000 A 
ATOM     26  C   UNL     1       8.773  14.214  21.333  0.00  0.00    +0.000 A 
ATOM     27  C   UNL     1       8.104  15.366  21.717  0.00  0.00    +0.000 A 
ATOM     28  N   UNL     1       8.067  16.525  21.024  0.00  0.00    +0.000 NA
ATOM     29  C   UNL     1       8.746  16.465  19.865  0.00  0.00    +0.000 A 
ATOM     30  N   UNL     1       8.827  17.487  18.963  0.00  0.00    +0.000 N 
ATOM     31  C   UNL     1       9.578  17.097  17.883  0.00  0.00    +0.000 A 
ATOM     32  C   UNL     1       9.997  15.804  18.106  0.00  0.00    +0.000 A 
ATOM     33  C   UNL     1       9.476  15.392  19.367  0.00  0.00    +0.000 A 
ATOM     34  H   UNL     1       8.381  18.382  19.095  0.00  0.00    +0.000 HD
ENDBRANCH  24  25
ENDBRANCH  21  24
ENDBRANCH   3  18
TORSDOF 5
ENDMDL
MODEL 9
REMARK VINA RESULT:      -9.2      7.331     10.934
REMARK  Name = 
REMARK  6 active torsions:
REMARK  status: ('A' for Active; 'I' for Inactive)
REMARK    1  A    between atoms: C_1  and  C_2
REMARK    2  A    between atoms: C_5  and  C_6
REMARK    3  A    between atoms: C_8  and  C_9
REMARK    4  A    between atoms: N_11  and  C_12
REMARK    5  A    between atoms: C_15  and  O_16
REMARK    6  A    between atoms: O_16  and  C_17
REMARK                            x       y       z     vdW  Elec       q    Type
REMARK                         _______ _______ _______ _____ _____    ______ ____
ROOT
ATOM      1  C   UNL     1       7.807   7.443  17.877  0.00  0.00    +0.000 C 
ATOM      2  O   UNL     1       8.419   7.064  18.871  0.00  0.00    +0.000 OA
ATOM      3  N   UNL     1       7.710   8.744  17.419  0.00  0.00    +0.000 N 
ATOM      4  H   UNL     1       7.064   8.893  16.648  0.00  0.00    +0.000 HD
ENDROOT
BRANCH   1   7
ATOM      5  C   UNL     1       5.251   4.937  16.923  0.00  0.00    +0.000 A 
ATOM      6  C   UNL     1       5.912   5.895  17.653  0.00  0.00    +0.000 A 
ATOM      7  C   UNL     1       7.051   6.428  17.085  0.00  0.00    +0.000 A 
ATOM      8  N   UNL     1       7.537   6.082  15.873  0.00  0.00    +0.000 NA
ATOM      9  C   UNL     1       6.817   5.144  15.244  0.00  0.00    +0.000 A 
ATOM     10  N   UNL     1       5.696   4.559  15.702  0.00  0.00    +0.000 NA
BRANCH   5  15
ATOM     11  C   UNL     1       0.418   2.316  18.829  0.00  0.00    +0.000 C 
ATOM     12  C   UNL     1       1.671   3.000  18.371  0.00  0.00    +0.000 A 
ATOM     13  C   UNL     1       1.748   4.393  18.290  0.00  0.00    +0.000 A 
ATOM     14  C   UNL     1       2.912   5.014  17.824  0.00  0.00    +0.000 A 
ATOM     15  C   UNL     1       4.033   4.268  17.427  0.00  0.00    +0.000 A 
ATOM     16  C   UNL     1       3.941   2.865  17.530  0.00  0.00    +0.000 A 
ATOM     17  C   UNL     1       2.780   2.240  17.995  0.00  0.00    +0.000 A 
ENDBRANCH   5  15
ENDBRANCH   1   7
BRANCH   3  18
ATOM     18  C   UNL     1       8.347   9.864  17.992  0.00  0.00    +0.000 A 
ATOM     19  C   UNL     1       8.228  11.157  17.472  0.00  0.00    +0.000 A 
ATOM     20  C   UNL     1       8.876  12.235  18.076  0.00  0.00    +0.000 A 
ATOM     21  C   UNL     1       9.648  12.034  19.213  0.00  0.00    +0.000 A 
ATOM     22  C   UNL     1       9.811  10.741  19.718  0.00  0.00    +0.000 A 
ATOM     23  C   UNL     1       9.131   9.666  19.132  0.00  0.00    +0.000 A 
BRANCH  21  24
ATOM     24  O   UNL     1      10.251  13.154  19.736  0.00  0.00    +0.000 OA
BRANCH  24  25
ATOM     25  C   UNL     1       9.475  14.136  20.311  0.00  0.00    +0.000 A 
ATOM     26  C   UNL     1       9.216  15.377  19.716  0.00  0.00    +0.000 A 
ATOM     27  C   UNL     1       8.388  16.277  20.370  0.00  0.00    +0.000 A 
ATOM     28  N   UNL     1       7.825  16.092  21.585  0.00  0.00    +0.000 NA
ATOM     29  C   UNL     1       8.166  14.919  22.147  0.00  0.00    +0.000 A 
ATOM     30  N   UNL     1       7.766  14.513  23.388  0.00  0.00    +0.000 N 
ATOM     31  C   UNL     1       8.299  13.281  23.669  0.00  0.00    +0.000 A 
ATOM     32  C   UNL     1       9.044  12.885  22.580  0.00  0.00    +0.000 A 
ATOM     33  C   UNL     1       8.964  13.920  21.603  0.00  0.00    +0.000 A 
ATOM     34  H   UNL     1       7.174  15.064  23.990  0.00  0.00    +0.000 HD
ENDBRANCH  24  25
ENDBRANCH  21  24
ENDBRANCH   3  18
TORSDOF 5
ENDMDL
