MODEL 1
REMARK VINA RESULT:      -8.0      0.000      0.000
REMARK  Name = 
REMARK  0 active torsions:
REMARK  status: ('A' for Active; 'I' for Inactive)
REMARK                            x       y       z     vdW  Elec       q    Type
REMARK                         _______ _______ _______ _____ _____    ______ ____
ROOT
ATOM      1  F   UNL     1       1.048   9.897  20.939  0.00  0.00    +0.000 F 
ATOM      2  C   UNL     1       1.428   8.934  20.082  0.00  0.00    +0.000 A 
ATOM      3  C   UNL     1       1.440   9.227  18.715  0.00  0.00    +0.000 A 
ATOM      4  C   UNL     1       1.843   8.263  17.800  0.00  0.00    +0.000 A 
ATOM      5  C   UNL     1       2.247   7.033  18.291  0.00  0.00    +0.000 A 
ATOM      6  C   UNL     1       2.271   6.747  19.691  0.00  0.00    +0.000 A 
ATOM      7  C   UNL     1       1.835   7.701  20.592  0.00  0.00    +0.000 A 
ATOM      8  C   UNL     1       2.965   5.392  20.017  0.00  0.00    +0.000 C 
ATOM      9  C   UNL     1       2.077   4.359  19.300  0.00  0.00    +0.000 C 
ATOM     10  C   UNL     1       2.408   2.880  19.502  0.00  0.00    +0.000 C 
ATOM     11  C   UNL     1       2.135   2.260  18.139  0.00  0.00    +0.000 C 
ATOM     12  C   UNL     1       2.675   3.316  17.177  0.00  0.00    +0.000 C 
ATOM     13  C   UNL     1       2.125   4.622  17.765  0.00  0.00    +0.000 C 
ATOM     14  C   UNL     1       2.890   5.947  17.456  0.00  0.00    +0.000 C 
ATOM     15  N   UNL     1       4.269   5.816  17.909  0.00  0.00    +0.000 NA
ATOM     16  C   UNL     1       5.197   6.876  17.549  0.00  0.00    +0.000 C 
ATOM     17  C   UNL     1       6.537   6.152  17.516  0.00  0.00    +0.000 C 
ATOM     18  C   UNL     1       6.810   5.295  18.781  0.00  0.00    +0.000 C 
ATOM     19  C   UNL     1       5.557   4.619  19.436  0.00  0.00    +0.000 C 
ATOM     20  C   UNL     1       4.381   5.593  19.373  0.00  0.00    +0.000 C 
ENDROOT
TORSDOF 0
ENDMDL
MODEL 2
REMARK VINA RESULT:      -7.8      1.197      3.688
REMARK  Name = 
REMARK  0 active torsions:
REMARK  status: ('A' for Active; 'I' for Inactive)
REMARK                            x       y       z     vdW  Elec       q    Type
REMARK                         _______ _______ _______ _____ _____    ______ ____
ROOT
ATOM      1  F   UNL     1       0.269  10.239  18.346  0.00  0.00    +0.000 F 
ATOM      2  C   UNL     1       1.014   9.208  18.778  0.00  0.00    +0.000 A 
ATOM      3  C   UNL     1       1.151   9.017  20.156  0.00  0.00    +0.000 A 
ATOM      4  C   UNL     1       1.899   7.952  20.641  0.00  0.00    +0.000 A 
ATOM      5  C   UNL     1       2.471   7.092  19.720  0.00  0.00    +0.000 A 
ATOM      6  C   UNL     1       2.299   7.265  18.312  0.00  0.00    +0.000 A 
ATOM      7  C   UNL     1       1.582   8.347  17.838  0.00  0.00    +0.000 A 
ATOM      8  C   UNL     1       2.843   6.061  17.487  0.00  0.00    +0.000 C 
ATOM      9  C   UNL     1       4.345   6.054  17.820  0.00  0.00    +0.000 C 
ATOM     10  C   UNL     1       5.229   5.048  17.081  0.00  0.00    +0.000 C 
ATOM     11  C   UNL     1       6.230   4.604  18.138  0.00  0.00    +0.000 C 
ATOM     12  C   UNL     1       5.365   4.491  19.391  0.00  0.00    +0.000 C 
ATOM     13  C   UNL     1       4.529   5.776  19.342  0.00  0.00    +0.000 C 
ATOM     14  C   UNL     1       3.151   5.786  20.076  0.00  0.00    +0.000 C 
ATOM     15  N   UNL     1       2.323   4.712  19.544  0.00  0.00    +0.000 NA
ATOM     16  C   UNL     1       1.066   4.435  20.221  0.00  0.00    +0.000 C 
ATOM     17  C   UNL     1       0.845   2.957  19.930  0.00  0.00    +0.000 C 
ATOM     18  C   UNL     1       1.001   2.591  18.429  0.00  0.00    +0.000 C 
ATOM     19  C   UNL     1       2.074   3.408  17.630  0.00  0.00    +0.000 C 
ATOM     20  C   UNL     1       2.033   4.863  18.095  0.00  0.00    +0.000 C 
ENDROOT
TORSDOF 0
ENDMDL
MODEL 3
REMARK VINA RESULT:      -7.2      1.079      3.692
REMARK  Name = 
REMARK  0 active torsions:
REMARK  status: ('A' for Active; 'I' for Inactive)
REMARK                            x       y       z     vdW  Elec       q    Type
REMARK                         _______ _______ _______ _____ _____    ______ ____
ROOT
ATOM      1  F   UNL     1       0.671   9.820  17.946  0.00  0.00    +0.000 F 
ATOM      2  C   UNL     1       1.460   8.835  18.408  0.00  0.00    +0.000 A 
ATOM      3  C   UNL     1       1.410   8.526  19.771  0.00  0.00    +0.000 A 
ATOM      4  C   UNL     1       2.198   7.502  20.281  0.00  0.00    +0.000 A 
ATOM      5  C   UNL     1       3.000   6.800  19.397  0.00  0.00    +0.000 A 
ATOM      6  C   UNL     1       3.021   7.091  17.999  0.00  0.00    +0.000 A 
ATOM      7  C   UNL     1       2.260   8.134  17.505  0.00  0.00    +0.000 A 
ATOM      8  C   UNL     1       3.820   6.037  17.177  0.00  0.00    +0.000 C 
ATOM      9  C   UNL     1       5.246   6.154  17.744  0.00  0.00    +0.000 C 
ATOM     10  C   UNL     1       6.343   5.322  17.077  0.00  0.00    +0.000 C 
ATOM     11  C   UNL     1       7.219   4.884  18.241  0.00  0.00    +0.000 C 
ATOM     12  C   UNL     1       6.196   4.560  19.327  0.00  0.00    +0.000 C 
ATOM     13  C   UNL     1       5.232   5.749  19.248  0.00  0.00    +0.000 C 
ATOM     14  C   UNL     1       3.767   5.544  19.751  0.00  0.00    +0.000 C 
ATOM     15  N   UNL     1       3.161   4.446  19.010  0.00  0.00    +0.000 NA
ATOM     16  C   UNL     1       1.859   3.976  19.453  0.00  0.00    +0.000 C 
ATOM     17  C   UNL     1       1.859   2.518  19.012  0.00  0.00    +0.000 C 
ATOM     18  C   UNL     1       2.280   2.319  17.531  0.00  0.00    +0.000 C 
ATOM     19  C   UNL     1       3.357   3.317  16.982  0.00  0.00    +0.000 C 
ATOM     20  C   UNL     1       3.076   4.707  17.550  0.00  0.00    +0.000 C 
ENDROOT
TORSDOF 0
ENDMDL
MODEL 4
REMARK VINA RESULT:      -6.5      3.059      5.211
REMARK  Name = 
REMARK  0 active torsions:
REMARK  status: ('A' for Active; 'I' for Inactive)
REMARK                            x       y       z     vdW  Elec       q    Type
REMARK                         _______ _______ _______ _____ _____    ______ ____
ROOT
ATOM      1  F   UNL     1       6.915   4.225  13.219  0.00  0.00    +0.000 F 
ATOM      2  C   UNL     1       6.560   4.365  14.507  0.00  0.00    +0.000 A 
ATOM      3  C   UNL     1       7.389   5.114  15.348  0.00  0.00    +0.000 A 
ATOM      4  C   UNL     1       7.046   5.296  16.682  0.00  0.00    +0.000 A 
ATOM      5  C   UNL     1       5.861   4.735  17.127  0.00  0.00    +0.000 A 
ATOM      6  C   UNL     1       4.995   4.003  16.258  0.00  0.00    +0.000 A 
ATOM      7  C   UNL     1       5.362   3.797  14.941  0.00  0.00    +0.000 A 
ATOM      8  C   UNL     1       3.627   3.660  16.919  0.00  0.00    +0.000 C 
ATOM      9  C   UNL     1       4.023   2.772  18.111  0.00  0.00    +0.000 C 
ATOM     10  C   UNL     1       2.895   2.151  18.937  0.00  0.00    +0.000 C 
ATOM     11  C   UNL     1       3.420   2.209  20.364  0.00  0.00    +0.000 C 
ATOM     12  C   UNL     1       4.104   3.573  20.415  0.00  0.00    +0.000 C 
ATOM     13  C   UNL     1       4.894   3.604  19.100  0.00  0.00    +0.000 C 
ATOM     14  C   UNL     1       5.249   4.995  18.488  0.00  0.00    +0.000 C 
ATOM     15  N   UNL     1       4.019   5.745  18.270  0.00  0.00    +0.000 NA
ATOM     16  C   UNL     1       4.144   7.139  17.874  0.00  0.00    +0.000 C 
ATOM     17  C   UNL     1       2.860   7.757  18.410  0.00  0.00    +0.000 C 
ATOM     18  C   UNL     1       1.582   6.964  18.023  0.00  0.00    +0.000 C 
ATOM     19  C   UNL     1       1.739   5.408  17.936  0.00  0.00    +0.000 C 
ATOM     20  C   UNL     1       3.096   5.083  17.313  0.00  0.00    +0.000 C 
ENDROOT
TORSDOF 0
ENDMDL
MODEL 5
REMARK VINA RESULT:      -6.4      5.924      7.341
REMARK  Name = 
REMARK  0 active torsions:
REMARK  status: ('A' for Active; 'I' for Inactive)
REMARK                            x       y       z     vdW  Elec       q    Type
REMARK                         _______ _______ _______ _____ _____    ______ ____
ROOT
ATOM      1  F   UNL     1      -4.558  11.889  16.925  0.00  0.00    +0.000 F 
ATOM      2  C   UNL     1      -3.443  11.448  17.531  0.00  0.00    +0.000 A 
ATOM      3  C   UNL     1      -2.561  10.645  16.801  0.00  0.00    +0.000 A 
ATOM      4  C   UNL     1      -1.390  10.186  17.388  0.00  0.00    +0.000 A 
ATOM      5  C   UNL     1      -1.125  10.569  18.692  0.00  0.00    +0.000 A 
ATOM      6  C   UNL     1      -2.007  11.422  19.424  0.00  0.00    +0.000 A 
ATOM      7  C   UNL     1      -3.188  11.846  18.844  0.00  0.00    +0.000 A 
ATOM      8  C   UNL     1      -1.401  11.894  20.779  0.00  0.00    +0.000 C 
ATOM      9  C   UNL     1      -1.201  10.580  21.554  0.00  0.00    +0.000 C 
ATOM     10  C   UNL     1      -0.714  10.679  23.000  0.00  0.00    +0.000 C 
ATOM     11  C   UNL     1       0.229   9.492  23.144  0.00  0.00    +0.000 C 
ATOM     12  C   UNL     1       0.965   9.485  21.806  0.00  0.00    +0.000 C 
ATOM     13  C   UNL     1      -0.170   9.692  20.795  0.00  0.00    +0.000 C 
ATOM     14  C   UNL     1       0.184  10.317  19.409  0.00  0.00    +0.000 C 
ATOM     15  N   UNL     1       0.814  11.613  19.622  0.00  0.00    +0.000 NA
ATOM     16  C   UNL     1       1.385  12.280  18.462  0.00  0.00    +0.000 C 
ATOM     17  C   UNL     1       2.493  13.128  19.073  0.00  0.00    +0.000 C 
ATOM     18  C   UNL     1       2.027  13.974  20.288  0.00  0.00    +0.000 C 
ATOM     19  C   UNL     1       0.930  13.324  21.198  0.00  0.00    +0.000 C 
ATOM     20  C   UNL     1      -0.072  12.586  20.312  0.00  0.00    +0.000 C 
ENDROOT
TORSDOF 0
ENDMDL
MODEL 6
REMARK VINA RESULT:      -6.3      2.497      5.039
REMARK  Name = 
REMARK  0 active torsions:
REMARK  status: ('A' for Active; 'I' for Inactive)
REMARK                            x       y       z     vdW  Elec       q    Type
REMARK                         _______ _______ _______ _____ _____    ______ ____
ROOT
ATOM      1  F   UNL     1       8.309   4.291  18.070  0.00  0.00    +0.000 F 
ATOM      2  C   UNL     1       7.027   4.622  17.843  0.00  0.00    +0.000 A 
ATOM      3  C   UNL     1       6.496   4.393  16.570  0.00  0.00    +0.000 A 
ATOM      4  C   UNL     1       5.169   4.705  16.303  0.00  0.00    +0.000 A 
ATOM      5  C   UNL     1       4.405   5.221  17.336  0.00  0.00    +0.000 A 
ATOM      6  C   UNL     1       4.938   5.419  18.647  0.00  0.00    +0.000 A 
ATOM      7  C   UNL     1       6.268   5.137  18.894  0.00  0.00    +0.000 A 
ATOM      8  C   UNL     1       3.845   5.795  19.690  0.00  0.00    +0.000 C 
ATOM      9  C   UNL     1       3.292   7.129  19.158  0.00  0.00    +0.000 C 
ATOM     10  C   UNL     1       2.255   7.857  20.014  0.00  0.00    +0.000 C 
ATOM     11  C   UNL     1       1.292   8.444  18.991  0.00  0.00    +0.000 C 
ATOM     12  C   UNL     1       1.175   7.323  17.961  0.00  0.00    +0.000 C 
ATOM     13  C   UNL     1       2.633   6.889  17.767  0.00  0.00    +0.000 C 
ATOM     14  C   UNL     1       2.908   5.435  17.268  0.00  0.00    +0.000 C 
ATOM     15  N   UNL     1       2.297   4.493  18.197  0.00  0.00    +0.000 NA
ATOM     16  C   UNL     1       2.282   3.089  17.816  0.00  0.00    +0.000 C 
ATOM     17  C   UNL     1       1.054   2.556  18.543  0.00  0.00    +0.000 C 
ATOM     18  C   UNL     1       1.008   2.941  20.046  0.00  0.00    +0.000 C 
ATOM     19  C   UNL     1       1.606   4.341  20.416  0.00  0.00    +0.000 C 
ATOM     20  C   UNL     1       2.856   4.584  19.570  0.00  0.00    +0.000 C 
ENDROOT
TORSDOF 0
ENDMDL
MODEL 7
REMARK VINA RESULT:      -6.2      2.025      2.847
REMARK  Name = 
REMARK  0 active torsions:
REMARK  status: ('A' for Active; 'I' for Inactive)
REMARK                            x       y       z     vdW  Elec       q    Type
REMARK                         _______ _______ _______ _____ _____    ______ ____
ROOT
ATOM      1  F   UNL     1       1.177   7.048  20.781  0.00  0.00    +0.000 F 
ATOM      2  C   UNL     1       2.002   7.008  19.720  0.00  0.00    +0.000 A 
ATOM      3  C   UNL     1       1.946   8.054  18.794  0.00  0.00    +0.000 A 
ATOM      4  C   UNL     1       2.795   8.056  17.695  0.00  0.00    +0.000 A 
ATOM      5  C   UNL     1       3.697   7.013  17.572  0.00  0.00    +0.000 A 
ATOM      6  C   UNL     1       3.780   5.965  18.539  0.00  0.00    +0.000 A 
ATOM      7  C   UNL     1       2.907   5.952  19.611  0.00  0.00    +0.000 A 
ATOM      8  C   UNL     1       5.006   5.031  18.311  0.00  0.00    +0.000 C 
ATOM      9  C   UNL     1       4.734   4.424  16.924  0.00  0.00    +0.000 C 
ATOM     10  C   UNL     1       5.702   3.353  16.418  0.00  0.00    +0.000 C 
ATOM     11  C   UNL     1       5.815   3.645  14.929  0.00  0.00    +0.000 C 
ATOM     12  C   UNL     1       5.853   5.170  14.888  0.00  0.00    +0.000 C 
ATOM     13  C   UNL     1       4.732   5.562  15.860  0.00  0.00    +0.000 C 
ATOM     14  C   UNL     1       4.811   6.962  16.548  0.00  0.00    +0.000 C 
ATOM     15  N   UNL     1       6.069   7.061  17.276  0.00  0.00    +0.000 NA
ATOM     16  C   UNL     1       6.418   8.356  17.838  0.00  0.00    +0.000 C 
ATOM     17  C   UNL     1       7.940   8.314  17.861  0.00  0.00    +0.000 C 
ATOM     18  C   UNL     1       8.515   7.023  18.503  0.00  0.00    +0.000 C 
ATOM     19  C   UNL     1       7.686   5.713  18.272  0.00  0.00    +0.000 C 
ATOM     20  C   UNL     1       6.198   6.050  18.357  0.00  0.00    +0.000 C 
ENDROOT
TORSDOF 0
ENDMDL
MODEL 8
REMARK VINA RESULT:      -6.2      3.551      7.430
REMARK  Name = 
REMARK  0 active torsions:
REMARK  status: ('A' for Active; 'I' for Inactive)
REMARK                            x       y       z     vdW  Elec       q    Type
REMARK                         _______ _______ _______ _____ _____    ______ ____
ROOT
ATOM      1  F   UNL     1       1.835   6.192  21.171  0.00  0.00    +0.000 F 
ATOM      2  C   UNL     1       1.699   7.329  20.468  0.00  0.00    +0.000 A 
ATOM      3  C   UNL     1       2.102   7.337  19.129  0.00  0.00    +0.000 A 
ATOM      4  C   UNL     1       1.960   8.488  18.366  0.00  0.00    +0.000 A 
ATOM      5  C   UNL     1       1.391   9.598  18.968  0.00  0.00    +0.000 A 
ATOM      6  C   UNL     1       0.943   9.577  20.325  0.00  0.00    +0.000 A 
ATOM      7  C   UNL     1       1.120   8.437  21.087  0.00  0.00    +0.000 A 
ATOM      8  C   UNL     1       0.141  10.855  20.713  0.00  0.00    +0.000 C 
ATOM      9  C   UNL     1       1.170  11.985  20.533  0.00  0.00    +0.000 C 
ATOM     10  C   UNL     1       0.748  13.397  20.941  0.00  0.00    +0.000 C 
ATOM     11  C   UNL     1       1.395  14.285  19.888  0.00  0.00    +0.000 C 
ATOM     12  C   UNL     1       1.199  13.480  18.605  0.00  0.00    +0.000 C 
ATOM     13  C   UNL     1       1.588  12.060  19.034  0.00  0.00    +0.000 C 
ATOM     14  C   UNL     1       0.992  10.860  18.233  0.00  0.00    +0.000 C 
ATOM     15  N   UNL     1      -0.462  10.939  18.274  0.00  0.00    +0.000 NA
ATOM     16  C   UNL     1      -1.208  10.015  17.435  0.00  0.00    +0.000 C 
ATOM     17  C   UNL     1      -2.499  10.775  17.162  0.00  0.00    +0.000 C 
ATOM     18  C   UNL     1      -3.163  11.350  18.442  0.00  0.00    +0.000 C 
ATOM     19  C   UNL     1      -2.183  11.825  19.570  0.00  0.00    +0.000 C 
ATOM     20  C   UNL     1      -1.012  10.846  19.650  0.00  0.00    +0.000 C 
ENDROOT
TORSDOF 0
ENDMDL
MODEL 9
REMARK VINA RESULT:      -6.2      9.641     10.840
REMARK  Name = 
REMARK  0 active torsions:
REMARK  status: ('A' for Active; 'I' for Inactive)
REMARK                            x       y       z     vdW  Elec       q    Type
REMARK                         _______ _______ _______ _____ _____    ______ ____
ROOT
ATOM      1  F   UNL     1       5.016  15.491  20.587  0.00  0.00    +0.000 F 
ATOM      2  C   UNL     1       6.076  15.084  19.868  0.00  0.00    +0.000 A 
ATOM      3  C   UNL     1       5.963  15.053  18.475  0.00  0.00    +0.000 A 
ATOM      4  C   UNL     1       7.043  14.656  17.697  0.00  0.00    +0.000 A 
ATOM      5  C   UNL     1       8.219  14.322  18.346  0.00  0.00    +0.000 A 
ATOM      6  C   UNL     1       8.347  14.391  19.767  0.00  0.00    +0.000 A 
ATOM      7  C   UNL     1       7.256  14.754  20.535  0.00  0.00    +0.000 A 
ATOM      8  C   UNL     1       9.813  14.186  20.251  0.00  0.00    +0.000 C 
ATOM      9  C   UNL     1      10.145  12.760  19.778  0.00  0.00    +0.000 C 
ATOM     10  C   UNL     1      11.497  12.175  20.187  0.00  0.00    +0.000 C 
ATOM     11  C   UNL     1      11.929  11.378  18.965  0.00  0.00    +0.000 C 
ATOM     12  C   UNL     1      11.503  12.279  17.809  0.00  0.00    +0.000 C 
ATOM     13  C   UNL     1      10.091  12.713  18.222  0.00  0.00    +0.000 C 
ATOM     14  C   UNL     1       9.535  14.055  17.647  0.00  0.00    +0.000 C 
ATOM     15  N   UNL     1      10.442  15.136  18.009  0.00  0.00    +0.000 NA
ATOM     16  C   UNL     1      10.200  16.441  17.415  0.00  0.00    +0.000 C 
ATOM     17  C   UNL     1      11.590  17.065  17.396  0.00  0.00    +0.000 C 
ATOM     18  C   UNL     1      12.331  16.970  18.757  0.00  0.00    +0.000 C 
ATOM     19  C   UNL     1      12.048  15.683  19.605  0.00  0.00    +0.000 C 
ATOM     20  C   UNL     1      10.568  15.323  19.478  0.00  0.00    +0.000 C 
ENDROOT
TORSDOF 0
ENDMDL
