MODEL 1
REMARK VINA RESULT:      -8.0      0.000      0.000
REMARK  Name = 
REMARK  5 active torsions:
REMARK  status: ('A' for Active; 'I' for Inactive)
REMARK    1  A    between atoms: C_1  and  C_2
REMARK    2  A    between atoms: C_4  and  C_5
REMARK    3  A    between atoms: C_10  and  C_12
REMARK    4  A    between atoms: N_16  and  C_17
REMARK    5  A    between atoms: N_16  and  C_18
REMARK                            x       y       z     vdW  Elec       q    Type
REMARK                         _______ _______ _______ _____ _____    ______ ____
ROOT
ATOM      1  C   UNL     1       4.350   4.141  17.652  0.00  0.00    +0.000 C 
ATOM      2  C   UNL     1       3.516   2.906  17.290  0.00  0.00    +0.000 C 
ATOM      3  C   UNL     1       2.243   3.098  18.096  0.00  0.00    +0.000 C 
ATOM      4  C   UNL     1       2.049   4.605  18.123  0.00  0.00    +0.000 C 
ATOM      5  N   UNL     1       3.337   5.197  17.769  0.00  0.00    +0.000 N 
ATOM      6  C   UNL     1       3.674   6.538  17.972  0.00  0.00    +0.000 C 
ATOM      7  O   UNL     1       4.826   6.951  17.821  0.00  0.00    +0.000 OA
ENDROOT
BRANCH   6   8
ATOM      8  C   UNL     1       2.641   7.508  18.460  0.00  0.00    +0.000 A 
ATOM      9  C   UNL     1       2.167   8.490  17.611  0.00  0.00    +0.000 A 
ATOM     10  C   UNL     1       1.360   9.498  18.143  0.00  0.00    +0.000 A 
ATOM     11  C   UNL     1       1.018   9.506  19.492  0.00  0.00    +0.000 A 
ATOM     12  N   UNL     1       0.201  10.507  20.013  0.00  0.00    +0.000 N 
ATOM     13  C   UNL     1      -0.424  10.272  21.310  0.00  0.00    +0.000 C 
ATOM     14  C   UNL     1       0.494  11.898  19.685  0.00  0.00    +0.000 C 
ATOM     15  N   UNL     1       1.446   8.474  20.266  0.00  0.00    +0.000 NA
ATOM     16  N   UNL     1       2.261   7.479  19.749  0.00  0.00    +0.000 NA
ENDBRANCH   6   8
BRANCH   1  20
ATOM     17  C   UNL     1       7.056   4.712  13.529  0.00  0.00    +0.000 C 
ATOM     18  C   UNL     1       6.530   4.551  14.891  0.00  0.00    +0.000 A 
ATOM     19  N   UNL     1       5.293   4.391  15.310  0.00  0.00    +0.000 NA
ATOM     20  C   UNL     1       5.457   4.361  16.677  0.00  0.00    +0.000 A 
ATOM     21  N   UNL     1       6.740   4.406  17.085  0.00  0.00    +0.000 NA
ATOM     22  O   UNL     1       7.450   4.560  15.895  0.00  0.00    +0.000 OA
ENDBRANCH   1  20
TORSDOF 2
ENDMDL
MODEL 2
REMARK VINA RESULT:      -7.0      1.957      2.328
REMARK  Name = 
REMARK  5 active torsions:
REMARK  status: ('A' for Active; 'I' for Inactive)
REMARK    1  A    between atoms: C_1  and  C_2
REMARK    2  A    between atoms: C_4  and  C_5
REMARK    3  A    between atoms: C_10  and  C_12
REMARK    4  A    between atoms: N_16  and  C_17
REMARK    5  A    between atoms: N_16  and  C_18
REMARK                            x       y       z     vdW  Elec       q    Type
REMARK                         _______ _______ _______ _____ _____    ______ ____
ROOT
ATOM      1  C   UNL     1       6.755   5.663  16.994  0.00  0.00    +0.000 C 
ATOM      2  C   UNL     1       7.397   4.627  17.925  0.00  0.00    +0.000 C 
ATOM      3  C   UNL     1       6.952   5.078  19.306  0.00  0.00    +0.000 C 
ATOM      4  C   UNL     1       5.568   5.662  19.074  0.00  0.00    +0.000 C 
ATOM      5  N   UNL     1       5.464   5.929  17.641  0.00  0.00    +0.000 N 
ATOM      6  C   UNL     1       4.486   6.738  17.057  0.00  0.00    +0.000 C 
ATOM      7  O   UNL     1       4.542   7.075  15.872  0.00  0.00    +0.000 OA
ENDROOT
BRANCH   6   8
ATOM      8  C   UNL     1       3.369   7.289  17.889  0.00  0.00    +0.000 A 
ATOM      9  C   UNL     1       2.725   8.446  17.493  0.00  0.00    +0.000 A 
ATOM     10  C   UNL     1       1.829   9.047  18.379  0.00  0.00    +0.000 A 
ATOM     11  C   UNL     1       1.568   8.485  19.625  0.00  0.00    +0.000 A 
ATOM     12  N   UNL     1       0.662   9.082  20.499  0.00  0.00    +0.000 N 
ATOM     13  C   UNL     1       0.148   8.280  21.603  0.00  0.00    +0.000 C 
ATOM     14  C   UNL     1       0.756  10.519  20.740  0.00  0.00    +0.000 C 
ATOM     15  N   UNL     1       2.167   7.305  19.933  0.00  0.00    +0.000 NA
ATOM     16  N   UNL     1       3.071   6.711  19.066  0.00  0.00    +0.000 NA
ENDBRANCH   6   8
BRANCH   1  20
ATOM     17  C   UNL     1       5.678   3.319  12.752  0.00  0.00    +0.000 C 
ATOM     18  C   UNL     1       6.235   4.127  13.846  0.00  0.00    +0.000 A 
ATOM     19  N   UNL     1       5.837   4.256  15.093  0.00  0.00    +0.000 NA
ATOM     20  C   UNL     1       6.726   5.187  15.581  0.00  0.00    +0.000 A 
ATOM     21  N   UNL     1       7.685   5.551  14.709  0.00  0.00    +0.000 NA
ATOM     22  O   UNL     1       7.340   4.864  13.546  0.00  0.00    +0.000 OA
ENDBRANCH   1  20
TORSDOF 2
ENDMDL
MODEL 3
REMARK VINA RESULT:      -6.9      1.073      1.397
REMARK  Name = 
REMARK  5 active torsions:
REMARK  status: ('A' for Active; 'I' for Inactive)
REMARK    1  A    between atoms: C_1  and  C_2
REMARK    2  A    between atoms: C_4  and  C_5
REMARK    3  A    between atoms: C_10  and  C_12
REMARK    4  A    between atoms: N_16  and  C_17
REMARK    5  A    between atoms: N_16  and  C_18
REMARK                            x       y       z     vdW  Elec       q    Type
REMARK                         _______ _______ _______ _____ _____    ______ ____
ROOT
ATOM      1  C   UNL     1       4.241   4.207  17.481  0.00  0.00    +0.000 C 
ATOM      2  C   UNL     1       3.261   3.060  17.206  0.00  0.00    +0.000 C 
ATOM      3  C   UNL     1       2.051   3.428  18.048  0.00  0.00    +0.000 C 
ATOM      4  C   UNL     1       2.027   4.947  18.013  0.00  0.00    +0.000 C 
ATOM      5  N   UNL     1       3.357   5.374  17.586  0.00  0.00    +0.000 N 
ATOM      6  C   UNL     1       3.848   6.676  17.715  0.00  0.00    +0.000 C 
ATOM      7  O   UNL     1       5.031   6.950  17.504  0.00  0.00    +0.000 OA
ENDROOT
BRANCH   6   8
ATOM      8  C   UNL     1       2.950   7.775  18.195  0.00  0.00    +0.000 A 
ATOM      9  C   UNL     1       2.374   7.692  19.448  0.00  0.00    +0.000 A 
ATOM     10  C   UNL     1       1.391   8.621  19.794  0.00  0.00    +0.000 A 
ATOM     11  C   UNL     1       1.012   9.626  18.909  0.00  0.00    +0.000 A 
ATOM     12  N   UNL     1       0.041  10.559  19.265  0.00  0.00    +0.000 N 
ATOM     13  C   UNL     1      -0.050  11.785  18.480  0.00  0.00    +0.000 C 
ATOM     14  C   UNL     1      -1.205  10.087  19.863  0.00  0.00    +0.000 C 
ATOM     15  N   UNL     1       1.666   9.711  17.721  0.00  0.00    +0.000 NA
ATOM     16  N   UNL     1       2.631   8.782  17.364  0.00  0.00    +0.000 NA
ENDBRANCH   6   8
BRANCH   1  20
ATOM     17  C   UNL     1       6.847   4.099  13.256  0.00  0.00    +0.000 C 
ATOM     18  C   UNL     1       6.354   4.158  14.639  0.00  0.00    +0.000 A 
ATOM     19  N   UNL     1       5.127   4.079  15.107  0.00  0.00    +0.000 NA
ATOM     20  C   UNL     1       5.325   4.261  16.457  0.00  0.00    +0.000 A 
ATOM     21  N   UNL     1       6.617   4.356  16.823  0.00  0.00    +0.000 NA
ATOM     22  O   UNL     1       7.299   4.314  15.608  0.00  0.00    +0.000 OA
ENDBRANCH   1  20
TORSDOF 2
ENDMDL
MODEL 4
REMARK VINA RESULT:      -6.8      2.287      3.521
REMARK  Name = 
REMARK  5 active torsions:
REMARK  status: ('A' for Active; 'I' for Inactive)
REMARK    1  A    between atoms: C_1  and  C_2
REMARK    2  A    between atoms: C_4  and  C_5
REMARK    3  A    between atoms: C_10  and  C_12
REMARK    4  A    between atoms: N_16  and  C_17
REMARK    5  A    between atoms: N_16  and  C_18
REMARK                            x       y       z     vdW  Elec       q    Type
REMARK                         _______ _______ _______ _____ _____    ______ ____
ROOT
ATOM      1  C   UNL     1       4.019   4.664  17.291  0.00  0.00    +0.000 C 
ATOM      2  C   UNL     1       5.386   4.908  16.639  0.00  0.00    +0.000 C 
ATOM      3  C   UNL     1       5.290   6.346  16.159  0.00  0.00    +0.000 C 
ATOM      4  C   UNL     1       4.415   7.024  17.200  0.00  0.00    +0.000 C 
ATOM      5  N   UNL     1       3.721   5.958  17.918  0.00  0.00    +0.000 N 
ATOM      6  C   UNL     1       2.607   6.153  18.739  0.00  0.00    +0.000 C 
ATOM      7  O   UNL     1       1.950   5.208  19.182  0.00  0.00    +0.000 OA
ENDROOT
BRANCH   6   8
ATOM      8  C   UNL     1       2.129   7.540  19.043  0.00  0.00    +0.000 A 
ATOM      9  C   UNL     1       1.789   7.880  20.339  0.00  0.00    +0.000 A 
ATOM     10  C   UNL     1       1.162   9.107  20.564  0.00  0.00    +0.000 A 
ATOM     11  C   UNL     1       0.903   9.982  19.513  0.00  0.00    +0.000 A 
ATOM     12  N   UNL     1       0.290  11.211  19.746  0.00  0.00    +0.000 N 
ATOM     13  C   UNL     1       0.380  12.228  18.704  0.00  0.00    +0.000 C 
ATOM     14  C   UNL     1      -0.905  11.256  20.584  0.00  0.00    +0.000 C 
ATOM     15  N   UNL     1       1.329   9.634  18.271  0.00  0.00    +0.000 NA
ATOM     16  N   UNL     1       1.937   8.411  18.037  0.00  0.00    +0.000 NA
ENDBRANCH   6   8
BRANCH   1  20
ATOM     17  C   UNL     1       4.990   1.385  20.890  0.00  0.00    +0.000 C 
ATOM     18  C   UNL     1       4.535   2.125  19.705  0.00  0.00    +0.000 A 
ATOM     19  N   UNL     1       4.810   3.349  19.312  0.00  0.00    +0.000 NA
ATOM     20  C   UNL     1       4.040   3.464  18.177  0.00  0.00    +0.000 A 
ATOM     21  N   UNL     1       3.390   2.337  17.829  0.00  0.00    +0.000 NA
ATOM     22  O   UNL     1       3.700   1.455  18.863  0.00  0.00    +0.000 OA
ENDBRANCH   1  20
TORSDOF 2
ENDMDL
MODEL 5
REMARK VINA RESULT:      -6.8      1.686      2.171
REMARK  Name = 
REMARK  5 active torsions:
REMARK  status: ('A' for Active; 'I' for Inactive)
REMARK    1  A    between atoms: C_1  and  C_2
REMARK    2  A    between atoms: C_4  and  C_5
REMARK    3  A    between atoms: C_10  and  C_12
REMARK    4  A    between atoms: N_16  and  C_17
REMARK    5  A    between atoms: N_16  and  C_18
REMARK                            x       y       z     vdW  Elec       q    Type
REMARK                         _______ _______ _______ _____ _____    ______ ____
ROOT
ATOM      1  C   UNL     1       3.351   4.161  19.536  0.00  0.00    +0.000 C 
ATOM      2  C   UNL     1       2.492   2.903  19.716  0.00  0.00    +0.000 C 
ATOM      3  C   UNL     1       1.476   3.324  20.765  0.00  0.00    +0.000 C 
ATOM      4  C   UNL     1       1.246   4.799  20.483  0.00  0.00    +0.000 C 
ATOM      5  N   UNL     1       2.371   5.247  19.666  0.00  0.00    +0.000 N 
ATOM      6  C   UNL     1       2.705   6.586  19.445  0.00  0.00    +0.000 C 
ATOM      7  O   UNL     1       3.760   6.913  18.897  0.00  0.00    +0.000 OA
ENDROOT
BRANCH   6   8
ATOM      8  C   UNL     1       1.809   7.677  19.947  0.00  0.00    +0.000 A 
ATOM      9  C   UNL     1       1.444   8.708  19.102  0.00  0.00    +0.000 A 
ATOM     10  C   UNL     1       0.779   9.810  19.643  0.00  0.00    +0.000 A 
ATOM     11  C   UNL     1       0.466   9.864  20.998  0.00  0.00    +0.000 A 
ATOM     12  N   UNL     1      -0.211  10.960  21.529  0.00  0.00    +0.000 N 
ATOM     13  C   UNL     1      -0.835  10.808  22.839  0.00  0.00    +0.000 C 
ATOM     14  C   UNL     1       0.246  12.303  21.188  0.00  0.00    +0.000 C 
ATOM     15  N   UNL     1       0.778   8.789  21.769  0.00  0.00    +0.000 NA
ATOM     16  N   UNL     1       1.453   7.699  21.243  0.00  0.00    +0.000 NA
ENDBRANCH   6   8
BRANCH   1  20
ATOM     17  C   UNL     1       6.977   4.356  16.150  0.00  0.00    +0.000 C 
ATOM     18  C   UNL     1       5.721   4.250  16.907  0.00  0.00    +0.000 A 
ATOM     19  N   UNL     1       5.496   4.367  18.197  0.00  0.00    +0.000 NA
ATOM     20  C   UNL     1       4.147   4.106  18.276  0.00  0.00    +0.000 A 
ATOM     21  N   UNL     1       3.544   3.927  17.085  0.00  0.00    +0.000 NA
ATOM     22  O   UNL     1       4.600   3.996  16.177  0.00  0.00    +0.000 OA
ENDBRANCH   1  20
TORSDOF 2
ENDMDL
MODEL 6
REMARK VINA RESULT:      -6.8      1.523      1.897
REMARK  Name = 
REMARK  5 active torsions:
REMARK  status: ('A' for Active; 'I' for Inactive)
REMARK    1  A    between atoms: C_1  and  C_2
REMARK    2  A    between atoms: C_4  and  C_5
REMARK    3  A    between atoms: C_10  and  C_12
REMARK    4  A    between atoms: N_16  and  C_17
REMARK    5  A    between atoms: N_16  and  C_18
REMARK                            x       y       z     vdW  Elec       q    Type
REMARK                         _______ _______ _______ _____ _____    ______ ____
ROOT
ATOM      1  C   UNL     1       3.877   4.911  19.342  0.00  0.00    +0.000 C 
ATOM      2  C   UNL     1       3.255   3.670  19.995  0.00  0.00    +0.000 C 
ATOM      3  C   UNL     1       2.308   4.259  21.026  0.00  0.00    +0.000 C 
ATOM      4  C   UNL     1       1.816   5.545  20.383  0.00  0.00    +0.000 C 
ATOM      5  N   UNL     1       2.758   5.860  19.311  0.00  0.00    +0.000 N 
ATOM      6  C   UNL     1       2.847   7.102  18.677  0.00  0.00    +0.000 C 
ATOM      7  O   UNL     1       3.769   7.375  17.905  0.00  0.00    +0.000 OA
ENDROOT
BRANCH   6   8
ATOM      8  C   UNL     1       1.851   8.178  18.985  0.00  0.00    +0.000 A 
ATOM      9  C   UNL     1       1.328   8.942  17.959  0.00  0.00    +0.000 A 
ATOM     10  C   UNL     1       0.560  10.061  18.286  0.00  0.00    +0.000 A 
ATOM     11  C   UNL     1       0.304  10.391  19.614  0.00  0.00    +0.000 A 
ATOM     12  N   UNL     1      -0.475  11.502  19.933  0.00  0.00    +0.000 N 
ATOM     13  C   UNL     1      -1.018  11.589  21.285  0.00  0.00    +0.000 C 
ATOM     14  C   UNL     1      -0.198  12.772  19.270  0.00  0.00    +0.000 C 
ATOM     15  N   UNL     1       0.776   9.562  20.581  0.00  0.00    +0.000 NA
ATOM     16  N   UNL     1       1.553   8.459  20.265  0.00  0.00    +0.000 NA
ENDBRANCH   6   8
BRANCH   1  20
ATOM     17  C   UNL     1       7.049   4.470  15.547  0.00  0.00    +0.000 C 
ATOM     18  C   UNL     1       5.909   4.471  16.474  0.00  0.00    +0.000 A 
ATOM     19  N   UNL     1       5.819   4.919  17.707  0.00  0.00    +0.000 NA
ATOM     20  C   UNL     1       4.527   4.578  18.041  0.00  0.00    +0.000 A 
ATOM     21  N   UNL     1       3.819   4.029  17.035  0.00  0.00    +0.000 NA
ATOM     22  O   UNL     1       4.750   3.935  16.002  0.00  0.00    +0.000 OA
ENDBRANCH   1  20
TORSDOF 2
ENDMDL
MODEL 7
REMARK VINA RESULT:      -6.8      2.867      7.412
REMARK  Name = 
REMARK  5 active torsions:
REMARK  status: ('A' for Active; 'I' for Inactive)
REMARK    1  A    between atoms: C_1  and  C_2
REMARK    2  A    between atoms: C_4  and  C_5
REMARK    3  A    between atoms: C_10  and  C_12
REMARK    4  A    between atoms: N_16  and  C_17
REMARK    5  A    between atoms: N_16  and  C_18
REMARK                            x       y       z     vdW  Elec       q    Type
REMARK                         _______ _______ _______ _____ _____    ______ ____
ROOT
ATOM      1  C   UNL     1       3.110   5.940  19.220  0.00  0.00    +0.000 C 
ATOM      2  C   UNL     1       2.287   7.207  18.954  0.00  0.00    +0.000 C 
ATOM      3  C   UNL     1       3.143   7.976  17.962  0.00  0.00    +0.000 C 
ATOM      4  C   UNL     1       3.815   6.890  17.138  0.00  0.00    +0.000 C 
ATOM      5  N   UNL     1       3.701   5.653  17.907  0.00  0.00    +0.000 N 
ATOM      6  C   UNL     1       4.442   4.496  17.657  0.00  0.00    +0.000 C 
ATOM      7  O   UNL     1       4.441   3.540  18.436  0.00  0.00    +0.000 OA
ENDROOT
BRANCH   6   8
ATOM      8  C   UNL     1       5.333   4.417  16.455  0.00  0.00    +0.000 A 
ATOM      9  C   UNL     1       6.656   4.804  16.555  0.00  0.00    +0.000 A 
ATOM     10  C   UNL     1       7.410   4.911  15.385  0.00  0.00    +0.000 A 
ATOM     11  C   UNL     1       6.854   4.614  14.145  0.00  0.00    +0.000 A 
ATOM     12  N   UNL     1       7.616   4.710  12.982  0.00  0.00    +0.000 N 
ATOM     13  C   UNL     1       7.119   4.043  11.783  0.00  0.00    +0.000 C 
ATOM     14  C   UNL     1       8.421   5.907  12.763  0.00  0.00    +0.000 C 
ATOM     15  N   UNL     1       5.573   4.163  14.110  0.00  0.00    +0.000 NA
ATOM     16  N   UNL     1       4.813   4.069  15.265  0.00  0.00    +0.000 NA
ENDBRANCH   6   8
BRANCH   1  20
ATOM     17  C   UNL     1       1.313   2.412  22.215  0.00  0.00    +0.000 C 
ATOM     18  C   UNL     1       1.615   3.368  21.141  0.00  0.00    +0.000 A 
ATOM     19  N   UNL     1       2.579   4.257  21.043  0.00  0.00    +0.000 NA
ATOM     20  C   UNL     1       2.282   4.869  19.846  0.00  0.00    +0.000 A 
ATOM     21  N   UNL     1       1.240   4.327  19.187  0.00  0.00    +0.000 NA
ATOM     22  O   UNL     1       0.781   3.346  20.064  0.00  0.00    +0.000 OA
ENDBRANCH   1  20
TORSDOF 2
ENDMDL
MODEL 8
REMARK VINA RESULT:      -6.7      2.189      3.337
REMARK  Name = 
REMARK  5 active torsions:
REMARK  status: ('A' for Active; 'I' for Inactive)
REMARK    1  A    between atoms: C_1  and  C_2
REMARK    2  A    between atoms: C_4  and  C_5
REMARK    3  A    between atoms: C_10  and  C_12
REMARK    4  A    between atoms: N_16  and  C_17
REMARK    5  A    between atoms: N_16  and  C_18
REMARK                            x       y       z     vdW  Elec       q    Type
REMARK                         _______ _______ _______ _____ _____    ______ ____
ROOT
ATOM      1  C   UNL     1       4.132   4.610  17.269  0.00  0.00    +0.000 C 
ATOM      2  C   UNL     1       5.538   4.887  16.720  0.00  0.00    +0.000 C 
ATOM      3  C   UNL     1       5.434   6.313  16.206  0.00  0.00    +0.000 C 
ATOM      4  C   UNL     1       4.460   6.980  17.163  0.00  0.00    +0.000 C 
ATOM      5  N   UNL     1       3.746   5.904  17.846  0.00  0.00    +0.000 N 
ATOM      6  C   UNL     1       2.565   6.076  18.574  0.00  0.00    +0.000 C 
ATOM      7  O   UNL     1       1.906   5.117  18.982  0.00  0.00    +0.000 OA
ENDROOT
BRANCH   6   8
ATOM      8  C   UNL     1       2.022   7.451  18.812  0.00  0.00    +0.000 A 
ATOM      9  C   UNL     1       1.890   8.330  17.753  0.00  0.00    +0.000 A 
ATOM     10  C   UNL     1       1.572   9.661  18.026  0.00  0.00    +0.000 A 
ATOM     11  C   UNL     1       1.369  10.095  19.333  0.00  0.00    +0.000 A 
ATOM     12  N   UNL     1       1.038  11.423  19.598  0.00  0.00    +0.000 N 
ATOM     13  C   UNL     1       0.477  11.738  20.907  0.00  0.00    +0.000 C 
ATOM     14  C   UNL     1       1.811  12.483  18.959  0.00  0.00    +0.000 C 
ATOM     15  N   UNL     1       1.433   9.175  20.330  0.00  0.00    +0.000 NA
ATOM     16  N   UNL     1       1.764   7.855  20.068  0.00  0.00    +0.000 NA
ENDBRANCH   6   8
BRANCH   1  20
ATOM     17  C   UNL     1       4.966   1.404  20.968  0.00  0.00    +0.000 C 
ATOM     18  C   UNL     1       4.558   2.119  19.750  0.00  0.00    +0.000 A 
ATOM     19  N   UNL     1       4.843   3.338  19.347  0.00  0.00    +0.000 NA
ATOM     20  C   UNL     1       4.122   3.426  18.177  0.00  0.00    +0.000 A 
ATOM     21  N   UNL     1       3.494   2.289  17.823  0.00  0.00    +0.000 NA
ATOM     22  O   UNL     1       3.764   1.429  18.885  0.00  0.00    +0.000 OA
ENDBRANCH   1  20
TORSDOF 2
ENDMDL
MODEL 9
REMARK VINA RESULT:      -6.6      1.018      1.184
REMARK  Name = 
REMARK  5 active torsions:
REMARK  status: ('A' for Active; 'I' for Inactive)
REMARK    1  A    between atoms: C_1  and  C_2
REMARK    2  A    between atoms: C_4  and  C_5
REMARK    3  A    between atoms: C_10  and  C_12
REMARK    4  A    between atoms: N_16  and  C_17
REMARK    5  A    between atoms: N_16  and  C_18
REMARK                            x       y       z     vdW  Elec       q    Type
REMARK                         _______ _______ _______ _____ _____    ______ ____
ROOT
ATOM      1  C   UNL     1       4.809   4.556  18.184  0.00  0.00    +0.000 C 
ATOM      2  C   UNL     1       4.391   3.174  18.703  0.00  0.00    +0.000 C 
ATOM      3  C   UNL     1       3.549   3.502  19.925  0.00  0.00    +0.000 C 
ATOM      4  C   UNL     1       2.866   4.809  19.561  0.00  0.00    +0.000 C 
ATOM      5  N   UNL     1       3.620   5.376  18.445  0.00  0.00    +0.000 N 
ATOM      6  C   UNL     1       3.515   6.700  18.011  0.00  0.00    +0.000 C 
ATOM      7  O   UNL     1       4.295   7.179  17.185  0.00  0.00    +0.000 OA
ENDROOT
BRANCH   6   8
ATOM      8  C   UNL     1       2.483   7.608  18.608  0.00  0.00    +0.000 A 
ATOM      9  C   UNL     1       1.894   8.584  17.827  0.00  0.00    +0.000 A 
ATOM     10  C   UNL     1       1.089   9.540  18.448  0.00  0.00    +0.000 A 
ATOM     11  C   UNL     1       0.862   9.503  19.821  0.00  0.00    +0.000 A 
ATOM     12  N   UNL     1       0.047  10.452  20.433  0.00  0.00    +0.000 N 
ATOM     13  C   UNL     1      -0.455  10.160  21.772  0.00  0.00    +0.000 C 
ATOM     14  C   UNL     1       0.246  11.863  20.117  0.00  0.00    +0.000 C 
ATOM     15  N   UNL     1       1.402   8.477  20.531  0.00  0.00    +0.000 NA
ATOM     16  N   UNL     1       2.215   7.534  19.923  0.00  0.00    +0.000 NA
ENDBRANCH   6   8
BRANCH   1  20
ATOM     17  C   UNL     1       7.459   5.001  14.009  0.00  0.00    +0.000 C 
ATOM     18  C   UNL     1       6.458   4.753  15.057  0.00  0.00    +0.000 A 
ATOM     19  N   UNL     1       6.504   4.997  16.348  0.00  0.00    +0.000 NA
ATOM     20  C   UNL     1       5.299   4.488  16.777  0.00  0.00    +0.000 A 
ATOM     21  N   UNL     1       4.503   4.035  15.790  0.00  0.00    +0.000 NA
ATOM     22  O   UNL     1       5.288   4.187  14.648  0.00  0.00    +0.000 OA
ENDBRANCH   1  20
TORSDOF 2
ENDMDL
