MODEL 1
REMARK VINA RESULT:      -8.4      0.000      0.000
REMARK  Name = 
REMARK  5 active torsions:
REMARK  status: ('A' for Active; 'I' for Inactive)
REMARK    1  A    between atoms: N_4  and  C_5
REMARK    2  A    between atoms: C_7  and  C_8
REMARK    3  A    between atoms: C_13  and  O_14
REMARK    4  A    between atoms: O_14  and  C_15
REMARK    5  A    between atoms: C_20  and  C_21
REMARK                            x       y       z     vdW  Elec       q    Type
REMARK                         _______ _______ _______ _____ _____    ______ ____
ROOT
ATOM      1  C   UNL     1       6.423   5.390  16.971  0.00  0.00    +0.000 A 
ATOM      2  S   UNL     1       4.794   4.998  16.682  0.00  0.00    +0.000 S 
ATOM      3  C   UNL     1       4.550   4.407  18.288  0.00  0.00    +0.000 A 
ATOM      4  C   UNL     1       5.733   4.520  18.989  0.00  0.00    +0.000 A 
ATOM      5  C   UNL     1       6.732   5.322  18.318  0.00  0.00    +0.000 A 
ENDROOT
BRANCH   1   9
ATOM      6  N   UNL     1       7.829   5.502  13.698  0.00  0.00    +0.000 N 
ATOM      7  C   UNL     1       7.138   4.964  14.737  0.00  0.00    +0.000 C 
ATOM      8  O   UNL     1       6.658   3.843  14.626  0.00  0.00    +0.000 OA
ATOM      9  N   UNL     1       7.085   5.787  15.828  0.00  0.00    +0.000 N 
ATOM     10  H   UNL     1       7.925   4.864  12.920  0.00  0.00    +0.000 HD
ATOM     11  H   UNL     1       8.683   5.989  13.936  0.00  0.00    +0.000 HD
ATOM     12  H   UNL     1       7.009   6.771  15.604  0.00  0.00    +0.000 HD
ENDBRANCH   1   9
BRANCH   3  13
ATOM     13  C   UNL     1       3.221   3.897  18.703  0.00  0.00    +0.000 A 
ATOM     14  C   UNL     1       2.866   2.587  18.285  0.00  0.00    +0.000 A 
ATOM     15  C   UNL     1       1.633   2.001  18.584  0.00  0.00    +0.000 A 
ATOM     16  C   UNL     1       0.703   2.712  19.320  0.00  0.00    +0.000 A 
ATOM     17  C   UNL     1       1.032   3.987  19.777  0.00  0.00    +0.000 A 
ATOM     18  C   UNL     1       2.278   4.588  19.492  0.00  0.00    +0.000 A 
BRANCH  18  19
ATOM     19  O   UNL     1       2.430   5.750  20.217  0.00  0.00    +0.000 OA
BRANCH  19  20
ATOM     20  C   UNL     1       2.702   7.036  19.623  0.00  0.00    +0.000 C 
ATOM     21  C   UNL     1       2.218   7.398  18.209  0.00  0.00    +0.000 C 
ATOM     22  N   UNL     1       1.733   8.696  18.722  0.00  0.00    +0.000 NA
ATOM     23  C   UNL     1       1.742   8.153  20.093  0.00  0.00    +0.000 C 
ATOM     24  H   UNL     1       0.815   8.982  18.384  0.00  0.00    +0.000 HD
ENDBRANCH  19  20
ENDBRANCH  18  19
ENDBRANCH   3  13
BRANCH   5  25
ATOM     25  C   UNL     1       7.790   6.011  19.052  0.00  0.00    +0.000 C 
ATOM     26  N   UNL     1       8.285   5.435  20.179  0.00  0.00    +0.000 N 
ATOM     27  O   UNL     1       8.264   7.076  18.664  0.00  0.00    +0.000 OA
ATOM     28  H   UNL     1       7.624   4.905  20.743  0.00  0.00    +0.000 HD
ATOM     29  H   UNL     1       8.943   6.004  20.690  0.00  0.00    +0.000 HD
ENDBRANCH   5  25
TORSDOF 5
ENDMDL
MODEL 2
REMARK VINA RESULT:      -8.2      1.423      1.535
REMARK  Name = 
REMARK  5 active torsions:
REMARK  status: ('A' for Active; 'I' for Inactive)
REMARK    1  A    between atoms: N_4  and  C_5
REMARK    2  A    between atoms: C_7  and  C_8
REMARK    3  A    between atoms: C_13  and  O_14
REMARK    4  A    between atoms: O_14  and  C_15
REMARK    5  A    between atoms: C_20  and  C_21
REMARK                            x       y       z     vdW  Elec       q    Type
REMARK                         _______ _______ _______ _____ _____    ______ ____
ROOT
ATOM      1  C   UNL     1       6.323   4.602  16.896  0.00  0.00    +0.000 A 
ATOM      2  S   UNL     1       4.791   3.922  17.178  0.00  0.00    +0.000 S 
ATOM      3  C   UNL     1       4.735   4.483  18.813  0.00  0.00    +0.000 A 
ATOM      4  C   UNL     1       5.903   5.165  19.089  0.00  0.00    +0.000 A 
ATOM      5  C   UNL     1       6.697   5.457  17.917  0.00  0.00    +0.000 A 
ENDROOT
BRANCH   1   9
ATOM      6  N   UNL     1       7.127   4.477  13.426  0.00  0.00    +0.000 N 
ATOM      7  C   UNL     1       6.533   4.961  14.548  0.00  0.00    +0.000 C 
ATOM      8  O   UNL     1       5.797   5.935  14.468  0.00  0.00    +0.000 OA
ATOM      9  N   UNL     1       6.845   4.244  15.670  0.00  0.00    +0.000 N 
ATOM     10  H   UNL     1       6.839   4.966  12.589  0.00  0.00    +0.000 HD
ATOM     11  H   UNL     1       7.138   3.469  13.327  0.00  0.00    +0.000 HD
ATOM     12  H   UNL     1       7.795   3.895  15.690  0.00  0.00    +0.000 HD
ENDBRANCH   1   9
BRANCH   3  13
ATOM     13  C   UNL     1       3.551   4.206  19.659  0.00  0.00    +0.000 A 
ATOM     14  C   UNL     1       3.408   2.888  20.169  0.00  0.00    +0.000 A 
ATOM     15  C   UNL     1       2.323   2.488  20.954  0.00  0.00    +0.000 A 
ATOM     16  C   UNL     1       1.332   3.403  21.260  0.00  0.00    +0.000 A 
ATOM     17  C   UNL     1       1.458   4.715  20.806  0.00  0.00    +0.000 A 
ATOM     18  C   UNL     1       2.555   5.136  20.021  0.00  0.00    +0.000 A 
BRANCH  18  19
ATOM     19  O   UNL     1       2.545   6.506  19.875  0.00  0.00    +0.000 OA
BRANCH  19  20
ATOM     20  C   UNL     1       2.096   7.182  18.681  0.00  0.00    +0.000 C 
ATOM     21  C   UNL     1       1.716   8.672  18.683  0.00  0.00    +0.000 C 
ATOM     22  N   UNL     1       2.517   8.865  17.458  0.00  0.00    +0.000 NA
ATOM     23  C   UNL     1       3.246   7.613  17.742  0.00  0.00    +0.000 C 
ATOM     24  H   UNL     1       3.098   9.701  17.445  0.00  0.00    +0.000 HD
ENDBRANCH  19  20
ENDBRANCH  18  19
ENDBRANCH   3  13
BRANCH   5  25
ATOM     25  C   UNL     1       7.632   6.579  17.877  0.00  0.00    +0.000 C 
ATOM     26  N   UNL     1       8.324   6.893  19.004  0.00  0.00    +0.000 N 
ATOM     27  O   UNL     1       7.830   7.224  16.851  0.00  0.00    +0.000 OA
ATOM     28  H   UNL     1       7.840   6.748  19.887  0.00  0.00    +0.000 HD
ATOM     29  H   UNL     1       8.879   7.733  18.938  0.00  0.00    +0.000 HD
ENDBRANCH   5  25
TORSDOF 5
ENDMDL
MODEL 3
REMARK VINA RESULT:      -8.2      2.044      3.381
REMARK  Name = 
REMARK  5 active torsions:
REMARK  status: ('A' for Active; 'I' for Inactive)
REMARK    1  A    between atoms: N_4  and  C_5
REMARK    2  A    between atoms: C_7  and  C_8
REMARK    3  A    between atoms: C_13  and  O_14
REMARK    4  A    between atoms: O_14  and  C_15
REMARK    5  A    between atoms: C_20  and  C_21
REMARK                            x       y       z     vdW  Elec       q    Type
REMARK                         _______ _______ _______ _____ _____    ______ ____
ROOT
ATOM      1  C   UNL     1       5.466   4.392  17.113  0.00  0.00    +0.000 A 
ATOM      2  S   UNL     1       3.951   5.162  17.072  0.00  0.00    +0.000 S 
ATOM      3  C   UNL     1       4.078   5.716  18.705  0.00  0.00    +0.000 A 
ATOM      4  C   UNL     1       5.277   5.279  19.230  0.00  0.00    +0.000 A 
ATOM      5  C   UNL     1       6.186   4.746  18.241  0.00  0.00    +0.000 A 
ENDROOT
BRANCH   1   9
ATOM      6  N   UNL     1       6.460   3.363  13.850  0.00  0.00    +0.000 N 
ATOM      7  C   UNL     1       6.284   4.232  14.880  0.00  0.00    +0.000 C 
ATOM      8  O   UNL     1       6.616   5.402  14.745  0.00  0.00    +0.000 OA
ATOM      9  N   UNL     1       5.716   3.648  15.979  0.00  0.00    +0.000 N 
ATOM     10  H   UNL     1       6.816   3.812  13.016  0.00  0.00    +0.000 HD
ATOM     11  H   UNL     1       5.699   2.719  13.675  0.00  0.00    +0.000 HD
ATOM     12  H   UNL     1       6.011   2.694  16.144  0.00  0.00    +0.000 HD
ENDBRANCH   1   9
BRANCH   3  13
ATOM     13  C   UNL     1       2.993   6.527  19.305  0.00  0.00    +0.000 A 
ATOM     14  C   UNL     1       2.627   7.725  18.635  0.00  0.00    +0.000 A 
ATOM     15  C   UNL     1       1.642   8.593  19.110  0.00  0.00    +0.000 A 
ATOM     16  C   UNL     1       0.980   8.291  20.287  0.00  0.00    +0.000 A 
ATOM     17  C   UNL     1       1.288   7.106  20.953  0.00  0.00    +0.000 A 
ATOM     18  C   UNL     1       2.274   6.213  20.478  0.00  0.00    +0.000 A 
BRANCH  18  19
ATOM     19  O   UNL     1       2.247   5.037  21.196  0.00  0.00    +0.000 OA
BRANCH  19  20
ATOM     20  C   UNL     1       1.520   3.862  20.781  0.00  0.00    +0.000 C 
ATOM     21  C   UNL     1       1.032   3.674  19.335  0.00  0.00    +0.000 C 
ATOM     22  N   UNL     1       1.559   2.294  19.350  0.00  0.00    +0.000 NA
ATOM     23  C   UNL     1       2.425   2.642  20.492  0.00  0.00    +0.000 C 
ATOM     24  H   UNL     1       2.059   2.011  18.508  0.00  0.00    +0.000 HD
ENDBRANCH  19  20
ENDBRANCH  18  19
ENDBRANCH   3  13
BRANCH   5  25
ATOM     25  C   UNL     1       7.633   4.738  18.445  0.00  0.00    +0.000 C 
ATOM     26  N   UNL     1       8.143   5.381  19.528  0.00  0.00    +0.000 N 
ATOM     27  O   UNL     1       8.393   4.145  17.685  0.00  0.00    +0.000 OA
ATOM     28  H   UNL     1       7.656   6.224  19.825  0.00  0.00    +0.000 HD
ATOM     29  H   UNL     1       9.150   5.420  19.560  0.00  0.00    +0.000 HD
ENDBRANCH   5  25
TORSDOF 5
ENDMDL
MODEL 4
REMARK VINA RESULT:      -7.9      3.985      6.929
REMARK  Name = 
REMARK  5 active torsions:
REMARK  status: ('A' for Active; 'I' for Inactive)
REMARK    1  A    between atoms: N_4  and  C_5
REMARK    2  A    between atoms: C_7  and  C_8
REMARK    3  A    between atoms: C_13  and  O_14
REMARK    4  A    between atoms: O_14  and  C_15
REMARK    5  A    between atoms: C_20  and  C_21
REMARK                            x       y       z     vdW  Elec       q    Type
REMARK                         _______ _______ _______ _____ _____    ______ ____
ROOT
ATOM      1  C   UNL     1       1.024   8.603  20.193  0.00  0.00    +0.000 A 
ATOM      2  S   UNL     1       1.860   7.123  20.182  0.00  0.00    +0.000 S 
ATOM      3  C   UNL     1       2.430   7.344  18.565  0.00  0.00    +0.000 A 
ATOM      4  C   UNL     1       1.948   8.545  18.084  0.00  0.00    +0.000 A 
ATOM      5  C   UNL     1       1.360   9.386  19.102  0.00  0.00    +0.000 A 
ENDROOT
BRANCH   1   9
ATOM      6  N   UNL     1      -0.086   9.376  23.490  0.00  0.00    +0.000 N 
ATOM      7  C   UNL     1       0.805   9.277  22.469  0.00  0.00    +0.000 C 
ATOM      8  O   UNL     1       1.967   9.618  22.648  0.00  0.00    +0.000 OA
ATOM      9  N   UNL     1       0.253   8.770  21.324  0.00  0.00    +0.000 N 
ATOM     10  H   UNL     1       0.340   9.685  24.353  0.00  0.00    +0.000 HD
ATOM     11  H   UNL     1      -0.721   8.596  23.604  0.00  0.00    +0.000 HD
ATOM     12  H   UNL     1      -0.702   9.060  21.159  0.00  0.00    +0.000 HD
ENDBRANCH   1   9
BRANCH   3  13
ATOM     13  C   UNL     1       3.298   6.324  17.932  0.00  0.00    +0.000 A 
ATOM     14  C   UNL     1       4.585   6.740  17.498  0.00  0.00    +0.000 A 
ATOM     15  C   UNL     1       5.488   5.885  16.862  0.00  0.00    +0.000 A 
ATOM     16  C   UNL     1       5.132   4.568  16.634  0.00  0.00    +0.000 A 
ATOM     17  C   UNL     1       3.891   4.116  17.079  0.00  0.00    +0.000 A 
ATOM     18  C   UNL     1       2.972   4.966  17.734  0.00  0.00    +0.000 A 
BRANCH  18  19
ATOM     19  O   UNL     1       1.920   4.237  18.244  0.00  0.00    +0.000 OA
BRANCH  19  20
ATOM     20  C   UNL     1       2.056   3.262  19.299  0.00  0.00    +0.000 C 
ATOM     21  C   UNL     1       2.984   3.491  20.504  0.00  0.00    +0.000 C 
ATOM     22  N   UNL     1       1.901   3.050  21.406  0.00  0.00    +0.000 NA
ATOM     23  C   UNL     1       0.914   3.309  20.340  0.00  0.00    +0.000 C 
ATOM     24  H   UNL     1       1.777   3.614  22.245  0.00  0.00    +0.000 HD
ENDBRANCH  19  20
ENDBRANCH  18  19
ENDBRANCH   3  13
BRANCH   5  25
ATOM     25  C   UNL     1       1.290  10.838  18.959  0.00  0.00    +0.000 C 
ATOM     26  N   UNL     1       2.012  11.433  17.974  0.00  0.00    +0.000 N 
ATOM     27  O   UNL     1       0.577  11.528  19.682  0.00  0.00    +0.000 OA
ATOM     28  H   UNL     1       2.908  11.006  17.749  0.00  0.00    +0.000 HD
ATOM     29  H   UNL     1       1.995  12.441  17.989  0.00  0.00    +0.000 HD
ENDBRANCH   5  25
TORSDOF 5
ENDMDL
MODEL 5
REMARK VINA RESULT:      -7.8      1.935      3.451
REMARK  Name = 
REMARK  5 active torsions:
REMARK  status: ('A' for Active; 'I' for Inactive)
REMARK    1  A    between atoms: N_4  and  C_5
REMARK    2  A    between atoms: C_7  and  C_8
REMARK    3  A    between atoms: C_13  and  O_14
REMARK    4  A    between atoms: O_14  and  C_15
REMARK    5  A    between atoms: C_20  and  C_21
REMARK                            x       y       z     vdW  Elec       q    Type
REMARK                         _______ _______ _______ _____ _____    ______ ____
ROOT
ATOM      1  C   UNL     1       5.983   5.814  16.157  0.00  0.00    +0.000 A 
ATOM      2  S   UNL     1       4.697   6.927  16.149  0.00  0.00    +0.000 S 
ATOM      3  C   UNL     1       4.275   6.599  17.794  0.00  0.00    +0.000 A 
ATOM      4  C   UNL     1       5.131   5.637  18.289  0.00  0.00    +0.000 A 
ATOM      5  C   UNL     1       6.270   5.376  17.438  0.00  0.00    +0.000 A 
ENDROOT
BRANCH   1   9
ATOM      6  N   UNL     1       7.090   4.420  13.070  0.00  0.00    +0.000 N 
ATOM      7  C   UNL     1       6.491   4.422  14.290  0.00  0.00    +0.000 C 
ATOM      8  O   UNL     1       5.994   3.389  14.719  0.00  0.00    +0.000 OA
ATOM      9  N   UNL     1       6.543   5.641  14.908  0.00  0.00    +0.000 N 
ATOM     10  H   UNL     1       7.111   3.502  12.646  0.00  0.00    +0.000 HD
ATOM     11  H   UNL     1       7.967   4.921  13.003  0.00  0.00    +0.000 HD
ATOM     12  H   UNL     1       6.455   6.430  14.281  0.00  0.00    +0.000 HD
ENDBRANCH   1   9
BRANCH   3  13
ATOM     13  C   UNL     1       3.153   7.324  18.436  0.00  0.00    +0.000 A 
ATOM     14  C   UNL     1       2.637   8.460  17.758  0.00  0.00    +0.000 A 
ATOM     15  C   UNL     1       1.601   9.247  18.268  0.00  0.00    +0.000 A 
ATOM     16  C   UNL     1       1.038   8.919  19.489  0.00  0.00    +0.000 A 
ATOM     17  C   UNL     1       1.495   7.790  20.165  0.00  0.00    +0.000 A 
ATOM     18  C   UNL     1       2.534   6.979  19.656  0.00  0.00    +0.000 A 
BRANCH  18  19
ATOM     19  O   UNL     1       2.659   5.828  20.403  0.00  0.00    +0.000 OA
BRANCH  19  20
ATOM     20  C   UNL     1       1.594   4.872  20.586  0.00  0.00    +0.000 C 
ATOM     21  C   UNL     1       1.237   3.835  19.508  0.00  0.00    +0.000 C 
ATOM     22  N   UNL     1       1.199   2.786  20.548  0.00  0.00    +0.000 NA
ATOM     23  C   UNL     1       1.999   3.648  21.440  0.00  0.00    +0.000 C 
ATOM     24  H   UNL     1       1.647   1.907  20.294  0.00  0.00    +0.000 HD
ENDBRANCH  19  20
ENDBRANCH  18  19
ENDBRANCH   3  13
BRANCH   5  25
ATOM     25  C   UNL     1       7.524   4.847  17.966  0.00  0.00    +0.000 C 
ATOM     26  N   UNL     1       7.853   5.112  19.257  0.00  0.00    +0.000 N 
ATOM     27  O   UNL     1       8.272   4.147  17.287  0.00  0.00    +0.000 OA
ATOM     28  H   UNL     1       7.564   6.017  19.621  0.00  0.00    +0.000 HD
ATOM     29  H   UNL     1       8.773   4.800  19.531  0.00  0.00    +0.000 HD
ENDBRANCH   5  25
TORSDOF 5
ENDMDL
MODEL 6
REMARK VINA RESULT:      -7.8      1.691      2.999
REMARK  Name = 
REMARK  5 active torsions:
REMARK  status: ('A' for Active; 'I' for Inactive)
REMARK    1  A    between atoms: N_4  and  C_5
REMARK    2  A    between atoms: C_7  and  C_8
REMARK    3  A    between atoms: C_13  and  O_14
REMARK    4  A    between atoms: O_14  and  C_15
REMARK    5  A    between atoms: C_20  and  C_21
REMARK                            x       y       z     vdW  Elec       q    Type
REMARK                         _______ _______ _______ _____ _____    ______ ____
ROOT
ATOM      1  C   UNL     1       6.058   6.233  16.560  0.00  0.00    +0.000 A 
ATOM      2  S   UNL     1       5.102   5.859  17.916  0.00  0.00    +0.000 S 
ATOM      3  C   UNL     1       4.325   4.532  17.125  0.00  0.00    +0.000 A 
ATOM      4  C   UNL     1       4.820   4.429  15.840  0.00  0.00    +0.000 A 
ATOM      5  C   UNL     1       5.996   5.236  15.603  0.00  0.00    +0.000 A 
ENDROOT
BRANCH   1   9
ATOM      6  N   UNL     1       8.313   8.726  17.743  0.00  0.00    +0.000 N 
ATOM      7  C   UNL     1       7.699   7.514  17.721  0.00  0.00    +0.000 C 
ATOM      8  O   UNL     1       7.995   6.673  18.560  0.00  0.00    +0.000 OA
ATOM      9  N   UNL     1       6.774   7.401  16.720  0.00  0.00    +0.000 N 
ATOM     10  H   UNL     1       8.945   8.830  18.525  0.00  0.00    +0.000 HD
ATOM     11  H   UNL     1       7.718   9.529  17.587  0.00  0.00    +0.000 HD
ATOM     12  H   UNL     1       7.029   7.873  15.862  0.00  0.00    +0.000 HD
ENDBRANCH   1   9
BRANCH   3  13
ATOM     13  C   UNL     1       3.315   3.721  17.844  0.00  0.00    +0.000 A 
ATOM     14  C   UNL     1       3.579   2.333  17.994  0.00  0.00    +0.000 A 
ATOM     15  C   UNL     1       2.696   1.453  18.625  0.00  0.00    +0.000 A 
ATOM     16  C   UNL     1       1.504   1.937  19.134  0.00  0.00    +0.000 A 
ATOM     17  C   UNL     1       1.229   3.299  19.037  0.00  0.00    +0.000 A 
ATOM     18  C   UNL     1       2.117   4.202  18.412  0.00  0.00    +0.000 A 
BRANCH  18  19
ATOM     19  O   UNL     1       1.712   5.502  18.623  0.00  0.00    +0.000 OA
BRANCH  19  20
ATOM     20  C   UNL     1       2.267   6.360  19.642  0.00  0.00    +0.000 C 
ATOM     21  C   UNL     1       2.023   7.878  19.649  0.00  0.00    +0.000 C 
ATOM     22  N   UNL     1       1.708   7.807  21.091  0.00  0.00    +0.000 NA
ATOM     23  C   UNL     1       1.461   6.358  20.961  0.00  0.00    +0.000 C 
ATOM     24  H   UNL     1       0.899   8.351  21.386  0.00  0.00    +0.000 HD
ENDBRANCH  19  20
ENDBRANCH  18  19
ENDBRANCH   3  13
BRANCH   5  25
ATOM     25  C   UNL     1       6.969   4.897  14.568  0.00  0.00    +0.000 C 
ATOM     26  N   UNL     1       6.727   3.823  13.771  0.00  0.00    +0.000 N 
ATOM     27  O   UNL     1       7.979   5.569  14.380  0.00  0.00    +0.000 OA
ATOM     28  H   UNL     1       6.246   3.038  14.203  0.00  0.00    +0.000 HD
ATOM     29  H   UNL     1       7.480   3.586  13.142  0.00  0.00    +0.000 HD
ENDBRANCH   5  25
TORSDOF 5
ENDMDL
MODEL 7
REMARK VINA RESULT:      -7.7      2.583      6.258
REMARK  Name = 
REMARK  5 active torsions:
REMARK  status: ('A' for Active; 'I' for Inactive)
REMARK    1  A    between atoms: N_4  and  C_5
REMARK    2  A    between atoms: C_7  and  C_8
REMARK    3  A    between atoms: C_13  and  O_14
REMARK    4  A    between atoms: O_14  and  C_15
REMARK    5  A    between atoms: C_20  and  C_21
REMARK                            x       y       z     vdW  Elec       q    Type
REMARK                         _______ _______ _______ _____ _____    ______ ____
ROOT
ATOM      1  C   UNL     1       3.026   4.751  19.877  0.00  0.00    +0.000 A 
ATOM      2  S   UNL     1       4.310   4.015  19.041  0.00  0.00    +0.000 S 
ATOM      3  C   UNL     1       4.189   5.102  17.701  0.00  0.00    +0.000 A 
ATOM      4  C   UNL     1       3.157   5.987  17.938  0.00  0.00    +0.000 A 
ATOM      5  C   UNL     1       2.661   5.953  19.295  0.00  0.00    +0.000 A 
ENDROOT
BRANCH   1   9
ATOM      6  N   UNL     1       1.371   2.614  22.200  0.00  0.00    +0.000 N 
ATOM      7  C   UNL     1       1.590   3.215  21.001  0.00  0.00    +0.000 C 
ATOM      8  O   UNL     1       0.842   2.977  20.062  0.00  0.00    +0.000 OA
ATOM      9  N   UNL     1       2.667   4.059  21.015  0.00  0.00    +0.000 N 
ATOM     10  H   UNL     1       0.534   2.045  22.205  0.00  0.00    +0.000 HD
ATOM     11  H   UNL     1       1.470   3.203  23.017  0.00  0.00    +0.000 HD
ATOM     12  H   UNL     1       3.437   3.742  21.590  0.00  0.00    +0.000 HD
ENDBRANCH   1   9
BRANCH   3  13
ATOM     13  C   UNL     1       5.122   4.983  16.556  0.00  0.00    +0.000 A 
ATOM     14  C   UNL     1       4.943   3.879  15.681  0.00  0.00    +0.000 A 
ATOM     15  C   UNL     1       5.772   3.635  14.582  0.00  0.00    +0.000 A 
ATOM     16  C   UNL     1       6.819   4.499  14.317  0.00  0.00    +0.000 A 
ATOM     17  C   UNL     1       7.002   5.613  15.133  0.00  0.00    +0.000 A 
ATOM     18  C   UNL     1       6.166   5.878  16.241  0.00  0.00    +0.000 A 
BRANCH  18  19
ATOM     19  O   UNL     1       6.429   7.129  16.756  0.00  0.00    +0.000 OA
BRANCH  19  20
ATOM     20  C   UNL     1       7.724   7.541  17.240  0.00  0.00    +0.000 C 
ATOM     21  C   UNL     1       7.950   8.916  17.890  0.00  0.00    +0.000 C 
ATOM     22  N   UNL     1       8.703   8.262  18.980  0.00  0.00    +0.000 NA
ATOM     23  C   UNL     1       8.075   6.972  18.634  0.00  0.00    +0.000 C 
ATOM     24  H   UNL     1       8.492   8.599  19.918  0.00  0.00    +0.000 HD
ENDBRANCH  19  20
ENDBRANCH  18  19
ENDBRANCH   3  13
BRANCH   5  25
ATOM     25  C   UNL     1       1.999   7.103  19.906  0.00  0.00    +0.000 C 
ATOM     26  N   UNL     1       1.960   8.274  19.217  0.00  0.00    +0.000 N 
ATOM     27  O   UNL     1       1.455   7.033  21.004  0.00  0.00    +0.000 OA
ATOM     28  H   UNL     1       2.766   8.483  18.633  0.00  0.00    +0.000 HD
ATOM     29  H   UNL     1       1.575   9.053  19.731  0.00  0.00    +0.000 HD
ENDBRANCH   5  25
TORSDOF 5
ENDMDL
MODEL 8
REMARK VINA RESULT:      -7.7      1.852      3.217
REMARK  Name = 
REMARK  5 active torsions:
REMARK  status: ('A' for Active; 'I' for Inactive)
REMARK    1  A    between atoms: N_4  and  C_5
REMARK    2  A    between atoms: C_7  and  C_8
REMARK    3  A    between atoms: C_13  and  O_14
REMARK    4  A    between atoms: O_14  and  C_15
REMARK    5  A    between atoms: C_20  and  C_21
REMARK                            x       y       z     vdW  Elec       q    Type
REMARK                         _______ _______ _______ _____ _____    ______ ____
ROOT
ATOM      1  C   UNL     1       6.110   5.743  16.860  0.00  0.00    +0.000 A 
ATOM      2  S   UNL     1       4.636   6.568  17.055  0.00  0.00    +0.000 S 
ATOM      3  C   UNL     1       4.350   5.887  18.619  0.00  0.00    +0.000 A 
ATOM      4  C   UNL     1       5.393   5.039  18.932  0.00  0.00    +0.000 A 
ATOM      5  C   UNL     1       6.526   5.156  18.042  0.00  0.00    +0.000 A 
ENDROOT
BRANCH   1   9
ATOM      6  N   UNL     1       7.270   5.157  13.542  0.00  0.00    +0.000 N 
ATOM      7  C   UNL     1       6.718   4.835  14.741  0.00  0.00    +0.000 C 
ATOM      8  O   UNL     1       6.365   3.683  14.953  0.00  0.00    +0.000 OA
ATOM      9  N   UNL     1       6.643   5.899  15.598  0.00  0.00    +0.000 N 
ATOM     10  H   UNL     1       7.388   4.354  12.937  0.00  0.00    +0.000 HD
ATOM     11  H   UNL     1       8.077   5.767  13.572  0.00  0.00    +0.000 HD
ATOM     12  H   UNL     1       6.439   6.782  15.148  0.00  0.00    +0.000 HD
ENDBRANCH   1   9
BRANCH   3  13
ATOM     13  C   UNL     1       3.136   6.258  19.384  0.00  0.00    +0.000 A 
ATOM     14  C   UNL     1       2.624   7.570  19.201  0.00  0.00    +0.000 A 
ATOM     15  C   UNL     1       1.506   8.053  19.883  0.00  0.00    +0.000 A 
ATOM     16  C   UNL     1       0.851   7.231  20.784  0.00  0.00    +0.000 A 
ATOM     17  C   UNL     1       1.304   5.926  20.962  0.00  0.00    +0.000 A 
ATOM     18  C   UNL     1       2.428   5.420  20.270  0.00  0.00    +0.000 A 
BRANCH  18  19
ATOM     19  O   UNL     1       2.545   4.061  20.469  0.00  0.00    +0.000 OA
BRANCH  19  20
ATOM     20  C   UNL     1       1.884   3.071  19.654  0.00  0.00    +0.000 C 
ATOM     21  C   UNL     1       1.401   3.382  18.228  0.00  0.00    +0.000 C 
ATOM     22  N   UNL     1       2.004   2.117  17.762  0.00  0.00    +0.000 NA
ATOM     23  C   UNL     1       2.854   2.083  18.967  0.00  0.00    +0.000 C 
ATOM     24  H   UNL     1       2.516   2.177  16.883  0.00  0.00    +0.000 HD
ENDBRANCH  19  20
ENDBRANCH  18  19
ENDBRANCH   3  13
BRANCH   5  25
ATOM     25  C   UNL     1       7.878   4.798  18.462  0.00  0.00    +0.000 C 
ATOM     26  N   UNL     1       8.341   5.273  19.649  0.00  0.00    +0.000 N 
ATOM     27  O   UNL     1       8.594   4.060  17.790  0.00  0.00    +0.000 OA
ATOM     28  H   UNL     1       8.021   6.199  19.921  0.00  0.00    +0.000 HD
ATOM     29  H   UNL     1       9.311   5.069  19.835  0.00  0.00    +0.000 HD
ENDBRANCH   5  25
TORSDOF 5
ENDMDL
MODEL 9
REMARK VINA RESULT:      -7.7      1.616      2.854
REMARK  Name = 
REMARK  5 active torsions:
REMARK  status: ('A' for Active; 'I' for Inactive)
REMARK    1  A    between atoms: N_4  and  C_5
REMARK    2  A    between atoms: C_7  and  C_8
REMARK    3  A    between atoms: C_13  and  O_14
REMARK    4  A    between atoms: O_14  and  C_15
REMARK    5  A    between atoms: C_20  and  C_21
REMARK                            x       y       z     vdW  Elec       q    Type
REMARK                         _______ _______ _______ _____ _____    ______ ____
ROOT
ATOM      1  C   UNL     1       5.777   6.362  16.917  0.00  0.00    +0.000 A 
ATOM      2  S   UNL     1       4.764   6.220  18.275  0.00  0.00    +0.000 S 
ATOM      3  C   UNL     1       3.915   4.862  17.622  0.00  0.00    +0.000 A 
ATOM      4  C   UNL     1       4.433   4.571  16.376  0.00  0.00    +0.000 A 
ATOM      5  C   UNL     1       5.669   5.262  16.084  0.00  0.00    +0.000 A 
ENDROOT
BRANCH   1   9
ATOM      6  N   UNL     1       8.323   8.723  17.719  0.00  0.00    +0.000 N 
ATOM      7  C   UNL     1       7.651   7.544  17.796  0.00  0.00    +0.000 C 
ATOM      8  O   UNL     1       8.037   6.679  18.571  0.00  0.00    +0.000 OA
ATOM      9  N   UNL     1       6.570   7.489  16.960  0.00  0.00    +0.000 N 
ATOM     10  H   UNL     1       9.080   8.786  18.387  0.00  0.00    +0.000 HD
ATOM     11  H   UNL     1       7.753   9.557  17.667  0.00  0.00    +0.000 HD
ATOM     12  H   UNL     1       6.704   7.958  16.074  0.00  0.00    +0.000 HD
ENDBRANCH   1   9
BRANCH   3  13
ATOM     13  C   UNL     1       2.833   4.213  18.398  0.00  0.00    +0.000 A 
ATOM     14  C   UNL     1       2.508   2.870  18.069  0.00  0.00    +0.000 A 
ATOM     15  C   UNL     1       1.490   2.155  18.704  0.00  0.00    +0.000 A 
ATOM     16  C   UNL     1       0.752   2.765  19.703  0.00  0.00    +0.000 A 
ATOM     17  C   UNL     1       1.067   4.070  20.077  0.00  0.00    +0.000 A 
ATOM     18  C   UNL     1       2.101   4.802  19.451  0.00  0.00    +0.000 A 
BRANCH  18  19
ATOM     19  O   UNL     1       2.340   5.976  20.130  0.00  0.00    +0.000 OA
BRANCH  19  20
ATOM     20  C   UNL     1       1.405   7.074  20.187  0.00  0.00    +0.000 C 
ATOM     21  C   UNL     1       1.445   8.119  21.314  0.00  0.00    +0.000 C 
ATOM     22  N   UNL     1       1.323   9.192  20.306  0.00  0.00    +0.000 NA
ATOM     23  C   UNL     1       1.775   8.254  19.260  0.00  0.00    +0.000 C 
ATOM     24  H   UNL     1       1.933   9.995  20.449  0.00  0.00    +0.000 HD
ENDBRANCH  19  20
ENDBRANCH  18  19
ENDBRANCH   3  13
BRANCH   5  25
ATOM     25  C   UNL     1       6.642   4.736  15.130  0.00  0.00    +0.000 C 
ATOM     26  N   UNL     1       6.344   3.593  14.457  0.00  0.00    +0.000 N 
ATOM     27  O   UNL     1       7.702   5.310  14.898  0.00  0.00    +0.000 OA
ATOM     28  H   UNL     1       5.796   2.900  14.962  0.00  0.00    +0.000 HD
ATOM     29  H   UNL     1       7.094   3.232  13.887  0.00  0.00    +0.000 HD
ENDBRANCH   5  25
TORSDOF 5
ENDMDL
