MODEL 1
REMARK VINA RESULT:      -6.7      0.000      0.000
REMARK  Name = 
REMARK  17 active torsions:
REMARK  status: ('A' for Active; 'I' for Inactive)
REMARK    1  A    between atoms: C_1  and  C_2
REMARK    2  A    between atoms: C_2  and  C_3
REMARK    3  A    between atoms: C_3  and  C_4
REMARK    4  A    between atoms: C_4  and  O_5
REMARK    5  A    between atoms: O_5  and  P_6
REMARK    6  A    between atoms: P_6  and  O_8
REMARK    7  A    between atoms: P_6  and  O_13
REMARK    8  A    between atoms: O_8  and  C_9
REMARK    9  A    between atoms: C_9  and  C_10
REMARK   10  A    between atoms: C_10  and  C_11
REMARK   11  A    between atoms: C_11  and  C_12
REMARK   12  A    between atoms: O_13  and  C_14
REMARK   13  A    between atoms: C_14  and  N_15
REMARK   14  A    between atoms: C_18  and  C_19
REMARK   15  A    between atoms: C_19  and  C_20
REMARK   16  A    between atoms: C_20  and  C_21
REMARK   17  A    between atoms: C_20  and  C_22
REMARK                            x       y       z     vdW  Elec       q    Type
REMARK                         _______ _______ _______ _____ _____    ______ ____
ROOT
ATOM      1  O   UNL     1       4.098   4.472  19.161  0.00  0.00    +0.000 OA
ENDROOT
BRANCH   1   2
ATOM      2  P   UNL     1       3.639   6.009  18.512  0.00  0.00    +0.000 P 
ATOM      3  O   UNL     1       3.003   6.360  19.862  0.00  0.00    +0.000 OA
BRANCH   2   4
ATOM      4  O   UNL     1       3.181   7.546  17.863  0.00  0.00    +0.000 OA
BRANCH   4   5
ATOM      5  C   UNL     1       2.291   8.293  18.687  0.00  0.00    +0.000 C 
BRANCH   5   6
ATOM      6  C   UNL     1       1.358   9.132  17.822  0.00  0.00    +0.000 C 
BRANCH   6   8
ATOM      7  C   UNL     1      -0.312   9.961  19.523  0.00  0.00    +0.000 C 
ATOM      8  C   UNL     1       0.811  10.348  18.573  0.00  0.00    +0.000 C 
ENDBRANCH   6   8
ENDBRANCH   5   6
ENDBRANCH   4   5
ENDBRANCH   2   4
BRANCH   2   9
ATOM      9  O   UNL     1       2.456   5.326  17.589  0.00  0.00    +0.000 OA
BRANCH   9  10
ATOM     10  C   UNL     1       1.293   4.738  18.144  0.00  0.00    +0.000 C 
BRANCH  10  11
ATOM     11  C   UNL     1       1.331   3.215  18.140  0.00  0.00    +0.000 C 
BRANCH  11  12
ATOM     12  C   UNL     1       0.734   2.681  19.442  0.00  0.00    +0.000 C 
ATOM     13  C   UNL     1       1.140   3.502  20.652  0.00  0.00    +0.000 C 
ENDBRANCH  11  12
ENDBRANCH  10  11
ENDBRANCH   9  10
ENDBRANCH   2   9
ENDBRANCH   1   2
BRANCH   1  14
ATOM     14  C   UNL     1       5.442   4.078  19.017  0.00  0.00    +0.000 C 
BRANCH  14  15
ATOM     15  N   UNL     1       5.855   4.406  17.674  0.00  0.00    +0.000 N 
ATOM     16  C   UNL     1       5.357   3.785  16.513  0.00  0.00    +0.000 C 
ATOM     17  O   UNL     1       4.357   3.086  16.498  0.00  0.00    +0.000 OA
ATOM     18  C   UNL     1       6.276   4.019  15.322  0.00  0.00    +0.000 C 
ATOM     19  C   UNL     1       7.162   5.211  15.699  0.00  0.00    +0.000 C 
ATOM     20  S   UNL     1       7.343   5.129  17.461  0.00  0.00    +0.000 S 
ATOM     21  O   UNL     1       8.361   4.157  17.789  0.00  0.00    +0.000 OA
ATOM     22  O   UNL     1       7.320   6.460  18.014  0.00  0.00    +0.000 OA
BRANCH  18  23
ATOM     23  C   UNL     1       5.457   4.247  14.049  0.00  0.00    +0.000 C 
BRANCH  23  24
ATOM     24  C   UNL     1       5.887   3.424  12.823  0.00  0.00    +0.000 C 
ATOM     25  C   UNL     1       4.754   3.242  11.811  0.00  0.00    +0.000 C 
ATOM     26  C   UNL     1       7.076   4.116  12.151  0.00  0.00    +0.000 C 
ENDBRANCH  23  24
ENDBRANCH  18  23
ENDBRANCH  14  15
ENDBRANCH   1  14
TORSDOF 13
ENDMDL
MODEL 2
REMARK VINA RESULT:      -6.4      2.625      7.216
REMARK  Name = 
REMARK  17 active torsions:
REMARK  status: ('A' for Active; 'I' for Inactive)
REMARK    1  A    between atoms: C_1  and  C_2
REMARK    2  A    between atoms: C_2  and  C_3
REMARK    3  A    between atoms: C_3  and  C_4
REMARK    4  A    between atoms: C_4  and  O_5
REMARK    5  A    between atoms: O_5  and  P_6
REMARK    6  A    between atoms: P_6  and  O_8
REMARK    7  A    between atoms: P_6  and  O_13
REMARK    8  A    between atoms: O_8  and  C_9
REMARK    9  A    between atoms: C_9  and  C_10
REMARK   10  A    between atoms: C_10  and  C_11
REMARK   11  A    between atoms: C_11  and  C_12
REMARK   12  A    between atoms: O_13  and  C_14
REMARK   13  A    between atoms: C_14  and  N_15
REMARK   14  A    between atoms: C_18  and  C_19
REMARK   15  A    between atoms: C_19  and  C_20
REMARK   16  A    between atoms: C_20  and  C_21
REMARK   17  A    between atoms: C_20  and  C_22
REMARK                            x       y       z     vdW  Elec       q    Type
REMARK                         _______ _______ _______ _____ _____    ______ ____
ROOT
ATOM      1  O   UNL     1       6.339   4.321  18.128  0.00  0.00    +0.000 OA
ENDROOT
BRANCH   1   2
ATOM      2  P   UNL     1       6.548   4.548  16.426  0.00  0.00    +0.000 P 
ATOM      3  O   UNL     1       7.971   3.990  16.553  0.00  0.00    +0.000 OA
BRANCH   2   4
ATOM      4  O   UNL     1       6.757   4.776  14.724  0.00  0.00    +0.000 OA
BRANCH   4   5
ATOM      5  C   UNL     1       5.955   3.923  13.912  0.00  0.00    +0.000 C 
BRANCH   5   6
ATOM      6  C   UNL     1       6.551   3.823  12.512  0.00  0.00    +0.000 C 
BRANCH   6   8
ATOM      7  C   UNL     1       6.972   1.686  11.237  0.00  0.00    +0.000 C 
ATOM      8  C   UNL     1       5.925   2.688  11.698  0.00  0.00    +0.000 C 
ENDBRANCH   6   8
ENDBRANCH   5   6
ENDBRANCH   4   5
ENDBRANCH   2   4
BRANCH   2   9
ATOM      9  O   UNL     1       6.659   6.184  16.605  0.00  0.00    +0.000 OA
BRANCH   9  10
ATOM     10  C   UNL     1       7.313   6.794  17.702  0.00  0.00    +0.000 C 
BRANCH  10  11
ATOM     11  C   UNL     1       7.543   8.287  17.509  0.00  0.00    +0.000 C 
BRANCH  11  12
ATOM     12  C   UNL     1       8.570   8.786  18.527  0.00  0.00    +0.000 C 
ATOM     13  C   UNL     1       8.941  10.243  18.319  0.00  0.00    +0.000 C 
ENDBRANCH  11  12
ENDBRANCH  10  11
ENDBRANCH   9  10
ENDBRANCH   2   9
ENDBRANCH   1   2
BRANCH   1  14
ATOM     14  C   UNL     1       5.288   3.483  18.550  0.00  0.00    +0.000 C 
BRANCH  14  15
ATOM     15  N   UNL     1       4.082   4.274  18.585  0.00  0.00    +0.000 N 
ATOM     16  C   UNL     1       3.915   5.438  19.358  0.00  0.00    +0.000 C 
ATOM     17  O   UNL     1       4.839   6.038  19.884  0.00  0.00    +0.000 OA
ATOM     18  C   UNL     1       2.443   5.783  19.528  0.00  0.00    +0.000 C 
ATOM     19  C   UNL     1       1.698   5.013  18.432  0.00  0.00    +0.000 C 
ATOM     20  S   UNL     1       2.646   3.540  18.160  0.00  0.00    +0.000 S 
ATOM     21  O   UNL     1       2.321   2.571  19.182  0.00  0.00    +0.000 OA
ATOM     22  O   UNL     1       2.659   3.224  16.754  0.00  0.00    +0.000 OA
BRANCH  18  23
ATOM     23  C   UNL     1       2.235   7.298  19.457  0.00  0.00    +0.000 C 
BRANCH  23  24
ATOM     24  C   UNL     1       2.050   7.881  18.046  0.00  0.00    +0.000 C 
ATOM     25  C   UNL     1       1.321   9.227  18.056  0.00  0.00    +0.000 C 
ATOM     26  C   UNL     1       3.424   8.040  17.389  0.00  0.00    +0.000 C 
ENDBRANCH  23  24
ENDBRANCH  18  23
ENDBRANCH  14  15
ENDBRANCH   1  14
TORSDOF 13
ENDMDL
MODEL 3
REMARK VINA RESULT:      -6.4      0.852      1.063
REMARK  Name = 
REMARK  17 active torsions:
REMARK  status: ('A' for Active; 'I' for Inactive)
REMARK    1  A    between atoms: C_1  and  C_2
REMARK    2  A    between atoms: C_2  and  C_3
REMARK    3  A    between atoms: C_3  and  C_4
REMARK    4  A    between atoms: C_4  and  O_5
REMARK    5  A    between atoms: O_5  and  P_6
REMARK    6  A    between atoms: P_6  and  O_8
REMARK    7  A    between atoms: P_6  and  O_13
REMARK    8  A    between atoms: O_8  and  C_9
REMARK    9  A    between atoms: C_9  and  C_10
REMARK   10  A    between atoms: C_10  and  C_11
REMARK   11  A    between atoms: C_11  and  C_12
REMARK   12  A    between atoms: O_13  and  C_14
REMARK   13  A    between atoms: C_14  and  N_15
REMARK   14  A    between atoms: C_18  and  C_19
REMARK   15  A    between atoms: C_19  and  C_20
REMARK   16  A    between atoms: C_20  and  C_21
REMARK   17  A    between atoms: C_20  and  C_22
REMARK                            x       y       z     vdW  Elec       q    Type
REMARK                         _______ _______ _______ _____ _____    ______ ____
ROOT
ATOM      1  O   UNL     1       4.442   5.487  19.577  0.00  0.00    +0.000 OA
ENDROOT
BRANCH   1   2
ATOM      2  P   UNL     1       3.207   6.371  18.750  0.00  0.00    +0.000 P 
ATOM      3  O   UNL     1       3.040   7.252  19.994  0.00  0.00    +0.000 OA
BRANCH   2   4
ATOM      4  O   UNL     1       1.972   7.256  17.922  0.00  0.00    +0.000 OA
BRANCH   4   5
ATOM      5  C   UNL     1       2.112   8.672  17.993  0.00  0.00    +0.000 C 
BRANCH   5   6
ATOM      6  C   UNL     1       0.781   9.345  17.679  0.00  0.00    +0.000 C 
BRANCH   6   8
ATOM      7  C   UNL     1       0.980  10.096  20.081  0.00  0.00    +0.000 C 
ATOM      8  C   UNL     1       0.026   9.751  18.947  0.00  0.00    +0.000 C 
ENDBRANCH   6   8
ENDBRANCH   5   6
ENDBRANCH   4   5
ENDBRANCH   2   4
BRANCH   2   9
ATOM      9  O   UNL     1       2.139   5.124  18.900  0.00  0.00    +0.000 OA
BRANCH   9  10
ATOM     10  C   UNL     1       1.446   4.848  20.103  0.00  0.00    +0.000 C 
BRANCH  10  11
ATOM     11  C   UNL     1       0.792   3.472  20.117  0.00  0.00    +0.000 C 
BRANCH  11  12
ATOM     12  C   UNL     1       1.871   2.388  20.146  0.00  0.00    +0.000 C 
ATOM     13  C   UNL     1       2.112   1.766  18.783  0.00  0.00    +0.000 C 
ENDBRANCH  11  12
ENDBRANCH  10  11
ENDBRANCH   9  10
ENDBRANCH   2   9
ENDBRANCH   1   2
BRANCH   1  14
ATOM     14  C   UNL     1       4.874   4.275  19.002  0.00  0.00    +0.000 C 
BRANCH  14  15
ATOM     15  N   UNL     1       5.460   4.582  17.719  0.00  0.00    +0.000 N 
ATOM     16  C   UNL     1       5.086   3.972  16.507  0.00  0.00    +0.000 C 
ATOM     17  O   UNL     1       4.071   3.309  16.369  0.00  0.00    +0.000 OA
ATOM     18  C   UNL     1       6.152   4.167  15.438  0.00  0.00    +0.000 C 
ATOM     19  C   UNL     1       7.028   5.328  15.920  0.00  0.00    +0.000 C 
ATOM     20  S   UNL     1       6.987   5.250  17.691  0.00  0.00    +0.000 S 
ATOM     21  O   UNL     1       7.922   4.244  18.142  0.00  0.00    +0.000 OA
ATOM     22  O   UNL     1       6.945   6.583  18.235  0.00  0.00    +0.000 OA
BRANCH  18  23
ATOM     23  C   UNL     1       5.504   4.417  14.074  0.00  0.00    +0.000 C 
BRANCH  23  24
ATOM     24  C   UNL     1       6.011   3.531  12.923  0.00  0.00    +0.000 C 
ATOM     25  C   UNL     1       4.918   3.216  11.899  0.00  0.00    +0.000 C 
ATOM     26  C   UNL     1       7.182   4.234  12.231  0.00  0.00    +0.000 C 
ENDBRANCH  23  24
ENDBRANCH  18  23
ENDBRANCH  14  15
ENDBRANCH   1  14
TORSDOF 13
ENDMDL
MODEL 4
REMARK VINA RESULT:      -6.3      0.959      1.239
REMARK  Name = 
REMARK  17 active torsions:
REMARK  status: ('A' for Active; 'I' for Inactive)
REMARK    1  A    between atoms: C_1  and  C_2
REMARK    2  A    between atoms: C_2  and  C_3
REMARK    3  A    between atoms: C_3  and  C_4
REMARK    4  A    between atoms: C_4  and  O_5
REMARK    5  A    between atoms: O_5  and  P_6
REMARK    6  A    between atoms: P_6  and  O_8
REMARK    7  A    between atoms: P_6  and  O_13
REMARK    8  A    between atoms: O_8  and  C_9
REMARK    9  A    between atoms: C_9  and  C_10
REMARK   10  A    between atoms: C_10  and  C_11
REMARK   11  A    between atoms: C_11  and  C_12
REMARK   12  A    between atoms: O_13  and  C_14
REMARK   13  A    between atoms: C_14  and  N_15
REMARK   14  A    between atoms: C_18  and  C_19
REMARK   15  A    between atoms: C_19  and  C_20
REMARK   16  A    between atoms: C_20  and  C_21
REMARK   17  A    between atoms: C_20  and  C_22
REMARK                            x       y       z     vdW  Elec       q    Type
REMARK                         _______ _______ _______ _____ _____    ______ ____
ROOT
ATOM      1  O   UNL     1       3.974   4.650  18.947  0.00  0.00    +0.000 OA
ENDROOT
BRANCH   1   2
ATOM      2  P   UNL     1       2.964   5.998  18.556  0.00  0.00    +0.000 P 
ATOM      3  O   UNL     1       2.731   6.225  20.054  0.00  0.00    +0.000 OA
BRANCH   2   4
ATOM      4  O   UNL     1       1.954   7.347  18.164  0.00  0.00    +0.000 OA
BRANCH   4   5
ATOM      5  C   UNL     1       2.659   8.504  17.724  0.00  0.00    +0.000 C 
BRANCH   5   6
ATOM      6  C   UNL     1       1.777   9.740  17.869  0.00  0.00    +0.000 C 
BRANCH   6   8
ATOM      7  C   UNL     1      -0.501  10.253  18.826  0.00  0.00    +0.000 C 
ATOM      8  C   UNL     1       0.874   9.663  19.101  0.00  0.00    +0.000 C 
ENDBRANCH   6   8
ENDBRANCH   5   6
ENDBRANCH   4   5
ENDBRANCH   2   4
BRANCH   2   9
ATOM      9  O   UNL     1       1.755   5.008  18.029  0.00  0.00    +0.000 OA
BRANCH   9  10
ATOM     10  C   UNL     1       1.549   3.707  18.546  0.00  0.00    +0.000 C 
BRANCH  10  11
ATOM     11  C   UNL     1       0.715   3.693  19.822  0.00  0.00    +0.000 C 
BRANCH  11  12
ATOM     12  C   UNL     1       1.246   2.621  20.774  0.00  0.00    +0.000 C 
ATOM     13  C   UNL     1       2.323   3.146  21.704  0.00  0.00    +0.000 C 
ENDBRANCH  11  12
ENDBRANCH  10  11
ENDBRANCH   9  10
ENDBRANCH   2   9
ENDBRANCH   1   2
BRANCH   1  14
ATOM     14  C   UNL     1       5.351   4.764  18.669  0.00  0.00    +0.000 C 
BRANCH  14  15
ATOM     15  N   UNL     1       5.504   4.851  17.236  0.00  0.00    +0.000 N 
ATOM     16  C   UNL     1       5.142   3.834  16.333  0.00  0.00    +0.000 C 
ATOM     17  O   UNL     1       4.441   2.882  16.634  0.00  0.00    +0.000 OA
ATOM     18  C   UNL     1       5.815   4.029  14.982  0.00  0.00    +0.000 C 
ATOM     19  C   UNL     1       6.276   5.490  14.945  0.00  0.00    +0.000 C 
ATOM     20  S   UNL     1       6.633   5.917  16.629  0.00  0.00    +0.000 S 
ATOM     21  O   UNL     1       7.946   5.421  16.975  0.00  0.00    +0.000 OA
ATOM     22  O   UNL     1       6.212   7.271  16.886  0.00  0.00    +0.000 OA
BRANCH  18  23
ATOM     23  C   UNL     1       4.855   3.665  13.847  0.00  0.00    +0.000 C 
BRANCH  23  24
ATOM     24  C   UNL     1       5.406   3.849  12.423  0.00  0.00    +0.000 C 
ATOM     25  C   UNL     1       6.766   3.175  12.226  0.00  0.00    +0.000 C 
ATOM     26  C   UNL     1       4.397   3.281  11.421  0.00  0.00    +0.000 C 
ENDBRANCH  23  24
ENDBRANCH  18  23
ENDBRANCH  14  15
ENDBRANCH   1  14
TORSDOF 13
ENDMDL
MODEL 5
REMARK VINA RESULT:      -6.3      2.908      7.494
REMARK  Name = 
REMARK  17 active torsions:
REMARK  status: ('A' for Active; 'I' for Inactive)
REMARK    1  A    between atoms: C_1  and  C_2
REMARK    2  A    between atoms: C_2  and  C_3
REMARK    3  A    between atoms: C_3  and  C_4
REMARK    4  A    between atoms: C_4  and  O_5
REMARK    5  A    between atoms: O_5  and  P_6
REMARK    6  A    between atoms: P_6  and  O_8
REMARK    7  A    between atoms: P_6  and  O_13
REMARK    8  A    between atoms: O_8  and  C_9
REMARK    9  A    between atoms: C_9  and  C_10
REMARK   10  A    between atoms: C_10  and  C_11
REMARK   11  A    between atoms: C_11  and  C_12
REMARK   12  A    between atoms: O_13  and  C_14
REMARK   13  A    between atoms: C_14  and  N_15
REMARK   14  A    between atoms: C_18  and  C_19
REMARK   15  A    between atoms: C_19  and  C_20
REMARK   16  A    between atoms: C_20  and  C_21
REMARK   17  A    between atoms: C_20  and  C_22
REMARK                            x       y       z     vdW  Elec       q    Type
REMARK                         _______ _______ _______ _____ _____    ______ ____
ROOT
ATOM      1  O   UNL     1       2.147   6.738  19.008  0.00  0.00    +0.000 OA
ENDROOT
BRANCH   1   2
ATOM      2  P   UNL     1       3.570   5.842  18.601  0.00  0.00    +0.000 P 
ATOM      3  O   UNL     1       3.985   6.980  17.660  0.00  0.00    +0.000 OA
BRANCH   2   4
ATOM      4  O   UNL     1       4.993   4.947  18.194  0.00  0.00    +0.000 OA
BRANCH   4   5
ATOM      5  C   UNL     1       5.956   5.679  17.443  0.00  0.00    +0.000 C 
BRANCH   5   6
ATOM      6  C   UNL     1       7.014   4.733  16.887  0.00  0.00    +0.000 C 
BRANCH   6   8
ATOM      7  C   UNL     1       5.619   4.959  14.796  0.00  0.00    +0.000 C 
ATOM      8  C   UNL     1       6.566   4.067  15.584  0.00  0.00    +0.000 C 
ENDBRANCH   6   8
ENDBRANCH   5   6
ENDBRANCH   4   5
ENDBRANCH   2   4
BRANCH   2   9
ATOM      9  O   UNL     1       2.701   4.769  17.700  0.00  0.00    +0.000 OA
BRANCH   9  10
ATOM     10  C   UNL     1       1.449   4.255  18.114  0.00  0.00    +0.000 C 
BRANCH  10  11
ATOM     11  C   UNL     1       1.569   3.014  18.989  0.00  0.00    +0.000 C 
BRANCH  11  12
ATOM     12  C   UNL     1       0.988   3.300  20.374  0.00  0.00    +0.000 C 
ATOM     13  C   UNL     1       2.059   3.582  21.411  0.00  0.00    +0.000 C 
ENDBRANCH  11  12
ENDBRANCH  10  11
ENDBRANCH   9  10
ENDBRANCH   2   9
ENDBRANCH   1   2
BRANCH   1  14
ATOM     14  C   UNL     1       2.140   7.430  20.235  0.00  0.00    +0.000 C 
BRANCH  14  15
ATOM     15  N   UNL     1       1.167   8.491  20.137  0.00  0.00    +0.000 N 
ATOM     16  C   UNL     1       1.147   9.461  19.117  0.00  0.00    +0.000 C 
ATOM     17  O   UNL     1       1.787   9.366  18.083  0.00  0.00    +0.000 OA
ATOM     18  C   UNL     1       0.309  10.667  19.517  0.00  0.00    +0.000 C 
ATOM     19  C   UNL     1      -0.572  10.203  20.682  0.00  0.00    +0.000 C 
ATOM     20  S   UNL     1       0.371   8.961  21.525  0.00  0.00    +0.000 S 
ATOM     21  O   UNL     1       1.332   9.603  22.394  0.00  0.00    +0.000 OA
ATOM     22  O   UNL     1      -0.503   7.903  21.966  0.00  0.00    +0.000 OA
BRANCH  18  23
ATOM     23  C   UNL     1      -0.488  11.188  18.319  0.00  0.00    +0.000 C 
BRANCH  23  24
ATOM     24  C   UNL     1      -1.910  10.622  18.168  0.00  0.00    +0.000 C 
ATOM     25  C   UNL     1      -2.985  11.710  18.220  0.00  0.00    +0.000 C 
ATOM     26  C   UNL     1      -2.006   9.863  16.842  0.00  0.00    +0.000 C 
ENDBRANCH  23  24
ENDBRANCH  18  23
ENDBRANCH  14  15
ENDBRANCH   1  14
TORSDOF 13
ENDMDL
MODEL 6
REMARK VINA RESULT:      -6.2      1.212      3.967
REMARK  Name = 
REMARK  17 active torsions:
REMARK  status: ('A' for Active; 'I' for Inactive)
REMARK    1  A    between atoms: C_1  and  C_2
REMARK    2  A    between atoms: C_2  and  C_3
REMARK    3  A    between atoms: C_3  and  C_4
REMARK    4  A    between atoms: C_4  and  O_5
REMARK    5  A    between atoms: O_5  and  P_6
REMARK    6  A    between atoms: P_6  and  O_8
REMARK    7  A    between atoms: P_6  and  O_13
REMARK    8  A    between atoms: O_8  and  C_9
REMARK    9  A    between atoms: C_9  and  C_10
REMARK   10  A    between atoms: C_10  and  C_11
REMARK   11  A    between atoms: C_11  and  C_12
REMARK   12  A    between atoms: O_13  and  C_14
REMARK   13  A    between atoms: C_14  and  N_15
REMARK   14  A    between atoms: C_18  and  C_19
REMARK   15  A    between atoms: C_19  and  C_20
REMARK   16  A    between atoms: C_20  and  C_21
REMARK   17  A    between atoms: C_20  and  C_22
REMARK                            x       y       z     vdW  Elec       q    Type
REMARK                         _______ _______ _______ _____ _____    ______ ____
ROOT
ATOM      1  O   UNL     1       4.315   6.236  18.185  0.00  0.00    +0.000 OA
ENDROOT
BRANCH   1   2
ATOM      2  P   UNL     1       2.971   6.069  19.262  0.00  0.00    +0.000 P 
ATOM      3  O   UNL     1       2.216   5.315  18.161  0.00  0.00    +0.000 OA
BRANCH   2   4
ATOM      4  O   UNL     1       1.628   5.902  20.340  0.00  0.00    +0.000 OA
BRANCH   4   5
ATOM      5  C   UNL     1       1.193   4.559  20.536  0.00  0.00    +0.000 C 
BRANCH   5   6
ATOM      6  C   UNL     1       2.168   3.822  21.446  0.00  0.00    +0.000 C 
BRANCH   6   8
ATOM      7  C   UNL     1       1.842   2.137  19.596  0.00  0.00    +0.000 C 
ATOM      8  C   UNL     1       2.649   2.505  20.832  0.00  0.00    +0.000 C 
ENDBRANCH   6   8
ENDBRANCH   5   6
ENDBRANCH   4   5
ENDBRANCH   2   4
BRANCH   2   9
ATOM      9  O   UNL     1       2.579   7.663  19.105  0.00  0.00    +0.000 OA
BRANCH   9  10
ATOM     10  C   UNL     1       2.453   8.302  17.849  0.00  0.00    +0.000 C 
BRANCH  10  11
ATOM     11  C   UNL     1       1.750   9.652  17.929  0.00  0.00    +0.000 C 
BRANCH  11  12
ATOM     12  C   UNL     1       0.781   9.658  19.112  0.00  0.00    +0.000 C 
ATOM     13  C   UNL     1      -0.503  10.409  18.812  0.00  0.00    +0.000 C 
ENDBRANCH  11  12
ENDBRANCH  10  11
ENDBRANCH   9  10
ENDBRANCH   2   9
ENDBRANCH   1   2
BRANCH   1  14
ATOM     14  C   UNL     1       5.249   5.183  18.140  0.00  0.00    +0.000 C 
BRANCH  14  15
ATOM     15  N   UNL     1       5.664   5.020  16.767  0.00  0.00    +0.000 N 
ATOM     16  C   UNL     1       4.998   4.215  15.825  0.00  0.00    +0.000 C 
ATOM     17  O   UNL     1       3.874   3.769  15.991  0.00  0.00    +0.000 OA
ATOM     18  C   UNL     1       5.893   3.901  14.635  0.00  0.00    +0.000 C 
ATOM     19  C   UNL     1       7.024   4.935  14.671  0.00  0.00    +0.000 C 
ATOM     20  S   UNL     1       7.259   5.321  16.385  0.00  0.00    +0.000 S 
ATOM     21  O   UNL     1       8.065   4.289  16.997  0.00  0.00    +0.000 OA
ATOM     22  O   UNL     1       7.538   6.727  16.533  0.00  0.00    +0.000 OA
BRANCH  18  23
ATOM     23  C   UNL     1       5.086   3.926  13.334  0.00  0.00    +0.000 C 
BRANCH  23  24
ATOM     24  C   UNL     1       5.867   3.572  12.057  0.00  0.00    +0.000 C 
ATOM     25  C   UNL     1       7.330   4.018  12.121  0.00  0.00    +0.000 C 
ATOM     26  C   UNL     1       5.796   2.059  11.833  0.00  0.00    +0.000 C 
ENDBRANCH  23  24
ENDBRANCH  18  23
ENDBRANCH  14  15
ENDBRANCH   1  14
TORSDOF 13
ENDMDL
MODEL 7
REMARK VINA RESULT:      -6.2      2.868      6.843
REMARK  Name = 
REMARK  17 active torsions:
REMARK  status: ('A' for Active; 'I' for Inactive)
REMARK    1  A    between atoms: C_1  and  C_2
REMARK    2  A    between atoms: C_2  and  C_3
REMARK    3  A    between atoms: C_3  and  C_4
REMARK    4  A    between atoms: C_4  and  O_5
REMARK    5  A    between atoms: O_5  and  P_6
REMARK    6  A    between atoms: P_6  and  O_8
REMARK    7  A    between atoms: P_6  and  O_13
REMARK    8  A    between atoms: O_8  and  C_9
REMARK    9  A    between atoms: C_9  and  C_10
REMARK   10  A    between atoms: C_10  and  C_11
REMARK   11  A    between atoms: C_11  and  C_12
REMARK   12  A    between atoms: O_13  and  C_14
REMARK   13  A    between atoms: C_14  and  N_15
REMARK   14  A    between atoms: C_18  and  C_19
REMARK   15  A    between atoms: C_19  and  C_20
REMARK   16  A    between atoms: C_20  and  C_21
REMARK   17  A    between atoms: C_20  and  C_22
REMARK                            x       y       z     vdW  Elec       q    Type
REMARK                         _______ _______ _______ _____ _____    ______ ____
ROOT
ATOM      1  O   UNL     1       4.965   4.358  16.364  0.00  0.00    +0.000 OA
ENDROOT
BRANCH   1   2
ATOM      2  P   UNL     1       6.241   5.518  16.501  0.00  0.00    +0.000 P 
ATOM      3  O   UNL     1       5.393   6.508  15.695  0.00  0.00    +0.000 OA
BRANCH   2   4
ATOM      4  O   UNL     1       7.517   6.678  16.639  0.00  0.00    +0.000 OA
BRANCH   4   5
ATOM      5  C   UNL     1       7.195   7.819  17.428  0.00  0.00    +0.000 C 
BRANCH   5   6
ATOM      6  C   UNL     1       8.434   8.311  18.167  0.00  0.00    +0.000 C 
BRANCH   6   8
ATOM      7  C   UNL     1       9.222  10.414  19.319  0.00  0.00    +0.000 C 
ATOM      8  C   UNL     1       8.608   9.828  18.057  0.00  0.00    +0.000 C 
ENDBRANCH   6   8
ENDBRANCH   5   6
ENDBRANCH   4   5
ENDBRANCH   2   4
BRANCH   2   9
ATOM      9  O   UNL     1       7.176   4.697  15.418  0.00  0.00    +0.000 OA
BRANCH   9  10
ATOM     10  C   UNL     1       7.084   4.896  14.020  0.00  0.00    +0.000 C 
BRANCH  10  11
ATOM     11  C   UNL     1       6.447   3.721  13.287  0.00  0.00    +0.000 C 
BRANCH  11  12
ATOM     12  C   UNL     1       6.899   3.718  11.826  0.00  0.00    +0.000 C 
ATOM     13  C   UNL     1       7.128   2.318  11.287  0.00  0.00    +0.000 C 
ENDBRANCH  11  12
ENDBRANCH  10  11
ENDBRANCH   9  10
ENDBRANCH   2   9
ENDBRANCH   1   2
BRANCH   1  14
ATOM     14  C   UNL     1       4.673   3.572  17.496  0.00  0.00    +0.000 C 
BRANCH  14  15
ATOM     15  N   UNL     1       3.629   4.239  18.237  0.00  0.00    +0.000 N 
ATOM     16  C   UNL     1       3.855   5.150  19.286  0.00  0.00    +0.000 C 
ATOM     17  O   UNL     1       4.940   5.659  19.517  0.00  0.00    +0.000 OA
ATOM     18  C   UNL     1       2.607   5.333  20.137  0.00  0.00    +0.000 C 
ATOM     19  C   UNL     1       1.437   4.819  19.290  0.00  0.00    +0.000 C 
ATOM     20  S   UNL     1       2.117   3.538  18.270  0.00  0.00    +0.000 S 
ATOM     21  O   UNL     1       2.208   2.318  19.040  0.00  0.00    +0.000 OA
ATOM     22  O   UNL     1       1.524   3.596  16.958  0.00  0.00    +0.000 OA
BRANCH  18  23
ATOM     23  C   UNL     1       2.456   6.796  20.561  0.00  0.00    +0.000 C 
BRANCH  23  24
ATOM     24  C   UNL     1       1.593   7.672  19.638  0.00  0.00    +0.000 C 
ATOM     25  C   UNL     1       0.967   8.861  20.371  0.00  0.00    +0.000 C 
ATOM     26  C   UNL     1       2.456   8.175  18.478  0.00  0.00    +0.000 C 
ENDBRANCH  23  24
ENDBRANCH  18  23
ENDBRANCH  14  15
ENDBRANCH   1  14
TORSDOF 13
ENDMDL
MODEL 8
REMARK VINA RESULT:      -6.2      2.722      7.709
REMARK  Name = 
REMARK  17 active torsions:
REMARK  status: ('A' for Active; 'I' for Inactive)
REMARK    1  A    between atoms: C_1  and  C_2
REMARK    2  A    between atoms: C_2  and  C_3
REMARK    3  A    between atoms: C_3  and  C_4
REMARK    4  A    between atoms: C_4  and  O_5
REMARK    5  A    between atoms: O_5  and  P_6
REMARK    6  A    between atoms: P_6  and  O_8
REMARK    7  A    between atoms: P_6  and  O_13
REMARK    8  A    between atoms: O_8  and  C_9
REMARK    9  A    between atoms: C_9  and  C_10
REMARK   10  A    between atoms: C_10  and  C_11
REMARK   11  A    between atoms: C_11  and  C_12
REMARK   12  A    between atoms: O_13  and  C_14
REMARK   13  A    between atoms: C_14  and  N_15
REMARK   14  A    between atoms: C_18  and  C_19
REMARK   15  A    between atoms: C_19  and  C_20
REMARK   16  A    between atoms: C_20  and  C_21
REMARK   17  A    between atoms: C_20  and  C_22
REMARK                            x       y       z     vdW  Elec       q    Type
REMARK                         _______ _______ _______ _____ _____    ______ ____
ROOT
ATOM      1  O   UNL     1       4.686   4.698  17.221  0.00  0.00    +0.000 OA
ENDROOT
BRANCH   1   2
ATOM      2  P   UNL     1       5.584   4.828  15.748  0.00  0.00    +0.000 P 
ATOM      3  O   UNL     1       6.731   4.056  16.410  0.00  0.00    +0.000 OA
BRANCH   2   4
ATOM      4  O   UNL     1       6.482   4.957  14.275  0.00  0.00    +0.000 OA
BRANCH   4   5
ATOM      5  C   UNL     1       6.374   3.825  13.417  0.00  0.00    +0.000 C 
BRANCH   5   6
ATOM      6  C   UNL     1       4.966   3.738  12.840  0.00  0.00    +0.000 C 
BRANCH   6   8
ATOM      7  C   UNL     1       5.917   1.844  11.470  0.00  0.00    +0.000 C 
ATOM      8  C   UNL     1       4.936   3.006  11.497  0.00  0.00    +0.000 C 
ENDBRANCH   6   8
ENDBRANCH   5   6
ENDBRANCH   4   5
ENDBRANCH   2   4
BRANCH   2   9
ATOM      9  O   UNL     1       5.875   6.430  16.005  0.00  0.00    +0.000 OA
BRANCH   9  10
ATOM     10  C   UNL     1       6.228   6.953  17.272  0.00  0.00    +0.000 C 
BRANCH  10  11
ATOM     11  C   UNL     1       7.629   6.551  17.718  0.00  0.00    +0.000 C 
BRANCH  11  12
ATOM     12  C   UNL     1       8.291   7.718  18.451  0.00  0.00    +0.000 C 
ATOM     13  C   UNL     1       7.968   9.061  17.824  0.00  0.00    +0.000 C 
ENDBRANCH  11  12
ENDBRANCH  10  11
ENDBRANCH   9  10
ENDBRANCH   2   9
ENDBRANCH   1   2
BRANCH   1  14
ATOM     14  C   UNL     1       3.296   4.492  17.121  0.00  0.00    +0.000 C 
BRANCH  14  15
ATOM     15  N   UNL     1       2.679   5.076  18.288  0.00  0.00    +0.000 N 
ATOM     16  C   UNL     1       2.724   6.445  18.611  0.00  0.00    +0.000 C 
ATOM     17  O   UNL     1       3.069   7.313  17.826  0.00  0.00    +0.000 OA
ATOM     18  C   UNL     1       2.384   6.679  20.076  0.00  0.00    +0.000 C 
ATOM     19  C   UNL     1       1.679   5.406  20.557  0.00  0.00    +0.000 C 
ATOM     20  S   UNL     1       2.376   4.088  19.597  0.00  0.00    +0.000 S 
ATOM     21  O   UNL     1       3.647   3.704  20.170  0.00  0.00    +0.000 OA
ATOM     22  O   UNL     1       1.347   3.136  19.260  0.00  0.00    +0.000 OA
BRANCH  18  23
ATOM     23  C   UNL     1       1.535   7.943  20.235  0.00  0.00    +0.000 C 
BRANCH  23  24
ATOM     24  C   UNL     1       0.946   8.179  21.637  0.00  0.00    +0.000 C 
ATOM     25  C   UNL     1       1.641   9.320  22.382  0.00  0.00    +0.000 C 
ATOM     26  C   UNL     1      -0.549   8.481  21.505  0.00  0.00    +0.000 C 
ENDBRANCH  23  24
ENDBRANCH  18  23
ENDBRANCH  14  15
ENDBRANCH   1  14
TORSDOF 13
ENDMDL
MODEL 9
REMARK VINA RESULT:      -6.1      1.677      1.995
REMARK  Name = 
REMARK  17 active torsions:
REMARK  status: ('A' for Active; 'I' for Inactive)
REMARK    1  A    between atoms: C_1  and  C_2
REMARK    2  A    between atoms: C_2  and  C_3
REMARK    3  A    between atoms: C_3  and  C_4
REMARK    4  A    between atoms: C_4  and  O_5
REMARK    5  A    between atoms: O_5  and  P_6
REMARK    6  A    between atoms: P_6  and  O_8
REMARK    7  A    between atoms: P_6  and  O_13
REMARK    8  A    between atoms: O_8  and  C_9
REMARK    9  A    between atoms: C_9  and  C_10
REMARK   10  A    between atoms: C_10  and  C_11
REMARK   11  A    between atoms: C_11  and  C_12
REMARK   12  A    between atoms: O_13  and  C_14
REMARK   13  A    between atoms: C_14  and  N_15
REMARK   14  A    between atoms: C_18  and  C_19
REMARK   15  A    between atoms: C_19  and  C_20
REMARK   16  A    between atoms: C_20  and  C_21
REMARK   17  A    between atoms: C_20  and  C_22
REMARK                            x       y       z     vdW  Elec       q    Type
REMARK                         _______ _______ _______ _____ _____    ______ ____
ROOT
ATOM      1  O   UNL     1       4.353   6.201  17.344  0.00  0.00    +0.000 OA
ENDROOT
BRANCH   1   2
ATOM      2  P   UNL     1       3.104   6.414  18.522  0.00  0.00    +0.000 P 
ATOM      3  O   UNL     1       4.090   5.972  19.609  0.00  0.00    +0.000 OA
BRANCH   2   4
ATOM      4  O   UNL     1       1.855   6.626  19.700  0.00  0.00    +0.000 OA
BRANCH   4   5
ATOM      5  C   UNL     1       1.802   7.928  20.275  0.00  0.00    +0.000 C 
BRANCH   5   6
ATOM      6  C   UNL     1       0.884   7.925  21.492  0.00  0.00    +0.000 C 
BRANCH   6   8
ATOM      7  C   UNL     1      -0.264   9.528  23.067  0.00  0.00    +0.000 C 
ATOM      8  C   UNL     1       1.022   9.202  22.324  0.00  0.00    +0.000 C 
ENDBRANCH   6   8
ENDBRANCH   5   6
ENDBRANCH   4   5
ENDBRANCH   2   4
BRANCH   2   9
ATOM      9  O   UNL     1       2.318   5.057  18.010  0.00  0.00    +0.000 OA
BRANCH   9  10
ATOM     10  C   UNL     1       1.473   4.296  18.853  0.00  0.00    +0.000 C 
BRANCH  10  11
ATOM     11  C   UNL     1       2.045   2.927  19.200  0.00  0.00    +0.000 C 
BRANCH  11  12
ATOM     12  C   UNL     1       2.613   2.950  20.619  0.00  0.00    +0.000 C 
ATOM     13  C   UNL     1       1.556   2.685  21.676  0.00  0.00    +0.000 C 
ENDBRANCH  11  12
ENDBRANCH  10  11
ENDBRANCH   9  10
ENDBRANCH   2   9
ENDBRANCH   1   2
BRANCH   1  14
ATOM     14  C   UNL     1       5.003   4.952  17.300  0.00  0.00    +0.000 C 
BRANCH  14  15
ATOM     15  N   UNL     1       5.749   4.886  16.067  0.00  0.00    +0.000 N 
ATOM     16  C   UNL     1       5.376   4.113  14.951  0.00  0.00    +0.000 C 
ATOM     17  O   UNL     1       4.270   3.616  14.813  0.00  0.00    +0.000 OA
ATOM     18  C   UNL     1       6.551   3.904  14.006  0.00  0.00    +0.000 C 
ATOM     19  C   UNL     1       7.584   4.976  14.370  0.00  0.00    +0.000 C 
ATOM     20  S   UNL     1       7.371   5.269  16.106  0.00  0.00    +0.000 S 
ATOM     21  O   UNL     1       8.055   4.235  16.849  0.00  0.00    +0.000 OA
ATOM     22  O   UNL     1       7.533   6.674  16.385  0.00  0.00    +0.000 OA
BRANCH  18  23
ATOM     23  C   UNL     1       6.087   3.975  12.549  0.00  0.00    +0.000 C 
BRANCH  23  24
ATOM     24  C   UNL     1       5.295   2.758  12.042  0.00  0.00    +0.000 C 
ATOM     25  C   UNL     1       4.089   3.157  11.188  0.00  0.00    +0.000 C 
ATOM     26  C   UNL     1       6.230   1.858  11.230  0.00  0.00    +0.000 C 
ENDBRANCH  23  24
ENDBRANCH  18  23
ENDBRANCH  14  15
ENDBRANCH   1  14
TORSDOF 13
ENDMDL
