MODEL 1
REMARK VINA RESULT:      -7.3      0.000      0.000
REMARK  Name = 
REMARK  7 active torsions:
REMARK  status: ('A' for Active; 'I' for Inactive)
REMARK    1  A    between atoms: C_2  and  C_3
REMARK    2  A    between atoms: C_6  and  C_7
REMARK    3  A    between atoms: C_7  and  N_8
REMARK    4  A    between atoms: C_12  and  C_14
REMARK    5  A    between atoms: C_14  and  N_15
REMARK    6  A    between atoms: C_16  and  C_18
REMARK    7  A    between atoms: C_18  and  C_19
REMARK                            x       y       z     vdW  Elec       q    Type
REMARK                         _______ _______ _______ _____ _____    ______ ____
ROOT
ATOM      1  N   UNL     1       4.930   4.987  16.789  0.00  0.00    +0.000 NA
ATOM      2  C   UNL     1       5.658   4.650  18.021  0.00  0.00    +0.000 C 
ATOM      3  C   UNL     1       7.102   5.084  17.782  0.00  0.00    +0.000 C 
ATOM      4  N   UNL     1       7.157   6.532  17.569  0.00  0.00    +0.000 N 
ATOM      5  C   UNL     1       8.063   7.273  18.312  0.00  0.00    +0.000 C 
ATOM      6  O   UNL     1       8.727   6.771  19.222  0.00  0.00    +0.000 OA
ATOM      7  C   UNL     1       6.233   7.046  16.535  0.00  0.00    +0.000 C 
ATOM      8  C   UNL     1       4.807   6.442  16.673  0.00  0.00    +0.000 C 
ENDROOT
BRANCH   1   9
ATOM      9  C   UNL     1       3.749   4.186  16.545  0.00  0.00    +0.000 C 
BRANCH   9  13
ATOM     10  C   UNL     1       2.002   2.999  20.344  0.00  0.00    +0.000 A 
ATOM     11  C   UNL     1       1.753   4.264  19.808  0.00  0.00    +0.000 A 
ATOM     12  C   UNL     1       2.311   4.637  18.581  0.00  0.00    +0.000 A 
ATOM     13  C   UNL     1       3.124   3.752  17.867  0.00  0.00    +0.000 A 
ATOM     14  C   UNL     1       3.390   2.486  18.428  0.00  0.00    +0.000 A 
ATOM     15  C   UNL     1       2.833   2.109  19.658  0.00  0.00    +0.000 A 
BRANCH  10  17
ATOM     16  N   UNL     1       0.916   2.299  22.595  0.00  0.00    +0.000 NA
ATOM     17  C   UNL     1       1.402   2.623  21.589  0.00  0.00    +0.000 C 
ENDBRANCH  10  17
ENDBRANCH   9  13
ENDBRANCH   1   9
BRANCH   5  18
ATOM     18  C   UNL     1       8.147   8.769  18.055  0.00  0.00    +0.000 C 
BRANCH  18  19
ATOM     19  N   UNL     1       9.058   9.395  19.001  0.00  0.00    +0.000 N 
ATOM     20  C   UNL     1       9.376  10.729  18.857  0.00  0.00    +0.000 C 
ATOM     21  O   UNL     1       8.857  11.445  17.994  0.00  0.00    +0.000 OA
ATOM     22  H   UNL     1       9.669   8.795  19.539  0.00  0.00    +0.000 HD
BRANCH  20  23
ATOM     23  C   UNL     1      10.368  11.287  19.857  0.00  0.00    +0.000 C 
BRANCH  23  24
ATOM     24  C   UNL     1       9.735  12.148  20.923  0.00  0.00    +0.000 A 
ATOM     25  C   UNL     1      10.087  13.499  21.070  0.00  0.00    +0.000 A 
ATOM     26  C   UNL     1       9.550  14.261  22.111  0.00  0.00    +0.000 A 
ATOM     27  C   UNL     1       8.634  13.692  22.993  0.00  0.00    +0.000 A 
ATOM     28  C   UNL     1       8.226  12.372  22.813  0.00  0.00    +0.000 A 
ATOM     29  C   UNL     1       8.771  11.606  21.783  0.00  0.00    +0.000 A 
ENDBRANCH  23  24
ENDBRANCH  20  23
ENDBRANCH  18  19
ENDBRANCH   5  18
TORSDOF 7
ENDMDL
MODEL 2
REMARK VINA RESULT:      -7.3      6.704      9.752
REMARK  Name = 
REMARK  7 active torsions:
REMARK  status: ('A' for Active; 'I' for Inactive)
REMARK    1  A    between atoms: C_2  and  C_3
REMARK    2  A    between atoms: C_6  and  C_7
REMARK    3  A    between atoms: C_7  and  N_8
REMARK    4  A    between atoms: C_12  and  C_14
REMARK    5  A    between atoms: C_14  and  N_15
REMARK    6  A    between atoms: C_16  and  C_18
REMARK    7  A    between atoms: C_18  and  C_19
REMARK                            x       y       z     vdW  Elec       q    Type
REMARK                         _______ _______ _______ _____ _____    ______ ____
ROOT
ATOM      1  N   UNL     1      -0.442  10.832  19.711  0.00  0.00    +0.000 NA
ATOM      2  C   UNL     1      -0.139  10.292  18.378  0.00  0.00    +0.000 C 
ATOM      3  C   UNL     1       1.325   9.863  18.427  0.00  0.00    +0.000 C 
ATOM      4  N   UNL     1       1.501   8.808  19.427  0.00  0.00    +0.000 N 
ATOM      5  C   UNL     1       2.166   7.650  19.053  0.00  0.00    +0.000 C 
ATOM      6  O   UNL     1       2.499   7.436  17.886  0.00  0.00    +0.000 OA
ATOM      7  C   UNL     1       0.958   9.121  20.766  0.00  0.00    +0.000 C 
ATOM      8  C   UNL     1      -0.465   9.743  20.690  0.00  0.00    +0.000 C 
ENDROOT
BRANCH   1   9
ATOM      9  C   UNL     1      -1.524  11.795  19.743  0.00  0.00    +0.000 C 
BRANCH   9  13
ATOM     10  C   UNL     1      -1.441  14.124  23.411  0.00  0.00    +0.000 A 
ATOM     11  C   UNL     1      -2.525  13.294  23.117  0.00  0.00    +0.000 A 
ATOM     12  C   UNL     1      -2.542  12.541  21.939  0.00  0.00    +0.000 A 
ATOM     13  C   UNL     1      -1.475  12.600  21.037  0.00  0.00    +0.000 A 
ATOM     14  C   UNL     1      -0.396  13.458  21.331  0.00  0.00    +0.000 A 
ATOM     15  C   UNL     1      -0.376  14.215  22.511  0.00  0.00    +0.000 A 
BRANCH  10  17
ATOM     16  N   UNL     1      -1.423  15.458  25.638  0.00  0.00    +0.000 NA
ATOM     17  C   UNL     1      -1.427  14.868  24.635  0.00  0.00    +0.000 C 
ENDBRANCH  10  17
ENDBRANCH   9  13
ENDBRANCH   1   9
BRANCH   5  18
ATOM     18  C   UNL     1       2.384   6.577  20.108  0.00  0.00    +0.000 C 
BRANCH  18  19
ATOM     19  N   UNL     1       3.561   5.784  19.788  0.00  0.00    +0.000 N 
ATOM     20  C   UNL     1       3.412   4.462  19.425  0.00  0.00    +0.000 C 
ATOM     21  O   UNL     1       2.303   3.934  19.286  0.00  0.00    +0.000 OA
ATOM     22  H   UNL     1       4.457   6.107  20.128  0.00  0.00    +0.000 HD
BRANCH  20  23
ATOM     23  C   UNL     1       4.692   3.699  19.155  0.00  0.00    +0.000 C 
BRANCH  23  24
ATOM     24  C   UNL     1       5.389   4.115  17.881  0.00  0.00    +0.000 A 
ATOM     25  C   UNL     1       6.675   4.677  17.907  0.00  0.00    +0.000 A 
ATOM     26  C   UNL     1       7.273   5.129  16.727  0.00  0.00    +0.000 A 
ATOM     27  C   UNL     1       6.608   4.994  15.510  0.00  0.00    +0.000 A 
ATOM     28  C   UNL     1       5.360   4.375  15.467  0.00  0.00    +0.000 A 
ATOM     29  C   UNL     1       4.756   3.936  16.645  0.00  0.00    +0.000 A 
ENDBRANCH  23  24
ENDBRANCH  20  23
ENDBRANCH  18  19
ENDBRANCH   5  18
TORSDOF 7
ENDMDL
MODEL 3
REMARK VINA RESULT:      -7.2      5.700      8.034
REMARK  Name = 
REMARK  7 active torsions:
REMARK  status: ('A' for Active; 'I' for Inactive)
REMARK    1  A    between atoms: C_2  and  C_3
REMARK    2  A    between atoms: C_6  and  C_7
REMARK    3  A    between atoms: C_7  and  N_8
REMARK    4  A    between atoms: C_12  and  C_14
REMARK    5  A    between atoms: C_14  and  N_15
REMARK    6  A    between atoms: C_16  and  C_18
REMARK    7  A    between atoms: C_18  and  C_19
REMARK                            x       y       z     vdW  Elec       q    Type
REMARK                         _______ _______ _______ _____ _____    ______ ____
ROOT
ATOM      1  N   UNL     1       3.627   4.777  19.205  0.00  0.00    +0.000 NA
ATOM      2  C   UNL     1       4.036   6.160  18.922  0.00  0.00    +0.000 C 
ATOM      3  C   UNL     1       2.744   6.934  18.671  0.00  0.00    +0.000 C 
ATOM      4  N   UNL     1       1.911   6.914  19.875  0.00  0.00    +0.000 N 
ATOM      5  C   UNL     1       1.414   8.116  20.352  0.00  0.00    +0.000 C 
ATOM      6  O   UNL     1       1.751   9.200  19.869  0.00  0.00    +0.000 OA
ATOM      7  C   UNL     1       1.666   5.570  20.441  0.00  0.00    +0.000 C 
ATOM      8  C   UNL     1       2.965   4.718  20.511  0.00  0.00    +0.000 C 
ENDROOT
BRANCH   1   9
ATOM      9  C   UNL     1       4.630   3.776  18.908  0.00  0.00    +0.000 C 
BRANCH   9  13
ATOM     10  C   UNL     1       6.669   4.805  15.211  0.00  0.00    +0.000 A 
ATOM     11  C   UNL     1       7.326   4.902  16.439  0.00  0.00    +0.000 A 
ATOM     12  C   UNL     1       6.667   4.561  17.625  0.00  0.00    +0.000 A 
ATOM     13  C   UNL     1       5.342   4.114  17.603  0.00  0.00    +0.000 A 
ATOM     14  C   UNL     1       4.680   4.043  16.361  0.00  0.00    +0.000 A 
ATOM     15  C   UNL     1       5.337   4.384  15.171  0.00  0.00    +0.000 A 
BRANCH  10  17
ATOM     16  N   UNL     1       7.936   5.380  13.020  0.00  0.00    +0.000 NA
ATOM     17  C   UNL     1       7.366   5.133  14.003  0.00  0.00    +0.000 C 
ENDBRANCH  10  17
ENDBRANCH   9  13
ENDBRANCH   1   9
BRANCH   5  18
ATOM     18  C   UNL     1       0.514   8.085  21.576  0.00  0.00    +0.000 C 
BRANCH  18  19
ATOM     19  N   UNL     1      -0.254   9.318  21.673  0.00  0.00    +0.000 N 
ATOM     20  C   UNL     1      -0.309   9.990  22.875  0.00  0.00    +0.000 C 
ATOM     21  O   UNL     1       0.332   9.629  23.868  0.00  0.00    +0.000 OA
ATOM     22  H   UNL     1      -0.965   9.489  20.975  0.00  0.00    +0.000 HD
BRANCH  20  23
ATOM     23  C   UNL     1      -1.168  11.238  22.898  0.00  0.00    +0.000 C 
BRANCH  23  24
ATOM     24  C   UNL     1      -0.947  12.149  21.714  0.00  0.00    +0.000 A 
ATOM     25  C   UNL     1      -1.870  12.206  20.659  0.00  0.00    +0.000 A 
ATOM     26  C   UNL     1      -1.611  12.995  19.535  0.00  0.00    +0.000 A 
ATOM     27  C   UNL     1      -0.447  13.758  19.469  0.00  0.00    +0.000 A 
ATOM     28  C   UNL     1       0.442  13.760  20.542  0.00  0.00    +0.000 A 
ATOM     29  C   UNL     1       0.192  12.963  21.659  0.00  0.00    +0.000 A 
ENDBRANCH  23  24
ENDBRANCH  20  23
ENDBRANCH  18  19
ENDBRANCH   5  18
TORSDOF 7
ENDMDL
MODEL 4
REMARK VINA RESULT:      -7.2      1.522      2.294
REMARK  Name = 
REMARK  7 active torsions:
REMARK  status: ('A' for Active; 'I' for Inactive)
REMARK    1  A    between atoms: C_2  and  C_3
REMARK    2  A    between atoms: C_6  and  C_7
REMARK    3  A    between atoms: C_7  and  N_8
REMARK    4  A    between atoms: C_12  and  C_14
REMARK    5  A    between atoms: C_14  and  N_15
REMARK    6  A    between atoms: C_16  and  C_18
REMARK    7  A    between atoms: C_18  and  C_19
REMARK                            x       y       z     vdW  Elec       q    Type
REMARK                         _______ _______ _______ _____ _____    ______ ____
ROOT
ATOM      1  N   UNL     1       5.033   4.618  16.745  0.00  0.00    +0.000 NA
ATOM      2  C   UNL     1       5.758   4.438  18.011  0.00  0.00    +0.000 C 
ATOM      3  C   UNL     1       7.167   4.970  17.763  0.00  0.00    +0.000 C 
ATOM      4  N   UNL     1       7.110   6.396  17.437  0.00  0.00    +0.000 N 
ATOM      5  C   UNL     1       7.936   7.264  18.134  0.00  0.00    +0.000 C 
ATOM      6  O   UNL     1       8.617   6.891  19.091  0.00  0.00    +0.000 OA
ATOM      7  C   UNL     1       6.172   6.751  16.350  0.00  0.00    +0.000 C 
ATOM      8  C   UNL     1       4.796   6.044  16.511  0.00  0.00    +0.000 C 
ENDROOT
BRANCH   1   9
ATOM      9  C   UNL     1       3.926   3.706  16.545  0.00  0.00    +0.000 C 
BRANCH   9  13
ATOM     10  C   UNL     1       2.037   2.880  20.372  0.00  0.00    +0.000 A 
ATOM     11  C   UNL     1       2.064   4.177  19.854  0.00  0.00    +0.000 A 
ATOM     12  C   UNL     1       2.666   4.434  18.618  0.00  0.00    +0.000 A 
ATOM     13  C   UNL     1       3.248   3.401  17.877  0.00  0.00    +0.000 A 
ATOM     14  C   UNL     1       3.237   2.100  18.419  0.00  0.00    +0.000 A 
ATOM     15  C   UNL     1       2.635   1.838  19.657  0.00  0.00    +0.000 A 
BRANCH  10  17
ATOM     16  N   UNL     1       0.856   2.414  22.636  0.00  0.00    +0.000 NA
ATOM     17  C   UNL     1       1.393   2.628  21.626  0.00  0.00    +0.000 C 
ENDBRANCH  10  17
ENDBRANCH   9  13
ENDBRANCH   1   9
BRANCH   5  18
ATOM     18  C   UNL     1       7.905   8.738  17.761  0.00  0.00    +0.000 C 
BRANCH  18  19
ATOM     19  N   UNL     1       8.823   9.493  18.601  0.00  0.00    +0.000 N 
ATOM     20  C   UNL     1       8.974  10.847  18.395  0.00  0.00    +0.000 C 
ATOM     21  O   UNL     1       8.300  11.472  17.568  0.00  0.00    +0.000 OA
ATOM     22  H   UNL     1       9.544   8.982  19.092  0.00  0.00    +0.000 HD
BRANCH  20  23
ATOM     23  C   UNL     1       9.984  11.545  19.282  0.00  0.00    +0.000 C 
BRANCH  23  24
ATOM     24  C   UNL     1      10.587  12.782  18.659  0.00  0.00    +0.000 A 
ATOM     25  C   UNL     1      10.378  14.052  19.218  0.00  0.00    +0.000 A 
ATOM     26  C   UNL     1      10.877  15.194  18.585  0.00  0.00    +0.000 A 
ATOM     27  C   UNL     1      11.615  15.075  17.409  0.00  0.00    +0.000 A 
ATOM     28  C   UNL     1      11.886  13.813  16.885  0.00  0.00    +0.000 A 
ATOM     29  C   UNL     1      11.377  12.673  17.508  0.00  0.00    +0.000 A 
ENDBRANCH  23  24
ENDBRANCH  20  23
ENDBRANCH  18  19
ENDBRANCH   5  18
TORSDOF 7
ENDMDL
MODEL 5
REMARK VINA RESULT:      -7.1      6.987     10.024
REMARK  Name = 
REMARK  7 active torsions:
REMARK  status: ('A' for Active; 'I' for Inactive)
REMARK    1  A    between atoms: C_2  and  C_3
REMARK    2  A    between atoms: C_6  and  C_7
REMARK    3  A    between atoms: C_7  and  N_8
REMARK    4  A    between atoms: C_12  and  C_14
REMARK    5  A    between atoms: C_14  and  N_15
REMARK    6  A    between atoms: C_16  and  C_18
REMARK    7  A    between atoms: C_18  and  C_19
REMARK                            x       y       z     vdW  Elec       q    Type
REMARK                         _______ _______ _______ _____ _____    ______ ____
ROOT
ATOM      1  N   UNL     1       0.178  11.756  20.493  0.00  0.00    +0.000 NA
ATOM      2  C   UNL     1       0.631  10.726  21.439  0.00  0.00    +0.000 C 
ATOM      3  C   UNL     1       0.357   9.387  20.759  0.00  0.00    +0.000 C 
ATOM      4  N   UNL     1       1.139   9.287  19.525  0.00  0.00    +0.000 N 
ATOM      5  C   UNL     1       1.904   8.149  19.320  0.00  0.00    +0.000 C 
ATOM      6  O   UNL     1       2.039   7.288  20.192  0.00  0.00    +0.000 OA
ATOM      7  C   UNL     1       0.994  10.432  18.600  0.00  0.00    +0.000 C 
ATOM      8  C   UNL     1       1.081  11.796  19.340  0.00  0.00    +0.000 C 
ENDROOT
BRANCH   1   9
ATOM      9  C   UNL     1      -0.200  13.014  21.102  0.00  0.00    +0.000 C 
BRANCH   9  13
ATOM     10  C   UNL     1      -4.218  12.684  22.726  0.00  0.00    +0.000 A 
ATOM     11  C   UNL     1      -3.104  12.377  23.510  0.00  0.00    +0.000 A 
ATOM     12  C   UNL     1      -1.813  12.493  22.984  0.00  0.00    +0.000 A 
ATOM     13  C   UNL     1      -1.613  12.922  21.668  0.00  0.00    +0.000 A 
ATOM     14  C   UNL     1      -2.744  13.207  20.877  0.00  0.00    +0.000 A 
ATOM     15  C   UNL     1      -4.039  13.091  21.401  0.00  0.00    +0.000 A 
BRANCH  10  17
ATOM     16  N   UNL     1      -6.601  12.525  23.742  0.00  0.00    +0.000 NA
ATOM     17  C   UNL     1      -5.532  12.586  23.288  0.00  0.00    +0.000 C 
ENDBRANCH  10  17
ENDBRANCH   9  13
ENDBRANCH   1   9
BRANCH   5  18
ATOM     18  C   UNL     1       2.678   8.031  18.017  0.00  0.00    +0.000 C 
BRANCH  18  19
ATOM     19  N   UNL     1       3.022   6.641  17.757  0.00  0.00    +0.000 N 
ATOM     20  C   UNL     1       4.297   6.323  17.340  0.00  0.00    +0.000 C 
ATOM     21  O   UNL     1       5.195   7.169  17.249  0.00  0.00    +0.000 OA
ATOM     22  H   UNL     1       2.267   5.991  17.584  0.00  0.00    +0.000 HD
BRANCH  20  23
ATOM     23  C   UNL     1       4.555   4.860  17.047  0.00  0.00    +0.000 C 
BRANCH  23  24
ATOM     24  C   UNL     1       3.736   3.918  17.896  0.00  0.00    +0.000 A 
ATOM     25  C   UNL     1       4.103   3.626  19.219  0.00  0.00    +0.000 A 
ATOM     26  C   UNL     1       3.379   2.692  19.964  0.00  0.00    +0.000 A 
ATOM     27  C   UNL     1       2.265   2.067  19.409  0.00  0.00    +0.000 A 
ATOM     28  C   UNL     1       1.852   2.402  18.122  0.00  0.00    +0.000 A 
ATOM     29  C   UNL     1       2.581   3.324  17.371  0.00  0.00    +0.000 A 
ENDBRANCH  23  24
ENDBRANCH  20  23
ENDBRANCH  18  19
ENDBRANCH   5  18
TORSDOF 7
ENDMDL
MODEL 6
REMARK VINA RESULT:      -7.1      7.389     10.028
REMARK  Name = 
REMARK  7 active torsions:
REMARK  status: ('A' for Active; 'I' for Inactive)
REMARK    1  A    between atoms: C_2  and  C_3
REMARK    2  A    between atoms: C_6  and  C_7
REMARK    3  A    between atoms: C_7  and  N_8
REMARK    4  A    between atoms: C_12  and  C_14
REMARK    5  A    between atoms: C_14  and  N_15
REMARK    6  A    between atoms: C_16  and  C_18
REMARK    7  A    between atoms: C_18  and  C_19
REMARK                            x       y       z     vdW  Elec       q    Type
REMARK                         _______ _______ _______ _____ _____    ______ ____
ROOT
ATOM      1  N   UNL     1      -0.322  11.844  20.467  0.00  0.00    +0.000 NA
ATOM      2  C   UNL     1       0.244  11.029  21.552  0.00  0.00    +0.000 C 
ATOM      3  C   UNL     1       0.014   9.576  21.145  0.00  0.00    +0.000 C 
ATOM      4  N   UNL     1       0.731   9.289  19.900  0.00  0.00    +0.000 N 
ATOM      5  C   UNL     1       1.551   8.173  19.855  0.00  0.00    +0.000 C 
ATOM      6  O   UNL     1       1.786   7.494  20.857  0.00  0.00    +0.000 OA
ATOM      7  C   UNL     1       0.466  10.236  18.795  0.00  0.00    +0.000 C 
ATOM      8  C   UNL     1       0.511  11.716  19.269  0.00  0.00    +0.000 C 
ENDROOT
BRANCH   1   9
ATOM      9  C   UNL     1      -0.741  13.172  20.862  0.00  0.00    +0.000 C 
BRANCH   9  13
ATOM     10  C   UNL     1      -4.587  12.951  22.875  0.00  0.00    +0.000 A 
ATOM     11  C   UNL     1      -3.423  13.243  23.590  0.00  0.00    +0.000 A 
ATOM     12  C   UNL     1      -2.190  13.322  22.934  0.00  0.00    +0.000 A 
ATOM     13  C   UNL     1      -2.098  13.113  21.555  0.00  0.00    +0.000 A 
ATOM     14  C   UNL     1      -3.275  12.795  20.846  0.00  0.00    +0.000 A 
ATOM     15  C   UNL     1      -4.512  12.714  21.500  0.00  0.00    +0.000 A 
BRANCH  10  17
ATOM     16  N   UNL     1      -6.871  12.842  24.104  0.00  0.00    +0.000 NA
ATOM     17  C   UNL     1      -5.846  12.901  23.556  0.00  0.00    +0.000 C 
ENDBRANCH  10  17
ENDBRANCH   9  13
ENDBRANCH   1   9
BRANCH   5  18
ATOM     18  C   UNL     1       2.258   7.855  18.547  0.00  0.00    +0.000 C 
BRANCH  18  19
ATOM     19  N   UNL     1       3.148   6.716  18.716  0.00  0.00    +0.000 N 
ATOM     20  C   UNL     1       2.734   5.464  18.315  0.00  0.00    +0.000 C 
ATOM     21  O   UNL     1       1.655   5.275  17.741  0.00  0.00    +0.000 OA
ATOM     22  H   UNL     1       3.900   6.799  19.387  0.00  0.00    +0.000 HD
BRANCH  20  23
ATOM     23  C   UNL     1       3.705   4.330  18.570  0.00  0.00    +0.000 C 
BRANCH  23  24
ATOM     24  C   UNL     1       4.919   4.356  17.673  0.00  0.00    +0.000 A 
ATOM     25  C   UNL     1       6.190   4.671  18.179  0.00  0.00    +0.000 A 
ATOM     26  C   UNL     1       7.288   4.769  17.321  0.00  0.00    +0.000 A 
ATOM     27  C   UNL     1       7.135   4.520  15.958  0.00  0.00    +0.000 A 
ATOM     28  C   UNL     1       5.892   4.139  15.458  0.00  0.00    +0.000 A 
ATOM     29  C   UNL     1       4.791   4.055  16.311  0.00  0.00    +0.000 A 
ENDBRANCH  23  24
ENDBRANCH  20  23
ENDBRANCH  18  19
ENDBRANCH   5  18
TORSDOF 7
ENDMDL
MODEL 7
REMARK VINA RESULT:      -7.1      7.245      9.929
REMARK  Name = 
REMARK  7 active torsions:
REMARK  status: ('A' for Active; 'I' for Inactive)
REMARK    1  A    between atoms: C_2  and  C_3
REMARK    2  A    between atoms: C_6  and  C_7
REMARK    3  A    between atoms: C_7  and  N_8
REMARK    4  A    between atoms: C_12  and  C_14
REMARK    5  A    between atoms: C_14  and  N_15
REMARK    6  A    between atoms: C_16  and  C_18
REMARK    7  A    between atoms: C_18  and  C_19
REMARK                            x       y       z     vdW  Elec       q    Type
REMARK                         _______ _______ _______ _____ _____    ______ ____
ROOT
ATOM      1  N   UNL     1      -0.066  11.668  20.522  0.00  0.00    +0.000 NA
ATOM      2  C   UNL     1       0.559  10.802  21.533  0.00  0.00    +0.000 C 
ATOM      3  C   UNL     1       0.279   9.370  21.083  0.00  0.00    +0.000 C 
ATOM      4  N   UNL     1       0.907   9.126  19.783  0.00  0.00    +0.000 N 
ATOM      5  C   UNL     1       1.705   8.002  19.637  0.00  0.00    +0.000 C 
ATOM      6  O   UNL     1       1.996   7.280  20.593  0.00  0.00    +0.000 OA
ATOM      7  C   UNL     1       0.583  10.121  18.737  0.00  0.00    +0.000 C 
ATOM      8  C   UNL     1       0.683  11.580  19.267  0.00  0.00    +0.000 C 
ENDROOT
BRANCH   1   9
ATOM      9  C   UNL     1      -0.437  12.985  20.999  0.00  0.00    +0.000 C 
BRANCH   9  13
ATOM     10  C   UNL     1      -4.349  12.916  22.892  0.00  0.00    +0.000 A 
ATOM     11  C   UNL     1      -4.212  13.271  21.548  0.00  0.00    +0.000 A 
ATOM     12  C   UNL     1      -2.952  13.282  20.943  0.00  0.00    +0.000 A 
ATOM     13  C   UNL     1      -1.807  12.937  21.667  0.00  0.00    +0.000 A 
ATOM     14  C   UNL     1      -1.952  12.603  23.029  0.00  0.00    +0.000 A 
ATOM     15  C   UNL     1      -3.213  12.591  23.639  0.00  0.00    +0.000 A 
BRANCH  10  17
ATOM     16  N   UNL     1      -6.704  12.873  23.982  0.00  0.00    +0.000 NA
ATOM     17  C   UNL     1      -5.650  12.882  23.490  0.00  0.00    +0.000 C 
ENDBRANCH  10  17
ENDBRANCH   9  13
ENDBRANCH   1   9
BRANCH   5  18
ATOM     18  C   UNL     1       2.318   7.730  18.273  0.00  0.00    +0.000 C 
BRANCH  18  19
ATOM     19  N   UNL     1       3.250   6.615  18.349  0.00  0.00    +0.000 N 
ATOM     20  C   UNL     1       2.804   5.338  18.088  0.00  0.00    +0.000 C 
ATOM     21  O   UNL     1       1.649   5.102  17.713  0.00  0.00    +0.000 OA
ATOM     22  H   UNL     1       4.100   6.745  18.880  0.00  0.00    +0.000 HD
BRANCH  20  23
ATOM     23  C   UNL     1       3.829   4.232  18.236  0.00  0.00    +0.000 C 
BRANCH  23  24
ATOM     24  C   UNL     1       5.023   4.386  17.324  0.00  0.00    +0.000 A 
ATOM     25  C   UNL     1       4.877   4.379  15.928  0.00  0.00    +0.000 A 
ATOM     26  C   UNL     1       6.000   4.443  15.100  0.00  0.00    +0.000 A 
ATOM     27  C   UNL     1       7.274   4.549  15.655  0.00  0.00    +0.000 A 
ATOM     28  C   UNL     1       7.423   4.627  17.038  0.00  0.00    +0.000 A 
ATOM     29  C   UNL     1       6.304   4.549  17.867  0.00  0.00    +0.000 A 
ENDBRANCH  23  24
ENDBRANCH  20  23
ENDBRANCH  18  19
ENDBRANCH   5  18
TORSDOF 7
ENDMDL
MODEL 8
REMARK VINA RESULT:      -7.1      7.590     10.660
REMARK  Name = 
REMARK  7 active torsions:
REMARK  status: ('A' for Active; 'I' for Inactive)
REMARK    1  A    between atoms: C_2  and  C_3
REMARK    2  A    between atoms: C_6  and  C_7
REMARK    3  A    between atoms: C_7  and  N_8
REMARK    4  A    between atoms: C_12  and  C_14
REMARK    5  A    between atoms: C_14  and  N_15
REMARK    6  A    between atoms: C_16  and  C_18
REMARK    7  A    between atoms: C_18  and  C_19
REMARK                            x       y       z     vdW  Elec       q    Type
REMARK                         _______ _______ _______ _____ _____    ______ ____
ROOT
ATOM      1  N   UNL     1      -0.684  11.319  22.206  0.00  0.00    +0.000 NA
ATOM      2  C   UNL     1      -0.324  10.120  22.976  0.00  0.00    +0.000 C 
ATOM      3  C   UNL     1      -0.506   8.942  22.021  0.00  0.00    +0.000 C 
ATOM      4  N   UNL     1       0.407   9.079  20.884  0.00  0.00    +0.000 N 
ATOM      5  C   UNL     1       1.203   7.996  20.546  0.00  0.00    +0.000 C 
ATOM      6  O   UNL     1       1.254   6.980  21.241  0.00  0.00    +0.000 OA
ATOM      7  C   UNL     1       0.349  10.384  20.191  0.00  0.00    +0.000 C 
ATOM      8  C   UNL     1       0.339  11.576  21.188  0.00  0.00    +0.000 C 
ENDROOT
BRANCH   1   9
ATOM      9  C   UNL     1      -1.141  12.437  23.004  0.00  0.00    +0.000 C 
BRANCH   9  13
ATOM     10  C   UNL     1      -5.381  13.143  22.366  0.00  0.00    +0.000 A 
ATOM     11  C   UNL     1      -4.491  13.126  21.290  0.00  0.00    +0.000 A 
ATOM     12  C   UNL     1      -3.129  12.890  21.502  0.00  0.00    +0.000 A 
ATOM     13  C   UNL     1      -2.634  12.663  22.789  0.00  0.00    +0.000 A 
ATOM     14  C   UNL     1      -3.536  12.706  23.871  0.00  0.00    +0.000 A 
ATOM     15  C   UNL     1      -4.902  12.943  23.663  0.00  0.00    +0.000 A 
BRANCH  10  17
ATOM     16  N   UNL     1      -7.915  13.517  21.940  0.00  0.00    +0.000 NA
ATOM     17  C   UNL     1      -6.778  13.360  22.130  0.00  0.00    +0.000 C 
ENDBRANCH  10  17
ENDBRANCH   9  13
ENDBRANCH   1   9
BRANCH   5  18
ATOM     18  C   UNL     1       2.117   8.128  19.337  0.00  0.00    +0.000 C 
BRANCH  18  19
ATOM     19  N   UNL     1       2.754   6.853  19.042  0.00  0.00    +0.000 N 
ATOM     20  C   UNL     1       3.486   6.712  17.883  0.00  0.00    +0.000 C 
ATOM     21  O   UNL     1       3.690   7.654  17.108  0.00  0.00    +0.000 OA
ATOM     22  H   UNL     1       2.404   6.029  19.512  0.00  0.00    +0.000 HD
BRANCH  20  23
ATOM     23  C   UNL     1       4.075   5.339  17.632  0.00  0.00    +0.000 C 
BRANCH  23  24
ATOM     24  C   UNL     1       3.254   4.212  18.211  0.00  0.00    +0.000 A 
ATOM     25  C   UNL     1       1.945   3.965  17.768  0.00  0.00    +0.000 A 
ATOM     26  C   UNL     1       1.172   2.968  18.370  0.00  0.00    +0.000 A 
ATOM     27  C   UNL     1       1.708   2.189  19.393  0.00  0.00    +0.000 A 
ATOM     28  C   UNL     1       3.029   2.381  19.791  0.00  0.00    +0.000 A 
ATOM     29  C   UNL     1       3.798   3.384  19.202  0.00  0.00    +0.000 A 
ENDBRANCH  23  24
ENDBRANCH  20  23
ENDBRANCH  18  19
ENDBRANCH   5  18
TORSDOF 7
ENDMDL
MODEL 9
REMARK VINA RESULT:      -7.0      5.159      8.066
REMARK  Name = 
REMARK  7 active torsions:
REMARK  status: ('A' for Active; 'I' for Inactive)
REMARK    1  A    between atoms: C_2  and  C_3
REMARK    2  A    between atoms: C_6  and  C_7
REMARK    3  A    between atoms: C_7  and  N_8
REMARK    4  A    between atoms: C_12  and  C_14
REMARK    5  A    between atoms: C_14  and  N_15
REMARK    6  A    between atoms: C_16  and  C_18
REMARK    7  A    between atoms: C_18  and  C_19
REMARK                            x       y       z     vdW  Elec       q    Type
REMARK                         _______ _______ _______ _____ _____    ______ ____
ROOT
ATOM      1  N   UNL     1       1.706   8.310  18.936  0.00  0.00    +0.000 NA
ATOM      2  C   UNL     1       1.833   8.034  20.374  0.00  0.00    +0.000 C 
ATOM      3  C   UNL     1       1.240   6.642  20.585  0.00  0.00    +0.000 C 
ATOM      4  N   UNL     1       2.015   5.653  19.832  0.00  0.00    +0.000 N 
ATOM      5  C   UNL     1       2.458   4.521  20.497  0.00  0.00    +0.000 C 
ATOM      6  O   UNL     1       2.327   4.384  21.715  0.00  0.00    +0.000 OA
ATOM      7  C   UNL     1       2.214   5.973  18.402  0.00  0.00    +0.000 C 
ATOM      8  C   UNL     1       2.631   7.456  18.187  0.00  0.00    +0.000 C 
ENDROOT
BRANCH   1   9
ATOM      9  C   UNL     1       1.652   9.715  18.591  0.00  0.00    +0.000 C 
BRANCH   9  13
ATOM     10  C   UNL     1      -2.467  11.060  18.260  0.00  0.00    +0.000 A 
ATOM     11  C   UNL     1      -1.971  10.065  17.415  0.00  0.00    +0.000 A 
ATOM     12  C   UNL     1      -0.647   9.631  17.533  0.00  0.00    +0.000 A 
ATOM     13  C   UNL     1       0.202  10.180  18.498  0.00  0.00    +0.000 A 
ATOM     14  C   UNL     1      -0.300  11.200  19.330  0.00  0.00    +0.000 A 
ATOM     15  C   UNL     1      -1.626  11.638  19.215  0.00  0.00    +0.000 A 
BRANCH  10  17
ATOM     16  N   UNL     1      -4.947  11.803  18.068  0.00  0.00    +0.000 NA
ATOM     17  C   UNL     1      -3.833  11.475  18.145  0.00  0.00    +0.000 C 
ENDBRANCH  10  17
ENDBRANCH   9  13
ENDBRANCH   1   9
BRANCH   5  18
ATOM     18  C   UNL     1       3.224   3.476  19.700  0.00  0.00    +0.000 C 
BRANCH  18  19
ATOM     19  N   UNL     1       4.009   4.112  18.652  0.00  0.00    +0.000 N 
ATOM     20  C   UNL     1       4.332   3.399  17.518  0.00  0.00    +0.000 C 
ATOM     21  O   UNL     1       3.918   2.252  17.315  0.00  0.00    +0.000 OA
ATOM     22  H   UNL     1       4.553   4.928  18.898  0.00  0.00    +0.000 HD
BRANCH  20  23
ATOM     23  C   UNL     1       5.190   4.122  16.501  0.00  0.00    +0.000 C 
BRANCH  23  24
ATOM     24  C   UNL     1       6.148   5.116  17.113  0.00  0.00    +0.000 A 
ATOM     25  C   UNL     1       7.126   4.711  18.035  0.00  0.00    +0.000 A 
ATOM     26  C   UNL     1       7.952   5.655  18.650  0.00  0.00    +0.000 A 
ATOM     27  C   UNL     1       7.833   7.005  18.327  0.00  0.00    +0.000 A 
ATOM     28  C   UNL     1       6.913   7.408  17.362  0.00  0.00    +0.000 A 
ATOM     29  C   UNL     1       6.078   6.469  16.756  0.00  0.00    +0.000 A 
ENDBRANCH  23  24
ENDBRANCH  20  23
ENDBRANCH  18  19
ENDBRANCH   5  18
TORSDOF 7
ENDMDL
