MODEL 1
REMARK VINA RESULT:      -7.0      0.000      0.000
REMARK  Name = 
REMARK  6 active torsions:
REMARK  status: ('A' for Active; 'I' for Inactive)
REMARK    1  A    between atoms: C_1  and  N_2
REMARK    2  A    between atoms: N_2  and  C_3
REMARK    3  A    between atoms: N_2  and  C_10
REMARK    4  A    between atoms: C_3  and  C_4
REMARK    5  A    between atoms: C_10  and  C_11
REMARK    6  A    between atoms: C_16  and  C_17
REMARK                            x       y       z     vdW  Elec       q    Type
REMARK                         _______ _______ _______ _____ _____    ______ ____
ROOT
ATOM      1  C   UNL     1       3.847   5.493  19.237  0.00  0.00    +0.000 C 
ENDROOT
BRANCH   1   2
ATOM      2  C   UNL     1       2.935   4.409  19.784  0.00  0.00    +0.000 A 
ATOM      3  N   UNL     1       2.524   4.609  21.070  0.00  0.00    +0.000 NA
ATOM      4  C   UNL     1       1.782   3.651  21.664  0.00  0.00    +0.000 A 
ATOM      5  C   UNL     1       1.427   2.473  21.042  0.00  0.00    +0.000 A 
ATOM      6  C   UNL     1       1.841   2.280  19.729  0.00  0.00    +0.000 A 
ATOM      7  C   UNL     1       2.599   3.260  19.062  0.00  0.00    +0.000 A 
BRANCH   7   8
ATOM      8  C   UNL     1       3.034   2.988  17.648  0.00  0.00    +0.000 C 
ATOM      9  F   UNL     1       2.580   3.841  16.695  0.00  0.00    +0.000 F 
ATOM     10  F   UNL     1       4.393   2.958  17.523  0.00  0.00    +0.000 F 
ATOM     11  F   UNL     1       2.612   1.755  17.231  0.00  0.00    +0.000 F 
ENDBRANCH   7   8
ENDBRANCH   1   2
BRANCH   1  13
ATOM     12  C   UNL     1       2.364   7.356  18.991  0.00  0.00    +0.000 C 
ATOM     13  N   UNL     1       3.196   6.394  18.259  0.00  0.00    +0.000 NA
BRANCH  13  14
ATOM     14  C   UNL     1       4.194   7.074  17.413  0.00  0.00    +0.000 C 
BRANCH  14  15
ATOM     15  C   UNL     1       5.333   6.171  16.995  0.00  0.00    +0.000 A 
ATOM     16  C   UNL     1       6.421   5.961  17.844  0.00  0.00    +0.000 A 
ATOM     17  C   UNL     1       7.449   5.137  17.413  0.00  0.00    +0.000 A 
ATOM     18  N   UNL     1       7.460   4.511  16.213  0.00  0.00    +0.000 NA
ATOM     19  C   UNL     1       6.400   4.728  15.411  0.00  0.00    +0.000 A 
ATOM     20  C   UNL     1       5.326   5.532  15.749  0.00  0.00    +0.000 A 
ENDBRANCH  14  15
ENDBRANCH  13  14
ENDBRANCH   1  13
TORSDOF 5
ENDMDL
MODEL 2
REMARK VINA RESULT:      -7.0      0.148      1.349
REMARK  Name = 
REMARK  6 active torsions:
REMARK  status: ('A' for Active; 'I' for Inactive)
REMARK    1  A    between atoms: C_1  and  N_2
REMARK    2  A    between atoms: N_2  and  C_3
REMARK    3  A    between atoms: N_2  and  C_10
REMARK    4  A    between atoms: C_3  and  C_4
REMARK    5  A    between atoms: C_10  and  C_11
REMARK    6  A    between atoms: C_16  and  C_17
REMARK                            x       y       z     vdW  Elec       q    Type
REMARK                         _______ _______ _______ _____ _____    ______ ____
ROOT
ATOM      1  C   UNL     1       3.908   5.457  19.177  0.00  0.00    +0.000 C 
ENDROOT
BRANCH   1   2
ATOM      2  C   UNL     1       2.968   4.405  19.739  0.00  0.00    +0.000 A 
ATOM      3  N   UNL     1       2.541   4.648  21.012  0.00  0.00    +0.000 NA
ATOM      4  C   UNL     1       1.772   3.721  21.620  0.00  0.00    +0.000 A 
ATOM      5  C   UNL     1       1.405   2.533  21.025  0.00  0.00    +0.000 A 
ATOM      6  C   UNL     1       1.836   2.295  19.725  0.00  0.00    +0.000 A 
ATOM      7  C   UNL     1       2.622   3.243  19.043  0.00  0.00    +0.000 A 
BRANCH   7   8
ATOM      8  C   UNL     1       3.074   2.923  17.645  0.00  0.00    +0.000 C 
ATOM      9  F   UNL     1       4.412   2.947  17.416  0.00  0.00    +0.000 F 
ATOM     10  F   UNL     1       2.634   1.701  17.228  0.00  0.00    +0.000 F 
ATOM     11  F   UNL     1       2.558   3.814  16.744  0.00  0.00    +0.000 F 
ENDBRANCH   7   8
ENDBRANCH   1   2
BRANCH   1  13
ATOM     12  C   UNL     1       2.433   7.311  18.837  0.00  0.00    +0.000 C 
ATOM     13  N   UNL     1       3.293   6.335  18.157  0.00  0.00    +0.000 NA
BRANCH  13  14
ATOM     14  C   UNL     1       4.320   6.999  17.334  0.00  0.00    +0.000 C 
BRANCH  14  15
ATOM     15  C   UNL     1       5.487   6.096  16.997  0.00  0.00    +0.000 A 
ATOM     16  C   UNL     1       5.560   5.466  15.754  0.00  0.00    +0.000 A 
ATOM     17  C   UNL     1       6.640   4.636  15.494  0.00  0.00    +0.000 A 
ATOM     18  N   UNL     1       7.640   4.403  16.376  0.00  0.00    +0.000 NA
ATOM     19  C   UNL     1       7.548   5.022  17.569  0.00  0.00    +0.000 A 
ATOM     20  C   UNL     1       6.512   5.868  17.923  0.00  0.00    +0.000 A 
ENDBRANCH  14  15
ENDBRANCH  13  14
ENDBRANCH   1  13
TORSDOF 5
ENDMDL
MODEL 3
REMARK VINA RESULT:      -7.0      1.009      1.564
REMARK  Name = 
REMARK  6 active torsions:
REMARK  status: ('A' for Active; 'I' for Inactive)
REMARK    1  A    between atoms: C_1  and  N_2
REMARK    2  A    between atoms: N_2  and  C_3
REMARK    3  A    between atoms: N_2  and  C_10
REMARK    4  A    between atoms: C_3  and  C_4
REMARK    5  A    between atoms: C_10  and  C_11
REMARK    6  A    between atoms: C_16  and  C_17
REMARK                            x       y       z     vdW  Elec       q    Type
REMARK                         _______ _______ _______ _____ _____    ______ ____
ROOT
ATOM      1  C   UNL     1       2.130   4.990  17.881  0.00  0.00    +0.000 C 
ENDROOT
BRANCH   1   2
ATOM      2  C   UNL     1       2.252   4.172  19.155  0.00  0.00    +0.000 A 
ATOM      3  N   UNL     1       1.835   4.815  20.284  0.00  0.00    +0.000 NA
ATOM      4  C   UNL     1       1.989   4.194  21.472  0.00  0.00    +0.000 A 
ATOM      5  C   UNL     1       2.559   2.945  21.605  0.00  0.00    +0.000 A 
ATOM      6  C   UNL     1       2.973   2.292  20.450  0.00  0.00    +0.000 A 
ATOM      7  C   UNL     1       2.814   2.893  19.187  0.00  0.00    +0.000 A 
BRANCH   7   8
ATOM      8  C   UNL     1       3.298   2.146  17.975  0.00  0.00    +0.000 C 
ATOM      9  F   UNL     1       4.234   2.765  17.211  0.00  0.00    +0.000 F 
ATOM     10  F   UNL     1       3.809   0.922  18.293  0.00  0.00    +0.000 F 
ATOM     11  F   UNL     1       2.270   1.888  17.111  0.00  0.00    +0.000 F 
ENDBRANCH   7   8
ENDBRANCH   1   2
BRANCH   1  13
ATOM     12  C   UNL     1       2.414   7.346  18.195  0.00  0.00    +0.000 C 
ATOM     13  N   UNL     1       3.093   6.110  17.788  0.00  0.00    +0.000 NA
BRANCH  13  14
ATOM     14  C   UNL     1       4.292   5.855  18.608  0.00  0.00    +0.000 C 
BRANCH  14  15
ATOM     15  C   UNL     1       5.498   5.455  17.788  0.00  0.00    +0.000 A 
ATOM     16  C   UNL     1       5.512   5.649  16.406  0.00  0.00    +0.000 A 
ATOM     17  C   UNL     1       6.634   5.253  15.693  0.00  0.00    +0.000 A 
ATOM     18  N   UNL     1       7.728   4.693  16.260  0.00  0.00    +0.000 NA
ATOM     19  C   UNL     1       7.692   4.517  17.594  0.00  0.00    +0.000 A 
ATOM     20  C   UNL     1       6.622   4.878  18.393  0.00  0.00    +0.000 A 
ENDBRANCH  14  15
ENDBRANCH  13  14
ENDBRANCH   1  13
TORSDOF 5
ENDMDL
MODEL 4
REMARK VINA RESULT:      -7.0      2.273      5.305
REMARK  Name = 
REMARK  6 active torsions:
REMARK  status: ('A' for Active; 'I' for Inactive)
REMARK    1  A    between atoms: C_1  and  N_2
REMARK    2  A    between atoms: N_2  and  C_3
REMARK    3  A    between atoms: N_2  and  C_10
REMARK    4  A    between atoms: C_3  and  C_4
REMARK    5  A    between atoms: C_10  and  C_11
REMARK    6  A    between atoms: C_16  and  C_17
REMARK                            x       y       z     vdW  Elec       q    Type
REMARK                         _______ _______ _______ _____ _____    ______ ____
ROOT
ATOM      1  C   UNL     1       4.271   4.154  17.992  0.00  0.00    +0.000 C 
ENDROOT
BRANCH   1   2
ATOM      2  C   UNL     1       5.590   4.904  18.069  0.00  0.00    +0.000 A 
ATOM      3  N   UNL     1       6.149   4.938  19.313  0.00  0.00    +0.000 NA
ATOM      4  C   UNL     1       7.278   5.657  19.491  0.00  0.00    +0.000 A 
ATOM      5  C   UNL     1       7.888   6.370  18.481  0.00  0.00    +0.000 A 
ATOM      6  C   UNL     1       7.318   6.323  17.214  0.00  0.00    +0.000 A 
ATOM      7  C   UNL     1       6.153   5.569  16.977  0.00  0.00    +0.000 A 
BRANCH   7   8
ATOM      8  C   UNL     1       5.571   5.571  15.590  0.00  0.00    +0.000 C 
ATOM      9  F   UNL     1       4.751   4.537  15.271  0.00  0.00    +0.000 F 
ATOM     10  F   UNL     1       4.871   6.712  15.326  0.00  0.00    +0.000 F 
ATOM     11  F   UNL     1       6.556   5.531  14.642  0.00  0.00    +0.000 F 
ENDBRANCH   7   8
ENDBRANCH   1   2
BRANCH   1  13
ATOM     12  C   UNL     1       1.881   4.193  17.868  0.00  0.00    +0.000 C 
ATOM     13  N   UNL     1       3.076   5.026  18.048  0.00  0.00    +0.000 NA
BRANCH  13  14
ATOM     14  C   UNL     1       3.025   5.782  19.313  0.00  0.00    +0.000 C 
BRANCH  14  15
ATOM     15  C   UNL     1       2.423   7.161  19.156  0.00  0.00    +0.000 A 
ATOM     16  C   UNL     1       2.541   7.853  17.951  0.00  0.00    +0.000 A 
ATOM     17  C   UNL     1       1.987   9.121  17.858  0.00  0.00    +0.000 A 
ATOM     18  N   UNL     1       1.325   9.730  18.870  0.00  0.00    +0.000 NA
ATOM     19  C   UNL     1       1.224   9.042  20.023  0.00  0.00    +0.000 A 
ATOM     20  C   UNL     1       1.742   7.774  20.216  0.00  0.00    +0.000 A 
ENDBRANCH  14  15
ENDBRANCH  13  14
ENDBRANCH   1  13
TORSDOF 5
ENDMDL
MODEL 5
REMARK VINA RESULT:      -7.0      1.008      1.218
REMARK  Name = 
REMARK  6 active torsions:
REMARK  status: ('A' for Active; 'I' for Inactive)
REMARK    1  A    between atoms: C_1  and  N_2
REMARK    2  A    between atoms: N_2  and  C_3
REMARK    3  A    between atoms: N_2  and  C_10
REMARK    4  A    between atoms: C_3  and  C_4
REMARK    5  A    between atoms: C_10  and  C_11
REMARK    6  A    between atoms: C_16  and  C_17
REMARK                            x       y       z     vdW  Elec       q    Type
REMARK                         _______ _______ _______ _____ _____    ______ ____
ROOT
ATOM      1  C   UNL     1       2.165   4.985  17.857  0.00  0.00    +0.000 C 
ENDROOT
BRANCH   1   2
ATOM      2  C   UNL     1       2.258   4.179  19.141  0.00  0.00    +0.000 A 
ATOM      3  N   UNL     1       1.828   4.838  20.256  0.00  0.00    +0.000 NA
ATOM      4  C   UNL     1       1.956   4.227  21.452  0.00  0.00    +0.000 A 
ATOM      5  C   UNL     1       2.511   2.975  21.608  0.00  0.00    +0.000 A 
ATOM      6  C   UNL     1       2.938   2.306  20.467  0.00  0.00    +0.000 A 
ATOM      7  C   UNL     1       2.806   2.894  19.196  0.00  0.00    +0.000 A 
BRANCH   7   8
ATOM      8  C   UNL     1       3.303   2.130  18.000  0.00  0.00    +0.000 C 
ATOM      9  F   UNL     1       4.260   2.731  17.247  0.00  0.00    +0.000 F 
ATOM     10  F   UNL     1       3.793   0.903  18.339  0.00  0.00    +0.000 F 
ATOM     11  F   UNL     1       2.287   1.877  17.119  0.00  0.00    +0.000 F 
ENDBRANCH   7   8
ENDBRANCH   1   2
BRANCH   1  13
ATOM     12  C   UNL     1       2.427   7.335  18.231  0.00  0.00    +0.000 C 
ATOM     13  N   UNL     1       3.115   6.117  17.784  0.00  0.00    +0.000 NA
BRANCH  13  14
ATOM     14  C   UNL     1       4.324   5.853  18.587  0.00  0.00    +0.000 C 
BRANCH  14  15
ATOM     15  C   UNL     1       5.513   5.436  17.749  0.00  0.00    +0.000 A 
ATOM     16  C   UNL     1       6.634   4.859  18.348  0.00  0.00    +0.000 A 
ATOM     17  C   UNL     1       7.707   4.506  17.543  0.00  0.00    +0.000 A 
ATOM     18  N   UNL     1       7.731   4.681  16.201  0.00  0.00    +0.000 NA
ATOM     19  C   UNL     1       6.638   5.239  15.646  0.00  0.00    +0.000 A 
ATOM     20  C   UNL     1       5.519   5.624  16.361  0.00  0.00    +0.000 A 
ENDBRANCH  14  15
ENDBRANCH  13  14
ENDBRANCH   1  13
TORSDOF 5
ENDMDL
MODEL 6
REMARK VINA RESULT:      -6.9      1.797      4.905
REMARK  Name = 
REMARK  6 active torsions:
REMARK  status: ('A' for Active; 'I' for Inactive)
REMARK    1  A    between atoms: C_1  and  N_2
REMARK    2  A    between atoms: N_2  and  C_3
REMARK    3  A    between atoms: N_2  and  C_10
REMARK    4  A    between atoms: C_3  and  C_4
REMARK    5  A    between atoms: C_10  and  C_11
REMARK    6  A    between atoms: C_16  and  C_17
REMARK                            x       y       z     vdW  Elec       q    Type
REMARK                         _______ _______ _______ _____ _____    ______ ____
ROOT
ATOM      1  C   UNL     1       4.130   6.402  17.358  0.00  0.00    +0.000 C 
ENDROOT
BRANCH   1   2
ATOM      2  C   UNL     1       5.466   5.747  17.663  0.00  0.00    +0.000 A 
ATOM      3  N   UNL     1       5.998   6.080  18.874  0.00  0.00    +0.000 NA
ATOM      4  C   UNL     1       7.223   5.612  19.189  0.00  0.00    +0.000 A 
ATOM      5  C   UNL     1       7.973   4.822  18.343  0.00  0.00    +0.000 A 
ATOM      6  C   UNL     1       7.421   4.478  17.115  0.00  0.00    +0.000 A 
ATOM      7  C   UNL     1       6.137   4.927  16.751  0.00  0.00    +0.000 A 
BRANCH   7   8
ATOM      8  C   UNL     1       5.600   4.538  15.402  0.00  0.00    +0.000 C 
ATOM      9  F   UNL     1       5.346   5.549  14.532  0.00  0.00    +0.000 F 
ATOM     10  F   UNL     1       6.424   3.668  14.750  0.00  0.00    +0.000 F 
ATOM     11  F   UNL     1       4.407   3.879  15.516  0.00  0.00    +0.000 F 
ENDBRANCH   7   8
ENDBRANCH   1   2
BRANCH   1  13
ATOM     12  C   UNL     1       2.376   7.593  18.468  0.00  0.00    +0.000 C 
ATOM     13  N   UNL     1       3.165   6.355  18.478  0.00  0.00    +0.000 NA
BRANCH  13  14
ATOM     14  C   UNL     1       2.302   5.163  18.391  0.00  0.00    +0.000 C 
BRANCH  14  15
ATOM     15  C   UNL     1       2.481   4.213  19.555  0.00  0.00    +0.000 A 
ATOM     16  C   UNL     1       1.567   4.203  20.609  0.00  0.00    +0.000 A 
ATOM     17  C   UNL     1       1.779   3.326  21.662  0.00  0.00    +0.000 A 
ATOM     18  N   UNL     1       2.823   2.467  21.728  0.00  0.00    +0.000 NA
ATOM     19  C   UNL     1       3.692   2.495  20.699  0.00  0.00    +0.000 A 
ATOM     20  C   UNL     1       3.568   3.331  19.604  0.00  0.00    +0.000 A 
ENDBRANCH  14  15
ENDBRANCH  13  14
ENDBRANCH   1  13
TORSDOF 5
ENDMDL
MODEL 7
REMARK VINA RESULT:      -6.9      2.121      2.648
REMARK  Name = 
REMARK  6 active torsions:
REMARK  status: ('A' for Active; 'I' for Inactive)
REMARK    1  A    between atoms: C_1  and  N_2
REMARK    2  A    between atoms: N_2  and  C_3
REMARK    3  A    between atoms: N_2  and  C_10
REMARK    4  A    between atoms: C_3  and  C_4
REMARK    5  A    between atoms: C_10  and  C_11
REMARK    6  A    between atoms: C_16  and  C_17
REMARK                            x       y       z     vdW  Elec       q    Type
REMARK                         _______ _______ _______ _____ _____    ______ ____
ROOT
ATOM      1  C   UNL     1       3.632   5.598  19.185  0.00  0.00    +0.000 C 
ENDROOT
BRANCH   1   2
ATOM      2  C   UNL     1       3.291   4.131  18.990  0.00  0.00    +0.000 A 
ATOM      3  N   UNL     1       3.928   3.535  17.941  0.00  0.00    +0.000 NA
ATOM      4  C   UNL     1       3.618   2.256  17.643  0.00  0.00    +0.000 A 
ATOM      5  C   UNL     1       2.678   1.523  18.336  0.00  0.00    +0.000 A 
ATOM      6  C   UNL     1       2.039   2.134  19.409  0.00  0.00    +0.000 A 
ATOM      7  C   UNL     1       2.346   3.459  19.770  0.00  0.00    +0.000 A 
BRANCH   7   8
ATOM      8  C   UNL     1       1.608   4.073  20.928  0.00  0.00    +0.000 C 
ATOM      9  F   UNL     1       0.764   5.096  20.641  0.00  0.00    +0.000 F 
ATOM     10  F   UNL     1       0.876   3.152  21.620  0.00  0.00    +0.000 F 
ATOM     11  F   UNL     1       2.478   4.596  21.845  0.00  0.00    +0.000 F 
ENDBRANCH   7   8
ENDBRANCH   1   2
BRANCH   1  13
ATOM     12  C   UNL     1       2.288   7.401  18.368  0.00  0.00    +0.000 C 
ATOM     13  N   UNL     1       3.344   6.447  18.008  0.00  0.00    +0.000 NA
BRANCH  13  14
ATOM     14  C   UNL     1       4.559   7.137  17.536  0.00  0.00    +0.000 C 
BRANCH  14  15
ATOM     15  C   UNL     1       5.662   6.185  17.129  0.00  0.00    +0.000 A 
ATOM     16  C   UNL     1       6.634   5.791  18.050  0.00  0.00    +0.000 A 
ATOM     17  C   UNL     1       7.635   4.929  17.629  0.00  0.00    +0.000 A 
ATOM     18  N   UNL     1       7.724   4.435  16.372  0.00  0.00    +0.000 NA
ATOM     19  C   UNL     1       6.775   4.828  15.501  0.00  0.00    +0.000 A 
ATOM     20  C   UNL     1       5.737   5.684  15.823  0.00  0.00    +0.000 A 
ENDBRANCH  14  15
ENDBRANCH  13  14
ENDBRANCH   1  13
TORSDOF 5
ENDMDL
MODEL 8
REMARK VINA RESULT:      -6.9      2.099      3.362
REMARK  Name = 
REMARK  6 active torsions:
REMARK  status: ('A' for Active; 'I' for Inactive)
REMARK    1  A    between atoms: C_1  and  N_2
REMARK    2  A    between atoms: N_2  and  C_3
REMARK    3  A    between atoms: N_2  and  C_10
REMARK    4  A    between atoms: C_3  and  C_4
REMARK    5  A    between atoms: C_10  and  C_11
REMARK    6  A    between atoms: C_16  and  C_17
REMARK                            x       y       z     vdW  Elec       q    Type
REMARK                         _______ _______ _______ _____ _____    ______ ____
ROOT
ATOM      1  C   UNL     1       2.570   3.997  17.499  0.00  0.00    +0.000 C 
ENDROOT
BRANCH   1   2
ATOM      2  C   UNL     1       2.234   5.005  18.584  0.00  0.00    +0.000 A 
ATOM      3  N   UNL     1       2.533   6.299  18.268  0.00  0.00    +0.000 NA
ATOM      4  C   UNL     1       2.347   7.249  19.208  0.00  0.00    +0.000 A 
ATOM      5  C   UNL     1       1.882   6.978  20.478  0.00  0.00    +0.000 A 
ATOM      6  C   UNL     1       1.571   5.659  20.789  0.00  0.00    +0.000 A 
ATOM      7  C   UNL     1       1.729   4.638  19.834  0.00  0.00    +0.000 A 
BRANCH   7   8
ATOM      8  C   UNL     1       1.394   3.227  20.235  0.00  0.00    +0.000 C 
ATOM      9  F   UNL     1       0.539   2.550  19.426  0.00  0.00    +0.000 F 
ATOM     10  F   UNL     1       2.507   2.448  20.357  0.00  0.00    +0.000 F 
ATOM     11  F   UNL     1       0.798   3.192  21.465  0.00  0.00    +0.000 F 
ENDBRANCH   7   8
ENDBRANCH   1   2
BRANCH   1  13
ATOM     12  C   UNL     1       3.793   1.940  17.545  0.00  0.00    +0.000 C 
ATOM     13  N   UNL     1       3.918   3.400  17.625  0.00  0.00    +0.000 NA
BRANCH  13  14
ATOM     14  C   UNL     1       4.833   3.923  16.593  0.00  0.00    +0.000 C 
BRANCH  14  15
ATOM     15  C   UNL     1       5.801   4.957  17.126  0.00  0.00    +0.000 A 
ATOM     16  C   UNL     1       5.761   6.271  16.660  0.00  0.00    +0.000 A 
ATOM     17  C   UNL     1       6.677   7.182  17.166  0.00  0.00    +0.000 A 
ATOM     18  N   UNL     1       7.609   6.873  18.097  0.00  0.00    +0.000 NA
ATOM     19  C   UNL     1       7.628   5.599  18.532  0.00  0.00    +0.000 A 
ATOM     20  C   UNL     1       6.759   4.618  18.091  0.00  0.00    +0.000 A 
ENDBRANCH  14  15
ENDBRANCH  13  14
ENDBRANCH   1  13
TORSDOF 5
ENDMDL
MODEL 9
REMARK VINA RESULT:      -6.8      2.148      3.297
REMARK  Name = 
REMARK  6 active torsions:
REMARK  status: ('A' for Active; 'I' for Inactive)
REMARK    1  A    between atoms: C_1  and  N_2
REMARK    2  A    between atoms: N_2  and  C_3
REMARK    3  A    between atoms: N_2  and  C_10
REMARK    4  A    between atoms: C_3  and  C_4
REMARK    5  A    between atoms: C_10  and  C_11
REMARK    6  A    between atoms: C_16  and  C_17
REMARK                            x       y       z     vdW  Elec       q    Type
REMARK                         _______ _______ _______ _____ _____    ______ ____
ROOT
ATOM      1  C   UNL     1       2.616   3.988  17.521  0.00  0.00    +0.000 C 
ENDROOT
BRANCH   1   2
ATOM      2  C   UNL     1       2.273   5.016  18.585  0.00  0.00    +0.000 A 
ATOM      3  N   UNL     1       2.568   6.304  18.246  0.00  0.00    +0.000 NA
ATOM      4  C   UNL     1       2.376   7.272  19.166  0.00  0.00    +0.000 A 
ATOM      5  C   UNL     1       1.907   7.024  20.439  0.00  0.00    +0.000 A 
ATOM      6  C   UNL     1       1.600   5.711  20.775  0.00  0.00    +0.000 A 
ATOM      7  C   UNL     1       1.764   4.671  19.841  0.00  0.00    +0.000 A 
BRANCH   7   8
ATOM      8  C   UNL     1       1.433   3.268  20.268  0.00  0.00    +0.000 C 
ATOM      9  F   UNL     1       0.598   2.566  19.460  0.00  0.00    +0.000 F 
ATOM     10  F   UNL     1       2.549   2.501  20.429  0.00  0.00    +0.000 F 
ATOM     11  F   UNL     1       0.814   3.257  21.488  0.00  0.00    +0.000 F 
ENDBRANCH   7   8
ENDBRANCH   1   2
BRANCH   1  13
ATOM     12  C   UNL     1       3.768   1.892  17.615  0.00  0.00    +0.000 C 
ATOM     13  N   UNL     1       3.937   3.348  17.704  0.00  0.00    +0.000 NA
BRANCH  13  14
ATOM     14  C   UNL     1       4.912   3.841  16.713  0.00  0.00    +0.000 C 
BRANCH  14  15
ATOM     15  C   UNL     1       5.887   4.844  17.288  0.00  0.00    +0.000 A 
ATOM     16  C   UNL     1       6.395   4.681  18.578  0.00  0.00    +0.000 A 
ATOM     17  C   UNL     1       7.275   5.633  19.069  0.00  0.00    +0.000 A 
ATOM     18  N   UNL     1       7.682   6.716  18.367  0.00  0.00    +0.000 NA
ATOM     19  C   UNL     1       7.180   6.852  17.125  0.00  0.00    +0.000 A 
ATOM     20  C   UNL     1       6.297   5.959  16.545  0.00  0.00    +0.000 A 
ENDBRANCH  14  15
ENDBRANCH  13  14
ENDBRANCH   1  13
TORSDOF 5
ENDMDL
