MODEL 1
REMARK VINA RESULT:      -8.0      0.000      0.000
REMARK  Name = 
REMARK  1 active torsions:
REMARK  status: ('A' for Active; 'I' for Inactive)
REMARK    1  A    between atoms: C_2  and  C_10
REMARK                            x       y       z     vdW  Elec       q    Type
REMARK                         _______ _______ _______ _____ _____    ______ ____
ROOT
ATOM      1  C   UNL     1       1.902   5.442  20.768  0.00  0.00    +0.000 C 
ATOM      2  C   UNL     1       0.722   4.578  20.333  0.00  0.00    +0.000 C 
ATOM      3  O   UNL     1       1.023   3.201  20.583  0.00  0.00    +0.000 OA
ATOM      4  C   UNL     1       2.093   2.732  19.760  0.00  0.00    +0.000 C 
ATOM      5  C   UNL     1       3.388   3.488  20.069  0.00  0.00    +0.000 C 
ATOM      6  C   UNL     1       4.442   3.269  18.974  0.00  0.00    +0.000 C 
ATOM      7  N   UNL     1       4.143   4.322  18.022  0.00  0.00    +0.000 N 
ATOM      8  C   UNL     1       4.915   4.546  16.918  0.00  0.00    +0.000 A 
ATOM      9  N   UNL     1       5.762   3.590  16.517  0.00  0.00    +0.000 NA
ATOM     10  C   UNL     1       6.488   3.819  15.394  0.00  0.00    +0.000 A 
ATOM     11  C   UNL     1       6.401   4.981  14.682  0.00  0.00    +0.000 A 
ATOM     12  F   UNL     1       7.132   5.191  13.579  0.00  0.00    +0.000 F 
ATOM     13  C   UNL     1       5.530   5.912  15.165  0.00  0.00    +0.000 A 
ATOM     14  N   UNL     1       4.775   5.713  16.267  0.00  0.00    +0.000 NA
ATOM     15  C   UNL     1       3.259   5.350  18.551  0.00  0.00    +0.000 C 
ATOM     16  C   UNL     1       3.189   5.015  20.053  0.00  0.00    +0.000 C 
ENDROOT
BRANCH   1  18
ATOM     17  O   UNL     1       2.334   7.670  19.957  0.00  0.00    +0.000 OA
ATOM     18  C   UNL     1       1.596   6.922  20.589  0.00  0.00    +0.000 C 
ATOM     19  N   UNL     1       0.466   7.327  21.270  0.00  0.00    +0.000 N 
ATOM     20  C   UNL     1       0.119   8.673  21.415  0.00  0.00    +0.000 A 
ATOM     21  C   UNL     1       0.161   9.603  20.377  0.00  0.00    +0.000 A 
ATOM     22  N   UNL     1      -0.137  10.916  20.558  0.00  0.00    +0.000 NA
ATOM     23  C   UNL     1      -0.436  11.265  21.829  0.00  0.00    +0.000 A 
ATOM     24  C   UNL     1      -0.488  10.339  22.857  0.00  0.00    +0.000 A 
ATOM     25  N   UNL     1      -0.258   9.018  22.664  0.00  0.00    +0.000 NA
ATOM     26  H   UNL     1       0.149   6.763  22.047  0.00  0.00    +0.000 HD
ENDBRANCH   1  18
TORSDOF 1
ENDMDL
MODEL 2
REMARK VINA RESULT:      -7.5      2.960      7.803
REMARK  Name = 
REMARK  1 active torsions:
REMARK  status: ('A' for Active; 'I' for Inactive)
REMARK    1  A    between atoms: C_2  and  C_10
REMARK                            x       y       z     vdW  Elec       q    Type
REMARK                         _______ _______ _______ _____ _____    ______ ____
ROOT
ATOM      1  C   UNL     1       3.868   3.513  18.525  0.00  0.00    +0.000 C 
ATOM      2  C   UNL     1       4.618   3.038  19.766  0.00  0.00    +0.000 C 
ATOM      3  O   UNL     1       3.736   2.269  20.589  0.00  0.00    +0.000 OA
ATOM      4  C   UNL     1       2.681   3.066  21.131  0.00  0.00    +0.000 C 
ATOM      5  C   UNL     1       1.798   3.630  20.014  0.00  0.00    +0.000 C 
ATOM      6  C   UNL     1       0.897   4.763  20.526  0.00  0.00    +0.000 C 
ATOM      7  N   UNL     1       1.730   5.939  20.358  0.00  0.00    +0.000 N 
ATOM      8  C   UNL     1       1.270   7.199  20.616  0.00  0.00    +0.000 A 
ATOM      9  N   UNL     1       0.158   7.345  21.346  0.00  0.00    +0.000 NA
ATOM     10  C   UNL     1      -0.256   8.606  21.622  0.00  0.00    +0.000 A 
ATOM     11  C   UNL     1       0.402   9.715  21.173  0.00  0.00    +0.000 A 
ATOM     12  F   UNL     1      -0.026  10.954  21.452  0.00  0.00    +0.000 F 
ATOM     13  C   UNL     1       1.515   9.483  20.421  0.00  0.00    +0.000 A 
ATOM     14  N   UNL     1       1.970   8.243  20.142  0.00  0.00    +0.000 NA
ATOM     15  C   UNL     1       2.890   5.713  19.510  0.00  0.00    +0.000 C 
ATOM     16  C   UNL     1       2.623   4.320  18.911  0.00  0.00    +0.000 C 
ENDROOT
BRANCH   1  18
ATOM     17  O   UNL     1       4.908   5.494  17.629  0.00  0.00    +0.000 OA
ATOM     18  C   UNL     1       4.790   4.274  17.583  0.00  0.00    +0.000 C 
ATOM     19  N   UNL     1       5.395   3.462  16.645  0.00  0.00    +0.000 N 
ATOM     20  C   UNL     1       6.112   3.974  15.560  0.00  0.00    +0.000 A 
ATOM     21  C   UNL     1       7.035   5.014  15.659  0.00  0.00    +0.000 A 
ATOM     22  N   UNL     1       7.683   5.522  14.578  0.00  0.00    +0.000 NA
ATOM     23  C   UNL     1       7.334   4.976  13.393  0.00  0.00    +0.000 A 
ATOM     24  C   UNL     1       6.426   3.936  13.297  0.00  0.00    +0.000 A 
ATOM     25  N   UNL     1       5.831   3.382  14.380  0.00  0.00    +0.000 NA
ATOM     26  H   UNL     1       4.965   2.572  16.436  0.00  0.00    +0.000 HD
ENDBRANCH   1  18
TORSDOF 1
ENDMDL
MODEL 3
REMARK VINA RESULT:      -7.4      1.438      1.955
REMARK  Name = 
REMARK  1 active torsions:
REMARK  status: ('A' for Active; 'I' for Inactive)
REMARK    1  A    between atoms: C_2  and  C_10
REMARK                            x       y       z     vdW  Elec       q    Type
REMARK                         _______ _______ _______ _____ _____    ______ ____
ROOT
ATOM      1  C   UNL     1       1.887   4.832  20.813  0.00  0.00    +0.000 C 
ATOM      2  C   UNL     1       0.823   3.841  20.350  0.00  0.00    +0.000 C 
ATOM      3  O   UNL     1       1.291   2.506  20.566  0.00  0.00    +0.000 OA
ATOM      4  C   UNL     1       2.412   2.193  19.737  0.00  0.00    +0.000 C 
ATOM      5  C   UNL     1       3.604   3.095  20.070  0.00  0.00    +0.000 C 
ATOM      6  C   UNL     1       4.678   3.037  18.976  0.00  0.00    +0.000 C 
ATOM      7  N   UNL     1       4.253   4.069  18.050  0.00  0.00    +0.000 N 
ATOM      8  C   UNL     1       4.993   4.415  16.955  0.00  0.00    +0.000 A 
ATOM      9  N   UNL     1       5.952   3.582  16.534  0.00  0.00    +0.000 NA
ATOM     10  C   UNL     1       6.646   3.928  15.421  0.00  0.00    +0.000 A 
ATOM     11  C   UNL     1       6.418   5.089  14.739  0.00  0.00    +0.000 A 
ATOM     12  F   UNL     1       7.118   5.416  13.644  0.00  0.00    +0.000 F 
ATOM     13  C   UNL     1       5.438   5.892  15.241  0.00  0.00    +0.000 A 
ATOM     14  N   UNL     1       4.712   5.573  16.334  0.00  0.00    +0.000 NA
ATOM     15  C   UNL     1       3.248   4.966  18.601  0.00  0.00    +0.000 C 
ATOM     16  C   UNL     1       3.218   4.586  20.093  0.00  0.00    +0.000 C 
ENDROOT
BRANCH   1  18
ATOM     17  O   UNL     1       0.298   6.626  21.070  0.00  0.00    +0.000 OA
ATOM     18  C   UNL     1       1.401   6.267  20.670  0.00  0.00    +0.000 C 
ATOM     19  N   UNL     1       2.287   7.073  19.985  0.00  0.00    +0.000 N 
ATOM     20  C   UNL     1       1.955   8.363  19.561  0.00  0.00    +0.000 A 
ATOM     21  C   UNL     1       1.294   9.297  20.357  0.00  0.00    +0.000 A 
ATOM     22  N   UNL     1       0.943  10.528  19.901  0.00  0.00    +0.000 NA
ATOM     23  C   UNL     1       1.241  10.765  18.605  0.00  0.00    +0.000 A 
ATOM     24  C   UNL     1       1.908   9.841  17.819  0.00  0.00    +0.000 A 
ATOM     25  N   UNL     1       2.320   8.641  18.291  0.00  0.00    +0.000 NA
ATOM     26  H   UNL     1       2.963   6.631  19.377  0.00  0.00    +0.000 HD
ENDBRANCH   1  18
TORSDOF 1
ENDMDL
MODEL 4
REMARK VINA RESULT:      -7.3      7.292      9.174
REMARK  Name = 
REMARK  1 active torsions:
REMARK  status: ('A' for Active; 'I' for Inactive)
REMARK    1  A    between atoms: C_2  and  C_10
REMARK                            x       y       z     vdW  Elec       q    Type
REMARK                         _______ _______ _______ _____ _____    ______ ____
ROOT
ATOM      1  C   UNL     1      -1.666  12.874  22.466  0.00  0.00    +0.000 C 
ATOM      2  C   UNL     1      -1.693  11.563  23.247  0.00  0.00    +0.000 C 
ATOM      3  O   UNL     1      -0.458  10.867  23.051  0.00  0.00    +0.000 OA
ATOM      4  C   UNL     1      -0.298  10.437  21.697  0.00  0.00    +0.000 C 
ATOM      5  C   UNL     1      -0.236  11.638  20.749  0.00  0.00    +0.000 C 
ATOM      6  C   UNL     1      -0.430  11.211  19.287  0.00  0.00    +0.000 C 
ATOM      7  N   UNL     1      -1.872  11.254  19.127  0.00  0.00    +0.000 N 
ATOM      8  C   UNL     1      -2.477  11.025  17.923  0.00  0.00    +0.000 A 
ATOM      9  N   UNL     1      -1.777  10.429  16.950  0.00  0.00    +0.000 NA
ATOM     10  C   UNL     1      -2.412  10.176  15.779  0.00  0.00    +0.000 A 
ATOM     11  C   UNL     1      -3.714  10.521  15.555  0.00  0.00    +0.000 A 
ATOM     12  F   UNL     1      -4.322  10.267  14.388  0.00  0.00    +0.000 F 
ATOM     13  C   UNL     1      -4.353  11.140  16.588  0.00  0.00    +0.000 A 
ATOM     14  N   UNL     1      -3.761  11.391  17.775  0.00  0.00    +0.000 NA
ATOM     15  C   UNL     1      -2.555  11.964  20.197  0.00  0.00    +0.000 C 
ATOM     16  C   UNL     1      -1.401  12.620  20.977  0.00  0.00    +0.000 C 
ENDROOT
BRANCH   1  18
ATOM     17  O   UNL     1      -2.900  14.874  22.999  0.00  0.00    +0.000 OA
ATOM     18  C   UNL     1      -2.932  13.684  22.705  0.00  0.00    +0.000 C 
ATOM     19  N   UNL     1      -4.081  12.923  22.636  0.00  0.00    +0.000 N 
ATOM     20  C   UNL     1      -5.331  13.414  23.026  0.00  0.00    +0.000 A 
ATOM     21  C   UNL     1      -5.814  14.675  22.677  0.00  0.00    +0.000 A 
ATOM     22  N   UNL     1      -7.013  15.144  23.110  0.00  0.00    +0.000 NA
ATOM     23  C   UNL     1      -7.685  14.317  23.940  0.00  0.00    +0.000 A 
ATOM     24  C   UNL     1      -7.210  13.061  24.277  0.00  0.00    +0.000 A 
ATOM     25  N   UNL     1      -6.047  12.565  23.792  0.00  0.00    +0.000 NA
ATOM     26  H   UNL     1      -4.002  11.925  22.771  0.00  0.00    +0.000 HD
ENDBRANCH   1  18
TORSDOF 1
ENDMDL
MODEL 5
REMARK VINA RESULT:      -7.3      4.341      8.562
REMARK  Name = 
REMARK  1 active torsions:
REMARK  status: ('A' for Active; 'I' for Inactive)
REMARK    1  A    between atoms: C_2  and  C_10
REMARK                            x       y       z     vdW  Elec       q    Type
REMARK                         _______ _______ _______ _____ _____    ______ ____
ROOT
ATOM      1  C   UNL     1       0.776   9.169  19.237  0.00  0.00    +0.000 C 
ATOM      2  C   UNL     1       1.123   9.038  20.717  0.00  0.00    +0.000 C 
ATOM      3  O   UNL     1       0.051   9.567  21.505  0.00  0.00    +0.000 OA
ATOM      4  C   UNL     1      -0.094  10.978  21.327  0.00  0.00    +0.000 C 
ATOM      5  C   UNL     1      -0.461  11.308  19.878  0.00  0.00    +0.000 C 
ATOM      6  C   UNL     1      -0.268  12.801  19.575  0.00  0.00    +0.000 C 
ATOM      7  N   UNL     1       1.121  12.869  19.160  0.00  0.00    +0.000 N 
ATOM      8  C   UNL     1       1.689  14.027  18.708  0.00  0.00    +0.000 A 
ATOM      9  N   UNL     1       1.073  15.189  18.956  0.00  0.00    +0.000 NA
ATOM     10  C   UNL     1       1.677  16.327  18.533  0.00  0.00    +0.000 A 
ATOM     11  C   UNL     1       2.863  16.327  17.856  0.00  0.00    +0.000 A 
ATOM     12  F   UNL     1       3.442  17.462  17.442  0.00  0.00    +0.000 F 
ATOM     13  C   UNL     1       3.418  15.102  17.627  0.00  0.00    +0.000 A 
ATOM     14  N   UNL     1       2.857  13.949  18.050  0.00  0.00    +0.000 NA
ATOM     15  C   UNL     1       1.702  11.570  18.857  0.00  0.00    +0.000 C 
ATOM     16  C   UNL     1       0.484  10.628  18.869  0.00  0.00    +0.000 C 
ENDROOT
BRANCH   1  18
ATOM     17  O   UNL     1       2.164   9.020  17.272  0.00  0.00    +0.000 OA
ATOM     18  C   UNL     1       1.857   8.550  18.362  0.00  0.00    +0.000 C 
ATOM     19  N   UNL     1       2.377   7.385  18.889  0.00  0.00    +0.000 N 
ATOM     20  C   UNL     1       3.224   6.545  18.160  0.00  0.00    +0.000 A 
ATOM     21  C   UNL     1       4.293   6.998  17.389  0.00  0.00    +0.000 A 
ATOM     22  N   UNL     1       5.071   6.162  16.653  0.00  0.00    +0.000 NA
ATOM     23  C   UNL     1       4.707   4.862  16.688  0.00  0.00    +0.000 A 
ATOM     24  C   UNL     1       3.652   4.411  17.464  0.00  0.00    +0.000 A 
ATOM     25  N   UNL     1       2.918   5.234  18.251  0.00  0.00    +0.000 NA
ATOM     26  H   UNL     1       1.824   6.878  19.566  0.00  0.00    +0.000 HD
ENDBRANCH   1  18
TORSDOF 1
ENDMDL
MODEL 6
REMARK VINA RESULT:      -7.2      3.320      8.096
REMARK  Name = 
REMARK  1 active torsions:
REMARK  status: ('A' for Active; 'I' for Inactive)
REMARK    1  A    between atoms: C_2  and  C_10
REMARK                            x       y       z     vdW  Elec       q    Type
REMARK                         _______ _______ _______ _____ _____    ______ ____
ROOT
ATOM      1  C   UNL     1       4.397   4.366  17.439  0.00  0.00    +0.000 C 
ATOM      2  C   UNL     1       5.272   4.195  18.677  0.00  0.00    +0.000 C 
ATOM      3  O   UNL     1       4.489   3.643  19.741  0.00  0.00    +0.000 OA
ATOM      4  C   UNL     1       3.475   4.549  20.181  0.00  0.00    +0.000 C 
ATOM      5  C   UNL     1       2.477   4.836  19.055  0.00  0.00    +0.000 C 
ATOM      6  C   UNL     1       1.606   6.059  19.373  0.00  0.00    +0.000 C 
ATOM      7  N   UNL     1       2.395   7.161  18.853  0.00  0.00    +0.000 N 
ATOM      8  C   UNL     1       1.936   8.447  18.851  0.00  0.00    +0.000 A 
ATOM      9  N   UNL     1       0.895   8.764  19.631  0.00  0.00    +0.000 NA
ATOM     10  C   UNL     1       0.484  10.056  19.644  0.00  0.00    +0.000 A 
ATOM     11  C   UNL     1       1.072  11.026  18.884  0.00  0.00    +0.000 A 
ATOM     12  F   UNL     1       0.647  12.296  18.905  0.00  0.00    +0.000 F 
ATOM     13  C   UNL     1       2.113  10.621  18.102  0.00  0.00    +0.000 A 
ATOM     14  N   UNL     1       2.565   9.349  18.078  0.00  0.00    +0.000 NA
ATOM     15  C   UNL     1       3.472   6.738  17.971  0.00  0.00    +0.000 C 
ATOM     16  C   UNL     1       3.178   5.244  17.746  0.00  0.00    +0.000 C 
ENDROOT
BRANCH   1  18
ATOM     17  O   UNL     1       5.281   6.075  15.988  0.00  0.00    +0.000 OA
ATOM     18  C   UNL     1       5.208   4.881  16.259  0.00  0.00    +0.000 C 
ATOM     19  N   UNL     1       5.766   3.870  15.504  0.00  0.00    +0.000 N 
ATOM     20  C   UNL     1       6.372   4.104  14.266  0.00  0.00    +0.000 A 
ATOM     21  C   UNL     1       7.258   5.152  14.020  0.00  0.00    +0.000 A 
ATOM     22  N   UNL     1       7.795   5.383  12.793  0.00  0.00    +0.000 NA
ATOM     23  C   UNL     1       7.373   4.549  11.817  0.00  0.00    +0.000 A 
ATOM     24  C   UNL     1       6.502   3.503  12.065  0.00  0.00    +0.000 A 
ATOM     25  N   UNL     1       6.019   3.229  13.301  0.00  0.00    +0.000 NA
ATOM     26  H   UNL     1       5.356   2.948  15.562  0.00  0.00    +0.000 HD
ENDBRANCH   1  18
TORSDOF 1
ENDMDL
MODEL 7
REMARK VINA RESULT:      -7.0      7.036      9.001
REMARK  Name = 
REMARK  1 active torsions:
REMARK  status: ('A' for Active; 'I' for Inactive)
REMARK    1  A    between atoms: C_2  and  C_10
REMARK                            x       y       z     vdW  Elec       q    Type
REMARK                         _______ _______ _______ _____ _____    ______ ____
ROOT
ATOM      1  C   UNL     1      -0.768  13.078  22.079  0.00  0.00    +0.000 C 
ATOM      2  C   UNL     1      -1.279  12.047  23.082  0.00  0.00    +0.000 C 
ATOM      3  O   UNL     1      -0.396  10.921  23.097  0.00  0.00    +0.000 OA
ATOM      4  C   UNL     1      -0.417  10.210  21.858  0.00  0.00    +0.000 C 
ATOM      5  C   UNL     1       0.083  11.096  20.713  0.00  0.00    +0.000 C 
ATOM      6  C   UNL     1      -0.266  10.497  19.344  0.00  0.00    +0.000 C 
ATOM      7  N   UNL     1      -1.588  11.036  19.083  0.00  0.00    +0.000 N 
ATOM      8  C   UNL     1      -2.243  10.819  17.904  0.00  0.00    +0.000 A 
ATOM      9  N   UNL     1      -1.823   9.831  17.104  0.00  0.00    +0.000 NA
ATOM     10  C   UNL     1      -2.515   9.609  15.958  0.00  0.00    +0.000 A 
ATOM     11  C   UNL     1      -3.594  10.359  15.590  0.00  0.00    +0.000 A 
ATOM     12  F   UNL     1      -4.261  10.127  14.451  0.00  0.00    +0.000 F 
ATOM     13  C   UNL     1      -3.948  11.357  16.449  0.00  0.00    +0.000 A 
ATOM     14  N   UNL     1      -3.298  11.596  17.607  0.00  0.00    +0.000 NA
ATOM     15  C   UNL     1      -1.949  12.141  19.959  0.00  0.00    +0.000 C 
ATOM     16  C   UNL     1      -0.627  12.462  20.682  0.00  0.00    +0.000 C 
ENDROOT
BRANCH   1  18
ATOM     17  O   UNL     1      -1.374  15.309  21.396  0.00  0.00    +0.000 OA
ATOM     18  C   UNL     1      -1.638  14.328  22.083  0.00  0.00    +0.000 C 
ATOM     19  N   UNL     1      -2.680  14.258  22.985  0.00  0.00    +0.000 N 
ATOM     20  C   UNL     1      -3.472  15.365  23.303  0.00  0.00    +0.000 A 
ATOM     21  C   UNL     1      -3.987  16.250  22.357  0.00  0.00    +0.000 A 
ATOM     22  N   UNL     1      -4.715  17.344  22.700  0.00  0.00    +0.000 NA
ATOM     23  C   UNL     1      -4.868  17.538  24.028  0.00  0.00    +0.000 A 
ATOM     24  C   UNL     1      -4.366  16.653  24.966  0.00  0.00    +0.000 A 
ATOM     25  N   UNL     1      -3.698  15.525  24.624  0.00  0.00    +0.000 NA
ATOM     26  H   UNL     1      -2.603  13.607  23.755  0.00  0.00    +0.000 HD
ENDBRANCH   1  18
TORSDOF 1
ENDMDL
MODEL 8
REMARK VINA RESULT:      -6.9      3.879      8.215
REMARK  Name = 
REMARK  1 active torsions:
REMARK  status: ('A' for Active; 'I' for Inactive)
REMARK    1  A    between atoms: C_2  and  C_10
REMARK                            x       y       z     vdW  Elec       q    Type
REMARK                         _______ _______ _______ _____ _____    ______ ____
ROOT
ATOM      1  C   UNL     1       0.306   8.917  20.849  0.00  0.00    +0.000 C 
ATOM      2  C   UNL     1       0.642   9.064  22.331  0.00  0.00    +0.000 C 
ATOM      3  O   UNL     1      -0.411   9.777  22.988  0.00  0.00    +0.000 OA
ATOM      4  C   UNL     1      -0.499  11.131  22.538  0.00  0.00    +0.000 C 
ATOM      5  C   UNL     1      -0.847  11.186  21.048  0.00  0.00    +0.000 C 
ATOM      6  C   UNL     1      -0.594  12.582  20.462  0.00  0.00    +0.000 C 
ATOM      7  N   UNL     1       0.798  12.515  20.057  0.00  0.00    +0.000 N 
ATOM      8  C   UNL     1       1.414  13.540  19.396  0.00  0.00    +0.000 A 
ATOM      9  N   UNL     1       0.844  14.751  19.406  0.00  0.00    +0.000 NA
ATOM     10  C   UNL     1       1.494  15.761  18.776  0.00  0.00    +0.000 A 
ATOM     11  C   UNL     1       2.682  15.583  18.126  0.00  0.00    +0.000 A 
ATOM     12  F   UNL     1       3.307  16.593  17.505  0.00  0.00    +0.000 F 
ATOM     13  C   UNL     1       3.188  14.317  18.145  0.00  0.00    +0.000 A 
ATOM     14  N   UNL     1       2.581  13.291  18.778  0.00  0.00    +0.000 NA
ATOM     15  C   UNL     1       1.328  11.161  20.020  0.00  0.00    +0.000 C 
ATOM     16  C   UNL     1       0.073  10.287  20.201  0.00  0.00    +0.000 C 
ENDROOT
BRANCH   1  18
ATOM     17  O   UNL     1       1.824   8.439  19.039  0.00  0.00    +0.000 OA
ATOM     18  C   UNL     1       1.364   8.098  20.124  0.00  0.00    +0.000 C 
ATOM     19  N   UNL     1       1.676   6.921  20.773  0.00  0.00    +0.000 N 
ATOM     20  C   UNL     1       2.462   5.925  20.186  0.00  0.00    +0.000 A 
ATOM     21  C   UNL     1       3.644   6.176  19.491  0.00  0.00    +0.000 A 
ATOM     22  N   UNL     1       4.362   5.192  18.890  0.00  0.00    +0.000 NA
ATOM     23  C   UNL     1       3.824   3.956  18.976  0.00  0.00    +0.000 A 
ATOM     24  C   UNL     1       2.656   3.706  19.675  0.00  0.00    +0.000 A 
ATOM     25  N   UNL     1       1.975   4.675  20.333  0.00  0.00    +0.000 NA
ATOM     26  H   UNL     1       1.004   6.544  21.427  0.00  0.00    +0.000 HD
ENDBRANCH   1  18
TORSDOF 1
ENDMDL
MODEL 9
REMARK VINA RESULT:      -6.9      4.080      8.156
REMARK  Name = 
REMARK  1 active torsions:
REMARK  status: ('A' for Active; 'I' for Inactive)
REMARK    1  A    between atoms: C_2  and  C_10
REMARK                            x       y       z     vdW  Elec       q    Type
REMARK                         _______ _______ _______ _____ _____    ______ ____
ROOT
ATOM      1  C   UNL     1       0.990   9.555  20.729  0.00  0.00    +0.000 C 
ATOM      2  C   UNL     1       1.837  10.820  20.617  0.00  0.00    +0.000 C 
ATOM      3  O   UNL     1       1.166  11.901  21.270  0.00  0.00    +0.000 OA
ATOM      4  C   UNL     1      -0.046  12.259  20.601  0.00  0.00    +0.000 C 
ATOM      5  C   UNL     1      -1.042  11.096  20.623  0.00  0.00    +0.000 C 
ATOM      6  C   UNL     1      -2.182  11.313  19.618  0.00  0.00    +0.000 C 
ATOM      7  N   UNL     1      -1.652  10.736  18.398  0.00  0.00    +0.000 N 
ATOM      8  C   UNL     1      -2.395  10.639  17.256  0.00  0.00    +0.000 A 
ATOM      9  N   UNL     1      -3.508  11.375  17.144  0.00  0.00    +0.000 NA
ATOM     10  C   UNL     1      -4.207  11.292  15.984  0.00  0.00    +0.000 A 
ATOM     11  C   UNL     1      -3.832  10.481  14.952  0.00  0.00    +0.000 A 
ATOM     12  F   UNL     1      -4.539  10.408  13.816  0.00  0.00    +0.000 F 
ATOM     13  C   UNL     1      -2.698   9.750  15.150  0.00  0.00    +0.000 A 
ATOM     14  N   UNL     1      -1.965   9.821  16.281  0.00  0.00    +0.000 NA
ATOM     15  C   UNL     1      -0.475   9.907  18.610  0.00  0.00    +0.000 C 
ATOM     16  C   UNL     1      -0.409   9.777  20.143  0.00  0.00    +0.000 C 
ENDROOT
BRANCH   1  18
ATOM     17  O   UNL     1       2.214   8.408  18.999  0.00  0.00    +0.000 OA
ATOM     18  C   UNL     1       1.702   8.360  20.112  0.00  0.00    +0.000 C 
ATOM     19  N   UNL     1       1.632   7.225  20.895  0.00  0.00    +0.000 N 
ATOM     20  C   UNL     1       2.032   5.969  20.433  0.00  0.00    +0.000 A 
ATOM     21  C   UNL     1       3.210   5.740  19.724  0.00  0.00    +0.000 A 
ATOM     22  N   UNL     1       3.551   4.514  19.246  0.00  0.00    +0.000 NA
ATOM     23  C   UNL     1       2.642   3.540  19.470  0.00  0.00    +0.000 A 
ATOM     24  C   UNL     1       1.478   3.766  20.184  0.00  0.00    +0.000 A 
ATOM     25  N   UNL     1       1.170   4.971  20.720  0.00  0.00    +0.000 NA
ATOM     26  H   UNL     1       0.893   7.164  21.583  0.00  0.00    +0.000 HD
ENDBRANCH   1  18
TORSDOF 1
ENDMDL
