MODEL 1
REMARK VINA RESULT:      -7.1      0.000      0.000
REMARK  Name = 
REMARK  6 active torsions:
REMARK  status: ('A' for Active; 'I' for Inactive)
REMARK    1  A    between atoms: C_1  and  C_2
REMARK    2  A    between atoms: C_2  and  N_3
REMARK    3  A    between atoms: C_7  and  C_8
REMARK    4  A    between atoms: C_8  and  N_9
REMARK    5  A    between atoms: N_12  and  C_13
REMARK    6  A    between atoms: C_23  and  C_24
REMARK                            x       y       z     vdW  Elec       q    Type
REMARK                         _______ _______ _______ _____ _____    ______ ____
ROOT
ATOM      1  N   UNL     1       6.579   5.537  16.423  0.00  0.00    +0.000 NA
ATOM      2  C   UNL     1       5.227   6.033  16.165  0.00  0.00    +0.000 C 
ATOM      3  C   UNL     1       4.141   5.829  17.230  0.00  0.00    +0.000 C 
ATOM      4  N   UNL     1       4.554   6.020  18.655  0.00  0.00    +0.000 N 
ATOM      5  C   UNL     1       5.845   5.363  18.953  0.00  0.00    +0.000 C 
ATOM      6  C   UNL     1       6.966   5.534  17.838  0.00  0.00    +0.000 C 
ATOM      7  C   UNL     1       7.784   6.821  18.033  0.00  0.00    +0.000 C 
ENDROOT
BRANCH   4   8
ATOM      8  C   UNL     1       3.408   5.690  19.468  0.00  0.00    +0.000 A 
ATOM      9  N   UNL     1       2.691   6.763  19.941  0.00  0.00    +0.000 NA
ATOM     10  C   UNL     1       1.515   6.625  20.558  0.00  0.00    +0.000 A 
ATOM     11  N   UNL     1       0.856   5.499  20.758  0.00  0.00    +0.000 NA
ATOM     12  C   UNL     1       1.629   4.414  20.543  0.00  0.00    +0.000 A 
ATOM     13  C   UNL     1       1.183   3.125  20.921  0.00  0.00    +0.000 A 
ATOM     14  C   UNL     1       2.234   2.240  20.945  0.00  0.00    +0.000 A 
ATOM     15  S   UNL     1       3.602   2.867  20.113  0.00  0.00    +0.000 S 
ATOM     16  C   UNL     1       2.913   4.432  19.954  0.00  0.00    +0.000 A 
ENDBRANCH   4   8
BRANCH   1  17
ATOM     17  C   UNL     1       7.043   4.422  15.583  0.00  0.00    +0.000 C 
BRANCH  17  22
ATOM     18  N   UNL     1       6.702   4.206  13.053  0.00  0.00    +0.000 N 
ATOM     19  C   UNL     1       7.250   4.781  11.932  0.00  0.00    +0.000 A 
ATOM     20  C   UNL     1       8.202   5.651  12.390  0.00  0.00    +0.000 A 
ATOM     21  N   UNL     1       8.250   5.626  13.750  0.00  0.00    +0.000 NA
ATOM     22  C   UNL     1       7.332   4.764  14.151  0.00  0.00    +0.000 A 
BRANCH  18  24
ATOM     23  C   UNL     1       4.789   3.291  11.696  0.00  0.00    +0.000 C 
ATOM     24  C   UNL     1       5.569   3.300  13.001  0.00  0.00    +0.000 C 
ENDBRANCH  18  24
ENDBRANCH  17  22
ENDBRANCH   1  17
TORSDOF 4
ENDMDL
MODEL 2
REMARK VINA RESULT:      -6.8      2.724      4.978
REMARK  Name = 
REMARK  6 active torsions:
REMARK  status: ('A' for Active; 'I' for Inactive)
REMARK    1  A    between atoms: C_1  and  C_2
REMARK    2  A    between atoms: C_2  and  N_3
REMARK    3  A    between atoms: C_7  and  C_8
REMARK    4  A    between atoms: C_8  and  N_9
REMARK    5  A    between atoms: N_12  and  C_13
REMARK    6  A    between atoms: C_23  and  C_24
REMARK                            x       y       z     vdW  Elec       q    Type
REMARK                         _______ _______ _______ _____ _____    ______ ____
ROOT
ATOM      1  N   UNL     1       3.678   3.548  18.518  0.00  0.00    +0.000 NA
ATOM      2  C   UNL     1       4.100   4.474  19.569  0.00  0.00    +0.000 C 
ATOM      3  C   UNL     1       3.616   5.929  19.518  0.00  0.00    +0.000 C 
ATOM      4  N   UNL     1       2.197   6.152  19.100  0.00  0.00    +0.000 N 
ATOM      5  C   UNL     1       1.830   5.337  17.922  0.00  0.00    +0.000 C 
ATOM      6  C   UNL     1       2.360   3.837  17.944  0.00  0.00    +0.000 C 
ATOM      7  C   UNL     1       1.390   2.892  18.673  0.00  0.00    +0.000 C 
ENDROOT
BRANCH   4   8
ATOM      8  C   UNL     1       2.001   7.581  19.038  0.00  0.00    +0.000 A 
ATOM      9  N   UNL     1       2.544   8.205  17.940  0.00  0.00    +0.000 NA
ATOM     10  C   UNL     1       2.302   9.485  17.651  0.00  0.00    +0.000 A 
ATOM     11  N   UNL     1       1.502  10.306  18.305  0.00  0.00    +0.000 NA
ATOM     12  C   UNL     1       1.156   9.819  19.514  0.00  0.00    +0.000 A 
ATOM     13  C   UNL     1       0.494  10.638  20.461  0.00  0.00    +0.000 A 
ATOM     14  C   UNL     1       0.556  10.076  21.712  0.00  0.00    +0.000 A 
ATOM     15  S   UNL     1       1.011   8.419  21.634  0.00  0.00    +0.000 S 
ATOM     16  C   UNL     1       1.405   8.503  19.965  0.00  0.00    +0.000 A 
ENDBRANCH   4   8
BRANCH   1  17
ATOM     17  C   UNL     1       4.729   3.060  17.610  0.00  0.00    +0.000 C 
BRANCH  17  22
ATOM     18  N   UNL     1       6.479   4.833  17.015  0.00  0.00    +0.000 N 
ATOM     19  C   UNL     1       6.715   5.666  15.948  0.00  0.00    +0.000 A 
ATOM     20  C   UNL     1       5.710   5.415  15.053  0.00  0.00    +0.000 A 
ATOM     21  N   UNL     1       4.874   4.457  15.538  0.00  0.00    +0.000 NA
ATOM     22  C   UNL     1       5.348   4.095  16.718  0.00  0.00    +0.000 A 
BRANCH  18  24
ATOM     23  C   UNL     1       7.815   6.020  18.788  0.00  0.00    +0.000 C 
ATOM     24  C   UNL     1       7.391   4.713  18.137  0.00  0.00    +0.000 C 
ENDBRANCH  18  24
ENDBRANCH  17  22
ENDBRANCH   1  17
TORSDOF 4
ENDMDL
MODEL 3
REMARK VINA RESULT:      -6.6      2.793      5.117
REMARK  Name = 
REMARK  6 active torsions:
REMARK  status: ('A' for Active; 'I' for Inactive)
REMARK    1  A    between atoms: C_1  and  C_2
REMARK    2  A    between atoms: C_2  and  N_3
REMARK    3  A    between atoms: C_7  and  C_8
REMARK    4  A    between atoms: C_8  and  N_9
REMARK    5  A    between atoms: N_12  and  C_13
REMARK    6  A    between atoms: C_23  and  C_24
REMARK                            x       y       z     vdW  Elec       q    Type
REMARK                         _______ _______ _______ _____ _____    ______ ____
ROOT
ATOM      1  N   UNL     1       3.485   3.796  19.160  0.00  0.00    +0.000 NA
ATOM      2  C   UNL     1       3.286   4.611  20.359  0.00  0.00    +0.000 C 
ATOM      3  C   UNL     1       2.902   6.089  20.200  0.00  0.00    +0.000 C 
ATOM      4  N   UNL     1       1.921   6.416  19.120  0.00  0.00    +0.000 N 
ATOM      5  C   UNL     1       2.232   5.718  17.855  0.00  0.00    +0.000 C 
ATOM      6  C   UNL     1       2.670   4.197  18.009  0.00  0.00    +0.000 C 
ATOM      7  C   UNL     1       1.462   3.246  18.023  0.00  0.00    +0.000 C 
ENDROOT
BRANCH   4   8
ATOM      8  C   UNL     1       1.786   7.853  19.101  0.00  0.00    +0.000 A 
ATOM      9  N   UNL     1       2.421   8.492  18.063  0.00  0.00    +0.000 NA
ATOM     10  C   UNL     1       2.249   9.791  17.808  0.00  0.00    +0.000 A 
ATOM     11  N   UNL     1       1.444  10.621  18.443  0.00  0.00    +0.000 NA
ATOM     12  C   UNL     1       1.004  10.107  19.610  0.00  0.00    +0.000 A 
ATOM     13  C   UNL     1       0.319  10.920  20.544  0.00  0.00    +0.000 A 
ATOM     14  C   UNL     1       0.280  10.312  21.775  0.00  0.00    +0.000 A 
ATOM     15  S   UNL     1       0.672   8.640  21.663  0.00  0.00    +0.000 S 
ATOM     16  C   UNL     1       1.171   8.766  20.025  0.00  0.00    +0.000 A 
ENDBRANCH   4   8
BRANCH   1  17
ATOM     17  C   UNL     1       4.857   3.331  18.901  0.00  0.00    +0.000 C 
BRANCH  17  22
ATOM     18  N   UNL     1       6.222   4.709  17.227  0.00  0.00    +0.000 N 
ATOM     19  C   UNL     1       7.137   5.731  17.306  0.00  0.00    +0.000 A 
ATOM     20  C   UNL     1       7.291   5.987  18.643  0.00  0.00    +0.000 A 
ATOM     21  N   UNL     1       6.500   5.159  19.377  0.00  0.00    +0.000 NA
ATOM     22  C   UNL     1       5.843   4.396  18.520  0.00  0.00    +0.000 A 
BRANCH  18  24
ATOM     23  C   UNL     1       6.635   4.320  14.775  0.00  0.00    +0.000 C 
ATOM     24  C   UNL     1       5.698   4.216  15.968  0.00  0.00    +0.000 C 
ENDBRANCH  18  24
ENDBRANCH  17  22
ENDBRANCH   1  17
TORSDOF 4
ENDMDL
MODEL 4
REMARK VINA RESULT:      -6.5      4.342      8.256
REMARK  Name = 
REMARK  6 active torsions:
REMARK  status: ('A' for Active; 'I' for Inactive)
REMARK    1  A    between atoms: C_1  and  C_2
REMARK    2  A    between atoms: C_2  and  N_3
REMARK    3  A    between atoms: C_7  and  C_8
REMARK    4  A    between atoms: C_8  and  N_9
REMARK    5  A    between atoms: N_12  and  C_13
REMARK    6  A    between atoms: C_23  and  C_24
REMARK                            x       y       z     vdW  Elec       q    Type
REMARK                         _______ _______ _______ _____ _____    ______ ____
ROOT
ATOM      1  N   UNL     1       0.715   9.711  19.677  0.00  0.00    +0.000 NA
ATOM      2  C   UNL     1       1.370   8.771  20.586  0.00  0.00    +0.000 C 
ATOM      3  C   UNL     1       1.987   7.488  20.014  0.00  0.00    +0.000 C 
ATOM      4  N   UNL     1       2.707   7.612  18.709  0.00  0.00    +0.000 N 
ATOM      5  C   UNL     1       1.951   8.424  17.731  0.00  0.00    +0.000 C 
ATOM      6  C   UNL     1       1.273   9.736  18.321  0.00  0.00    +0.000 C 
ATOM      7  C   UNL     1       2.230  10.939  18.304  0.00  0.00    +0.000 C 
ENDROOT
BRANCH   4   8
ATOM      8  C   UNL     1       3.116   6.281  18.330  0.00  0.00    +0.000 A 
ATOM      9  N   UNL     1       2.531   5.259  19.040  0.00  0.00    +0.000 NA
ATOM     10  C   UNL     1       2.671   3.976  18.698  0.00  0.00    +0.000 A 
ATOM     11  N   UNL     1       3.315   3.505  17.648  0.00  0.00    +0.000 NA
ATOM     12  C   UNL     1       4.105   4.436  17.077  0.00  0.00    +0.000 A 
ATOM     13  C   UNL     1       5.047   4.075  16.084  0.00  0.00    +0.000 A 
ATOM     14  C   UNL     1       5.967   5.079  15.903  0.00  0.00    +0.000 A 
ATOM     15  S   UNL     1       5.428   6.557  16.598  0.00  0.00    +0.000 S 
ATOM     16  C   UNL     1       4.097   5.815  17.390  0.00  0.00    +0.000 A 
ENDBRANCH   4   8
BRANCH   1  17
ATOM     17  C   UNL     1      -0.743   9.859  19.821  0.00  0.00    +0.000 C 
BRANCH  17  22
ATOM     18  N   UNL     1      -1.753  11.683  18.333  0.00  0.00    +0.000 N 
ATOM     19  C   UNL     1      -2.426  11.718  17.136  0.00  0.00    +0.000 A 
ATOM     20  C   UNL     1      -2.541  10.412  16.738  0.00  0.00    +0.000 A 
ATOM     21  N   UNL     1      -1.958   9.588  17.650  0.00  0.00    +0.000 NA
ATOM     22  C   UNL     1      -1.469  10.358  18.607  0.00  0.00    +0.000 A 
BRANCH  18  24
ATOM     23  C   UNL     1      -0.206  13.668  18.379  0.00  0.00    +0.000 C 
ATOM     24  C   UNL     1      -1.330  12.881  19.034  0.00  0.00    +0.000 C 
ENDBRANCH  18  24
ENDBRANCH  17  22
ENDBRANCH   1  17
TORSDOF 4
ENDMDL
MODEL 5
REMARK VINA RESULT:      -6.5      2.919      5.316
REMARK  Name = 
REMARK  6 active torsions:
REMARK  status: ('A' for Active; 'I' for Inactive)
REMARK    1  A    between atoms: C_1  and  C_2
REMARK    2  A    between atoms: C_2  and  N_3
REMARK    3  A    between atoms: C_7  and  C_8
REMARK    4  A    between atoms: C_8  and  N_9
REMARK    5  A    between atoms: N_12  and  C_13
REMARK    6  A    between atoms: C_23  and  C_24
REMARK                            x       y       z     vdW  Elec       q    Type
REMARK                         _______ _______ _______ _____ _____    ______ ____
ROOT
ATOM      1  N   UNL     1       3.311   4.070  19.291  0.00  0.00    +0.000 NA
ATOM      2  C   UNL     1       2.551   4.297  20.521  0.00  0.00    +0.000 C 
ATOM      3  C   UNL     1       2.133   5.728  20.885  0.00  0.00    +0.000 C 
ATOM      4  N   UNL     1       1.670   6.600  19.762  0.00  0.00    +0.000 N 
ATOM      5  C   UNL     1       2.550   6.495  18.578  0.00  0.00    +0.000 C 
ATOM      6  C   UNL     1       3.022   5.021  18.213  0.00  0.00    +0.000 C 
ATOM      7  C   UNL     1       2.015   4.300  17.302  0.00  0.00    +0.000 C 
ENDROOT
BRANCH   4   8
ATOM      8  C   UNL     1       1.422   7.906  20.323  0.00  0.00    +0.000 A 
ATOM      9  N   UNL     1       1.295   7.947  21.692  0.00  0.00    +0.000 NA
ATOM     10  C   UNL     1       1.237   9.093  22.373  0.00  0.00    +0.000 A 
ATOM     11  N   UNL     1       1.339  10.312  21.877  0.00  0.00    +0.000 NA
ATOM     12  C   UNL     1       1.209  10.327  20.535  0.00  0.00    +0.000 A 
ATOM     13  C   UNL     1       1.060  11.550  19.838  0.00  0.00    +0.000 A 
ATOM     14  C   UNL     1       0.595  11.325  18.565  0.00  0.00    +0.000 A 
ATOM     15  S   UNL     1       0.765   9.673  18.116  0.00  0.00    +0.000 S 
ATOM     16  C   UNL     1       1.196   9.184  19.705  0.00  0.00    +0.000 A 
ENDBRANCH   4   8
BRANCH   1  17
ATOM     17  C   UNL     1       4.702   3.617  19.452  0.00  0.00    +0.000 C 
BRANCH  17  22
ATOM     18  N   UNL     1       6.164   4.507  17.546  0.00  0.00    +0.000 N 
ATOM     19  C   UNL     1       7.133   5.473  17.416  0.00  0.00    +0.000 A 
ATOM     20  C   UNL     1       7.283   6.018  18.663  0.00  0.00    +0.000 A 
ATOM     21  N   UNL     1       6.437   5.419  19.545  0.00  0.00    +0.000 NA
ATOM     22  C   UNL     1       5.750   4.516  18.866  0.00  0.00    +0.000 A 
BRANCH  18  24
ATOM     23  C   UNL     1       6.184   4.154  15.054  0.00  0.00    +0.000 C 
ATOM     24  C   UNL     1       5.631   3.768  16.417  0.00  0.00    +0.000 C 
ENDBRANCH  18  24
ENDBRANCH  17  22
ENDBRANCH   1  17
TORSDOF 4
ENDMDL
MODEL 6
REMARK VINA RESULT:      -6.5      4.300      8.830
REMARK  Name = 
REMARK  6 active torsions:
REMARK  status: ('A' for Active; 'I' for Inactive)
REMARK    1  A    between atoms: C_1  and  C_2
REMARK    2  A    between atoms: C_2  and  N_3
REMARK    3  A    between atoms: C_7  and  C_8
REMARK    4  A    between atoms: C_8  and  N_9
REMARK    5  A    between atoms: N_12  and  C_13
REMARK    6  A    between atoms: C_23  and  C_24
REMARK                            x       y       z     vdW  Elec       q    Type
REMARK                         _______ _______ _______ _____ _____    ______ ____
ROOT
ATOM      1  N   UNL     1       0.883   9.619  19.880  0.00  0.00    +0.000 NA
ATOM      2  C   UNL     1       1.648   8.649  20.663  0.00  0.00    +0.000 C 
ATOM      3  C   UNL     1       2.134   7.360  19.987  0.00  0.00    +0.000 C 
ATOM      4  N   UNL     1       2.642   7.487  18.586  0.00  0.00    +0.000 N 
ATOM      5  C   UNL     1       1.764   8.332  17.749  0.00  0.00    +0.000 C 
ATOM      6  C   UNL     1       1.222   9.651  18.453  0.00  0.00    +0.000 C 
ATOM      7  C   UNL     1       2.197  10.830  18.300  0.00  0.00    +0.000 C 
ENDROOT
BRANCH   4   8
ATOM      8  C   UNL     1       2.951   6.152  18.132  0.00  0.00    +0.000 A 
ATOM      9  N   UNL     1       1.988   5.204  18.386  0.00  0.00    +0.000 NA
ATOM     10  C   UNL     1       2.046   3.970  17.881  0.00  0.00    +0.000 A 
ATOM     11  N   UNL     1       2.959   3.496  17.055  0.00  0.00    +0.000 NA
ATOM     12  C   UNL     1       4.042   4.297  16.984  0.00  0.00    +0.000 A 
ATOM     13  C   UNL     1       5.223   3.859  16.336  0.00  0.00    +0.000 A 
ATOM     14  C   UNL     1       6.286   4.656  16.682  0.00  0.00    +0.000 A 
ATOM     15  S   UNL     1       5.761   6.125  17.407  0.00  0.00    +0.000 S 
ATOM     16  C   UNL     1       4.131   5.599  17.527  0.00  0.00    +0.000 A 
ENDBRANCH   4   8
BRANCH   1  17
ATOM     17  C   UNL     1      -0.528   9.800  20.254  0.00  0.00    +0.000 C 
BRANCH  17  22
ATOM     18  N   UNL     1      -1.172  12.270  20.473  0.00  0.00    +0.000 N 
ATOM     19  C   UNL     1      -1.379  13.146  21.511  0.00  0.00    +0.000 A 
ATOM     20  C   UNL     1      -1.149  12.427  22.654  0.00  0.00    +0.000 A 
ATOM     21  N   UNL     1      -0.812  11.145  22.346  0.00  0.00    +0.000 NA
ATOM     22  C   UNL     1      -0.841  11.047  21.028  0.00  0.00    +0.000 A 
BRANCH  18  24
ATOM     23  C   UNL     1      -0.374  13.489  18.420  0.00  0.00    +0.000 C 
ATOM     24  C   UNL     1      -1.425  12.616  19.087  0.00  0.00    +0.000 C 
ENDBRANCH  18  24
ENDBRANCH  17  22
ENDBRANCH   1  17
TORSDOF 4
ENDMDL
MODEL 7
REMARK VINA RESULT:      -6.4      1.922      2.790
REMARK  Name = 
REMARK  6 active torsions:
REMARK  status: ('A' for Active; 'I' for Inactive)
REMARK    1  A    between atoms: C_1  and  C_2
REMARK    2  A    between atoms: C_2  and  N_3
REMARK    3  A    between atoms: C_7  and  C_8
REMARK    4  A    between atoms: C_8  and  N_9
REMARK    5  A    between atoms: N_12  and  C_13
REMARK    6  A    between atoms: C_23  and  C_24
REMARK                            x       y       z     vdW  Elec       q    Type
REMARK                         _______ _______ _______ _____ _____    ______ ____
ROOT
ATOM      1  N   UNL     1       6.003   5.103  16.249  0.00  0.00    +0.000 NA
ATOM      2  C   UNL     1       5.308   6.385  16.137  0.00  0.00    +0.000 C 
ATOM      3  C   UNL     1       4.174   6.708  17.121  0.00  0.00    +0.000 C 
ATOM      4  N   UNL     1       4.381   6.296  18.543  0.00  0.00    +0.000 N 
ATOM      5  C   UNL     1       4.924   4.924  18.652  0.00  0.00    +0.000 C 
ATOM      6  C   UNL     1       6.072   4.565  17.612  0.00  0.00    +0.000 C 
ATOM      7  C   UNL     1       7.465   4.961  18.128  0.00  0.00    +0.000 C 
ENDROOT
BRANCH   4   8
ATOM      8  C   UNL     1       3.164   6.614  19.251  0.00  0.00    +0.000 A 
ATOM      9  N   UNL     1       2.636   5.595  20.007  0.00  0.00    +0.000 NA
ATOM     10  C   UNL     1       1.619   5.781  20.851  0.00  0.00    +0.000 A 
ATOM     11  N   UNL     1       1.018   6.923  21.124  0.00  0.00    +0.000 NA
ATOM     12  C   UNL     1       1.327   7.885  20.230  0.00  0.00    +0.000 A 
ATOM     13  C   UNL     1       0.615   9.109  20.211  0.00  0.00    +0.000 A 
ATOM     14  C   UNL     1       0.839   9.778  19.033  0.00  0.00    +0.000 A 
ATOM     15  S   UNL     1       2.202   9.142  18.198  0.00  0.00    +0.000 S 
ATOM     16  C   UNL     1       2.340   7.791  19.250  0.00  0.00    +0.000 A 
ENDBRANCH   4   8
BRANCH   1  17
ATOM     17  C   UNL     1       5.807   4.150  15.145  0.00  0.00    +0.000 C 
BRANCH  17  22
ATOM     18  N   UNL     1       6.420   3.789  12.684  0.00  0.00    +0.000 N 
ATOM     19  C   UNL     1       7.320   4.337  11.801  0.00  0.00    +0.000 A 
ATOM     20  C   UNL     1       8.011   5.280  12.515  0.00  0.00    +0.000 A 
ATOM     21  N   UNL     1       7.559   5.326  13.798  0.00  0.00    +0.000 NA
ATOM     22  C   UNL     1       6.587   4.435  13.895  0.00  0.00    +0.000 A 
BRANCH  18  24
ATOM     23  C   UNL     1       4.339   3.336  11.343  0.00  0.00    +0.000 C 
ATOM     24  C   UNL     1       5.416   2.822  12.285  0.00  0.00    +0.000 C 
ENDBRANCH  18  24
ENDBRANCH  17  22
ENDBRANCH   1  17
TORSDOF 4
ENDMDL
MODEL 8
REMARK VINA RESULT:      -6.4      4.410      8.695
REMARK  Name = 
REMARK  6 active torsions:
REMARK  status: ('A' for Active; 'I' for Inactive)
REMARK    1  A    between atoms: C_1  and  C_2
REMARK    2  A    between atoms: C_2  and  N_3
REMARK    3  A    between atoms: C_7  and  C_8
REMARK    4  A    between atoms: C_8  and  N_9
REMARK    5  A    between atoms: N_12  and  C_13
REMARK    6  A    between atoms: C_23  and  C_24
REMARK                            x       y       z     vdW  Elec       q    Type
REMARK                         _______ _______ _______ _____ _____    ______ ____
ROOT
ATOM      1  N   UNL     1       0.807   9.678  19.735  0.00  0.00    +0.000 NA
ATOM      2  C   UNL     1       1.524   8.710  20.564  0.00  0.00    +0.000 C 
ATOM      3  C   UNL     1       2.081   7.437  19.913  0.00  0.00    +0.000 C 
ATOM      4  N   UNL     1       2.694   7.589  18.557  0.00  0.00    +0.000 N 
ATOM      5  C   UNL     1       1.870   8.431  17.664  0.00  0.00    +0.000 C 
ATOM      6  C   UNL     1       1.255   9.733  18.339  0.00  0.00    +0.000 C 
ATOM      7  C   UNL     1       2.219  10.929  18.275  0.00  0.00    +0.000 C 
ENDROOT
BRANCH   4   8
ATOM      8  C   UNL     1       3.059   6.264  18.114  0.00  0.00    +0.000 A 
ATOM      9  N   UNL     1       2.217   5.254  18.517  0.00  0.00    +0.000 NA
ATOM     10  C   UNL     1       2.318   4.008  18.050  0.00  0.00    +0.000 A 
ATOM     11  N   UNL     1       3.162   3.574  17.134  0.00  0.00    +0.000 NA
ATOM     12  C   UNL     1       4.157   4.454  16.903  0.00  0.00    +0.000 A 
ATOM     13  C   UNL     1       5.284   4.084  16.130  0.00  0.00    +0.000 A 
ATOM     14  C   UNL     1       6.311   4.978  16.316  0.00  0.00    +0.000 A 
ATOM     15  S   UNL     1       5.754   6.431  17.050  0.00  0.00    +0.000 S 
ATOM     16  C   UNL     1       4.200   5.781  17.387  0.00  0.00    +0.000 A 
ENDBRANCH   4   8
BRANCH   1  17
ATOM     17  C   UNL     1      -0.632   9.833  20.000  0.00  0.00    +0.000 C 
BRANCH  17  22
ATOM     18  N   UNL     1      -1.561  12.124  19.325  0.00  0.00    +0.000 N 
ATOM     19  C   UNL     1      -1.878  13.290  19.979  0.00  0.00    +0.000 A 
ATOM     20  C   UNL     1      -1.576  13.070  21.296  0.00  0.00    +0.000 A 
ATOM     21  N   UNL     1      -1.089  11.811  21.465  0.00  0.00    +0.000 NA
ATOM     22  C   UNL     1      -1.094  11.234  20.276  0.00  0.00    +0.000 A 
BRANCH  18  24
ATOM     23  C   UNL     1      -3.239  11.406  17.592  0.00  0.00    +0.000 C 
ATOM     24  C   UNL     1      -1.841  11.907  17.918  0.00  0.00    +0.000 C 
ENDBRANCH  18  24
ENDBRANCH  17  22
ENDBRANCH   1  17
TORSDOF 4
ENDMDL
MODEL 9
REMARK VINA RESULT:      -6.3      2.898      5.174
REMARK  Name = 
REMARK  6 active torsions:
REMARK  status: ('A' for Active; 'I' for Inactive)
REMARK    1  A    between atoms: C_1  and  C_2
REMARK    2  A    between atoms: C_2  and  N_3
REMARK    3  A    between atoms: C_7  and  C_8
REMARK    4  A    between atoms: C_8  and  N_9
REMARK    5  A    between atoms: N_12  and  C_13
REMARK    6  A    between atoms: C_23  and  C_24
REMARK                            x       y       z     vdW  Elec       q    Type
REMARK                         _______ _______ _______ _____ _____    ______ ____
ROOT
ATOM      1  N   UNL     1       3.708   4.402  18.913  0.00  0.00    +0.000 NA
ATOM      2  C   UNL     1       3.287   5.051  20.155  0.00  0.00    +0.000 C 
ATOM      3  C   UNL     1       2.814   6.510  20.112  0.00  0.00    +0.000 C 
ATOM      4  N   UNL     1       1.964   6.907  18.947  0.00  0.00    +0.000 N 
ATOM      5  C   UNL     1       2.495   6.390  17.668  0.00  0.00    +0.000 C 
ATOM      6  C   UNL     1       3.026   4.891  17.710  0.00  0.00    +0.000 C 
ATOM      7  C   UNL     1       1.904   3.873  17.445  0.00  0.00    +0.000 C 
ENDROOT
BRANCH   4   8
ATOM      8  C   UNL     1       1.721   8.324  19.071  0.00  0.00    +0.000 A 
ATOM      9  N   UNL     1       2.283   9.108  18.091  0.00  0.00    +0.000 NA
ATOM     10  C   UNL     1       2.008  10.408  17.967  0.00  0.00    +0.000 A 
ATOM     11  N   UNL     1       1.158  11.108  18.694  0.00  0.00    +0.000 NA
ATOM     12  C   UNL     1       0.785  10.451  19.811  0.00  0.00    +0.000 A 
ATOM     13  C   UNL     1       0.062  11.115  20.832  0.00  0.00    +0.000 A 
ATOM     14  C   UNL     1       0.098  10.389  21.997  0.00  0.00    +0.000 A 
ATOM     15  S   UNL     1       0.611   8.772  21.715  0.00  0.00    +0.000 S 
ATOM     16  C   UNL     1       1.062   9.094  20.089  0.00  0.00    +0.000 A 
ENDBRANCH   4   8
BRANCH   1  17
ATOM     17  C   UNL     1       5.134   4.058  18.801  0.00  0.00    +0.000 C 
BRANCH  17  22
ATOM     18  N   UNL     1       6.707   5.232  17.154  0.00  0.00    +0.000 N 
ATOM     19  C   UNL     1       7.006   5.109  15.819  0.00  0.00    +0.000 A 
ATOM     20  C   UNL     1       6.208   4.098  15.352  0.00  0.00    +0.000 A 
ATOM     21  N   UNL     1       5.438   3.602  16.358  0.00  0.00    +0.000 NA
ATOM     22  C   UNL     1       5.751   4.277  17.451  0.00  0.00    +0.000 A 
BRANCH  18  24
ATOM     23  C   UNL     1       7.595   7.554  17.550  0.00  0.00    +0.000 C 
ATOM     24  C   UNL     1       7.425   6.126  18.043  0.00  0.00    +0.000 C 
ENDBRANCH  18  24
ENDBRANCH  17  22
ENDBRANCH   1  17
TORSDOF 4
ENDMDL
