MODEL 1
REMARK VINA RESULT:      -8.1      0.000      0.000
REMARK  Name = 
REMARK  9 active torsions:
REMARK  status: ('A' for Active; 'I' for Inactive)
REMARK    1  A    between atoms: C_4  and  N_5
REMARK    2  A    between atoms: N_8  and  C_9
REMARK    3  A    between atoms: C_9  and  C_10
REMARK    4  A    between atoms: C_10  and  C_11
REMARK    5  A    between atoms: C_11  and  C_12
REMARK    6  A    between atoms: C_12  and  C_13
REMARK    7  A    between atoms: C_13  and  C_14
REMARK    8  A    between atoms: C_14  and  N_15
REMARK    9  A    between atoms: N_18  and  C_19
REMARK                            x       y       z     vdW  Elec       q    Type
REMARK                         _______ _______ _______ _____ _____    ______ ____
ROOT
ATOM      1  C   UNL     1       1.245   5.468  20.737  0.00  0.00    +0.000 C 
ENDROOT
BRANCH   1   2
ATOM      2  C   UNL     1       1.423   3.962  21.016  0.00  0.00    +0.000 C 
BRANCH   2   3
ATOM      3  C   UNL     1       0.744   3.122  19.915  0.00  0.00    +0.000 C 
BRANCH   3   4
ATOM      4  C   UNL     1       1.688   2.116  19.245  0.00  0.00    +0.000 C 
BRANCH   4   5
ATOM      5  C   UNL     1       2.250   2.626  17.901  0.00  0.00    +0.000 C 
BRANCH   5   9
ATOM      6  N   UNL     1       4.911   5.089  18.119  0.00  0.00    +0.000 N 
ATOM      7  C   UNL     1       4.250   4.734  16.845  0.00  0.00    +0.000 C 
ATOM      8  C   UNL     1       4.272   3.215  16.614  0.00  0.00    +0.000 C 
ATOM      9  N   UNL     1       3.699   2.412  17.720  0.00  0.00    +0.000 NA
ATOM     10  C   UNL     1       4.450   2.766  18.952  0.00  0.00    +0.000 C 
ATOM     11  C   UNL     1       4.498   4.278  19.300  0.00  0.00    +0.000 C 
BRANCH   6  15
ATOM     12  C   UNL     1       8.339   7.519  18.361  0.00  0.00    +0.000 A 
ATOM     13  C   UNL     1       8.184   6.430  19.216  0.00  0.00    +0.000 A 
ATOM     14  C   UNL     1       7.054   5.617  19.113  0.00  0.00    +0.000 A 
ATOM     15  C   UNL     1       6.048   5.873  18.179  0.00  0.00    +0.000 A 
ATOM     16  C   UNL     1       6.232   6.962  17.325  0.00  0.00    +0.000 A 
ATOM     17  C   UNL     1       7.369   7.779  17.404  0.00  0.00    +0.000 A 
ENDBRANCH   6  15
ENDBRANCH   5   9
ENDBRANCH   4   5
ENDBRANCH   3   4
ENDBRANCH   2   3
ENDBRANCH   1   2
BRANCH   1  18
ATOM     18  C   UNL     1       2.015   6.039  19.513  0.00  0.00    +0.000 C 
BRANCH  18  19
ATOM     19  N   UNL     1       2.385   7.456  19.567  0.00  0.00    +0.000 NA
ATOM     20  C   UNL     1       2.446   8.168  18.284  0.00  0.00    +0.000 C 
ATOM     21  C   UNL     1       1.329   9.191  17.887  0.00  0.00    +0.000 C 
ATOM     22  N   UNL     1       0.652   9.914  19.003  0.00  0.00    +0.000 N 
ATOM     23  C   UNL     1       0.395   9.054  20.158  0.00  0.00    +0.000 C 
ATOM     24  C   UNL     1       1.673   8.258  20.583  0.00  0.00    +0.000 C 
BRANCH  22  25
ATOM     25  C   UNL     1      -0.125  11.060  18.686  0.00  0.00    +0.000 A 
ATOM     26  C   UNL     1       0.392  12.299  19.026  0.00  0.00    +0.000 A 
ATOM     27  C   UNL     1      -0.313  13.040  19.946  0.00  0.00    +0.000 A 
ATOM     28  N   UNL     1      -1.608  12.822  20.208  0.00  0.00    +0.000 NA
ATOM     29  C   UNL     1      -2.230  12.012  19.351  0.00  0.00    +0.000 A 
ATOM     30  C   UNL     1      -3.591  12.217  19.210  0.00  0.00    +0.000 A 
ATOM     31  C   UNL     1      -4.294  11.704  18.126  0.00  0.00    +0.000 A 
ATOM     32  C   UNL     1      -3.621  10.921  17.194  0.00  0.00    +0.000 A 
ATOM     33  C   UNL     1      -2.267  10.588  17.395  0.00  0.00    +0.000 A 
ATOM     34  C   UNL     1      -1.532  11.114  18.498  0.00  0.00    +0.000 A 
ENDBRANCH  22  25
ENDBRANCH  18  19
ENDBRANCH   1  18
TORSDOF 9
ENDMDL
MODEL 2
REMARK VINA RESULT:      -7.9      5.130      9.644
REMARK  Name = 
REMARK  9 active torsions:
REMARK  status: ('A' for Active; 'I' for Inactive)
REMARK    1  A    between atoms: C_4  and  N_5
REMARK    2  A    between atoms: N_8  and  C_9
REMARK    3  A    between atoms: C_9  and  C_10
REMARK    4  A    between atoms: C_10  and  C_11
REMARK    5  A    between atoms: C_11  and  C_12
REMARK    6  A    between atoms: C_12  and  C_13
REMARK    7  A    between atoms: C_13  and  C_14
REMARK    8  A    between atoms: C_14  and  N_15
REMARK    9  A    between atoms: N_18  and  C_19
REMARK                            x       y       z     vdW  Elec       q    Type
REMARK                         _______ _______ _______ _____ _____    ______ ____
ROOT
ATOM      1  C   UNL     1       7.944   8.770  17.873  0.00  0.00    +0.000 C 
ENDROOT
BRANCH   1   2
ATOM      2  C   UNL     1       8.788   9.774  18.684  0.00  0.00    +0.000 C 
BRANCH   2   3
ATOM      3  C   UNL     1       9.163  10.993  17.817  0.00  0.00    +0.000 C 
BRANCH   3   4
ATOM      4  C   UNL     1      10.144  11.952  18.503  0.00  0.00    +0.000 C 
BRANCH   4   5
ATOM      5  C   UNL     1       9.436  13.132  19.202  0.00  0.00    +0.000 C 
BRANCH   5   9
ATOM      6  N   UNL     1       7.741  12.885  22.405  0.00  0.00    +0.000 N 
ATOM      7  C   UNL     1       7.757  14.126  21.601  0.00  0.00    +0.000 C 
ATOM      8  C   UNL     1       9.193  14.524  21.226  0.00  0.00    +0.000 C 
ATOM      9  N   UNL     1       9.970  13.466  20.537  0.00  0.00    +0.000 NA
ATOM     10  C   UNL     1       9.970  12.275  21.425  0.00  0.00    +0.000 C 
ATOM     11  C   UNL     1       8.573  11.768  21.873  0.00  0.00    +0.000 C 
BRANCH   6  15
ATOM     12  C   UNL     1       6.345  12.821  26.375  0.00  0.00    +0.000 A 
ATOM     13  C   UNL     1       5.639  13.507  25.390  0.00  0.00    +0.000 A 
ATOM     14  C   UNL     1       6.097  13.504  24.071  0.00  0.00    +0.000 A 
ATOM     15  C   UNL     1       7.270  12.841  23.704  0.00  0.00    +0.000 A 
ATOM     16  C   UNL     1       7.954  12.150  24.707  0.00  0.00    +0.000 A 
ATOM     17  C   UNL     1       7.498  12.130  26.032  0.00  0.00    +0.000 A 
ENDBRANCH   6  15
ENDBRANCH   5   9
ENDBRANCH   4   5
ENDBRANCH   3   4
ENDBRANCH   2   3
ENDBRANCH   1   2
BRANCH   1  18
ATOM     18  C   UNL     1       8.087   7.272  18.267  0.00  0.00    +0.000 C 
BRANCH  18  19
ATOM     19  N   UNL     1       7.447   6.293  17.385  0.00  0.00    +0.000 NA
ATOM     20  C   UNL     1       7.534   4.885  17.793  0.00  0.00    +0.000 C 
ATOM     21  C   UNL     1       6.282   4.146  18.375  0.00  0.00    +0.000 C 
ATOM     22  N   UNL     1       4.947   4.603  17.891  0.00  0.00    +0.000 N 
ATOM     23  C   UNL     1       4.864   6.057  17.755  0.00  0.00    +0.000 C 
ATOM     24  C   UNL     1       6.076   6.633  16.951  0.00  0.00    +0.000 C 
BRANCH  22  25
ATOM     25  C   UNL     1       3.823   3.770  18.138  0.00  0.00    +0.000 A 
ATOM     26  C   UNL     1       2.963   3.524  17.079  0.00  0.00    +0.000 A 
ATOM     27  C   UNL     1       1.671   3.979  17.204  0.00  0.00    +0.000 A 
ATOM     28  N   UNL     1       1.119   4.266  18.390  0.00  0.00    +0.000 NA
ATOM     29  C   UNL     1       1.812   3.852  19.451  0.00  0.00    +0.000 A 
ATOM     30  C   UNL     1       1.068   3.586  20.588  0.00  0.00    +0.000 A 
ATOM     31  C   UNL     1       1.587   2.832  21.635  0.00  0.00    +0.000 A 
ATOM     32  C   UNL     1       2.902   2.385  21.558  0.00  0.00    +0.000 A 
ATOM     33  C   UNL     1       3.717   2.764  20.473  0.00  0.00    +0.000 A 
ATOM     34  C   UNL     1       3.195   3.530  19.388  0.00  0.00    +0.000 A 
ENDBRANCH  22  25
ENDBRANCH  18  19
ENDBRANCH   1  18
TORSDOF 9
ENDMDL
MODEL 3
REMARK VINA RESULT:      -7.8      0.802      1.196
REMARK  Name = 
REMARK  9 active torsions:
REMARK  status: ('A' for Active; 'I' for Inactive)
REMARK    1  A    between atoms: C_4  and  N_5
REMARK    2  A    between atoms: N_8  and  C_9
REMARK    3  A    between atoms: C_9  and  C_10
REMARK    4  A    between atoms: C_10  and  C_11
REMARK    5  A    between atoms: C_11  and  C_12
REMARK    6  A    between atoms: C_12  and  C_13
REMARK    7  A    between atoms: C_13  and  C_14
REMARK    8  A    between atoms: C_14  and  N_15
REMARK    9  A    between atoms: N_18  and  C_19
REMARK                            x       y       z     vdW  Elec       q    Type
REMARK                         _______ _______ _______ _____ _____    ______ ____
ROOT
ATOM      1  C   UNL     1       1.914   5.124  21.057  0.00  0.00    +0.000 C 
ENDROOT
BRANCH   1   2
ATOM      2  C   UNL     1       1.371   3.687  20.927  0.00  0.00    +0.000 C 
BRANCH   2   3
ATOM      3  C   UNL     1       0.528   3.539  19.644  0.00  0.00    +0.000 C 
BRANCH   3   4
ATOM      4  C   UNL     1       1.006   2.405  18.728  0.00  0.00    +0.000 C 
BRANCH   4   5
ATOM      5  C   UNL     1       2.144   1.570  19.352  0.00  0.00    +0.000 C 
BRANCH   5   9
ATOM      6  N   UNL     1       4.425   4.314  18.673  0.00  0.00    +0.000 N 
ATOM      7  C   UNL     1       3.316   3.950  17.765  0.00  0.00    +0.000 C 
ATOM      8  C   UNL     1       3.365   2.458  17.401  0.00  0.00    +0.000 C 
ATOM      9  N   UNL     1       3.389   1.537  18.562  0.00  0.00    +0.000 NA
ATOM     10  C   UNL     1       4.560   1.913  19.394  0.00  0.00    +0.000 C 
ATOM     11  C   UNL     1       4.625   3.400  19.835  0.00  0.00    +0.000 C 
BRANCH   6  15
ATOM     12  C   UNL     1       7.439   7.032  17.559  0.00  0.00    +0.000 A 
ATOM     13  C   UNL     1       6.171   7.110  16.988  0.00  0.00    +0.000 A 
ATOM     14  C   UNL     1       5.171   6.219  17.380  0.00  0.00    +0.000 A 
ATOM     15  C   UNL     1       5.409   5.221  18.328  0.00  0.00    +0.000 A 
ATOM     16  C   UNL     1       6.683   5.170  18.895  0.00  0.00    +0.000 A 
ATOM     17  C   UNL     1       7.694   6.068  18.524  0.00  0.00    +0.000 A 
ENDBRANCH   6  15
ENDBRANCH   5   9
ENDBRANCH   4   5
ENDBRANCH   3   4
ENDBRANCH   2   3
ENDBRANCH   1   2
BRANCH   1  18
ATOM     18  C   UNL     1       1.759   6.036  19.807  0.00  0.00    +0.000 C 
BRANCH  18  19
ATOM     19  N   UNL     1       2.058   7.460  19.986  0.00  0.00    +0.000 NA
ATOM     20  C   UNL     1       2.302   8.238  18.765  0.00  0.00    +0.000 C 
ATOM     21  C   UNL     1       1.226   9.242  18.231  0.00  0.00    +0.000 C 
ATOM     22  N   UNL     1       0.344   9.886  19.249  0.00  0.00    +0.000 N 
ATOM     23  C   UNL     1      -0.067   8.960  20.306  0.00  0.00    +0.000 C 
ATOM     24  C   UNL     1       1.155   8.185  20.903  0.00  0.00    +0.000 C 
BRANCH  22  25
ATOM     25  C   UNL     1      -0.416  11.020  18.858  0.00  0.00    +0.000 A 
ATOM     26  C   UNL     1      -0.078  12.242  19.419  0.00  0.00    +0.000 A 
ATOM     27  C   UNL     1      -1.027  12.851  20.205  0.00  0.00    +0.000 A 
ATOM     28  N   UNL     1      -2.330  12.548  20.132  0.00  0.00    +0.000 NA
ATOM     29  C   UNL     1      -2.677  11.801  19.083  0.00  0.00    +0.000 A 
ATOM     30  C   UNL     1      -3.980  11.956  18.641  0.00  0.00    +0.000 A 
ATOM     31  C   UNL     1      -4.374  11.522  17.380  0.00  0.00    +0.000 A 
ATOM     32  C   UNL     1      -3.450  10.871  16.570  0.00  0.00    +0.000 A 
ATOM     33  C   UNL     1      -2.161  10.582  17.058  0.00  0.00    +0.000 A 
ATOM     34  C   UNL     1      -1.740  11.027  18.346  0.00  0.00    +0.000 A 
ENDBRANCH  22  25
ENDBRANCH  18  19
ENDBRANCH   1  18
TORSDOF 9
ENDMDL
MODEL 4
REMARK VINA RESULT:      -7.7      2.765      3.946
REMARK  Name = 
REMARK  9 active torsions:
REMARK  status: ('A' for Active; 'I' for Inactive)
REMARK    1  A    between atoms: C_4  and  N_5
REMARK    2  A    between atoms: N_8  and  C_9
REMARK    3  A    between atoms: C_9  and  C_10
REMARK    4  A    between atoms: C_10  and  C_11
REMARK    5  A    between atoms: C_11  and  C_12
REMARK    6  A    between atoms: C_12  and  C_13
REMARK    7  A    between atoms: C_13  and  C_14
REMARK    8  A    between atoms: C_14  and  N_15
REMARK    9  A    between atoms: N_18  and  C_19
REMARK                            x       y       z     vdW  Elec       q    Type
REMARK                         _______ _______ _______ _____ _____    ______ ____
ROOT
ATOM      1  C   UNL     1       1.989   7.156  20.250  0.00  0.00    +0.000 C 
ENDROOT
BRANCH   1   2
ATOM      2  C   UNL     1       1.558   5.676  20.272  0.00  0.00    +0.000 C 
BRANCH   2   3
ATOM      3  C   UNL     1       2.150   4.956  21.501  0.00  0.00    +0.000 C 
BRANCH   3   4
ATOM      4  C   UNL     1       2.112   3.426  21.390  0.00  0.00    +0.000 C 
BRANCH   4   5
ATOM      5  C   UNL     1       1.687   2.939  19.989  0.00  0.00    +0.000 C 
BRANCH   5   9
ATOM      6  N   UNL     1       4.161   4.036  17.566  0.00  0.00    +0.000 N 
ATOM      7  C   UNL     1       2.830   3.525  17.176  0.00  0.00    +0.000 C 
ATOM      8  C   UNL     1       2.554   2.155  17.815  0.00  0.00    +0.000 C 
ATOM      9  N   UNL     1       2.695   2.119  19.290  0.00  0.00    +0.000 NA
ATOM     10  C   UNL     1       4.071   2.579  19.609  0.00  0.00    +0.000 C 
ATOM     11  C   UNL     1       4.473   3.958  19.022  0.00  0.00    +0.000 C 
BRANCH   6  15
ATOM     12  C   UNL     1       7.224   4.818  14.787  0.00  0.00    +0.000 A 
ATOM     13  C   UNL     1       7.478   4.885  16.155  0.00  0.00    +0.000 A 
ATOM     14  C   UNL     1       6.461   4.602  17.069  0.00  0.00    +0.000 A 
ATOM     15  C   UNL     1       5.172   4.267  16.652  0.00  0.00    +0.000 A 
ATOM     16  C   UNL     1       4.945   4.194  15.276  0.00  0.00    +0.000 A 
ATOM     17  C   UNL     1       5.958   4.459  14.345  0.00  0.00    +0.000 A 
ENDBRANCH   6  15
ENDBRANCH   5   9
ENDBRANCH   4   5
ENDBRANCH   3   4
ENDBRANCH   2   3
ENDBRANCH   1   2
BRANCH   1  18
ATOM     18  C   UNL     1       1.477   8.042  21.420  0.00  0.00    +0.000 C 
BRANCH  18  19
ATOM     19  N   UNL     1       0.148   8.641  21.263  0.00  0.00    +0.000 NA
ATOM     20  C   UNL     1      -0.518   9.092  22.491  0.00  0.00    +0.000 C 
ATOM     21  C   UNL     1      -0.631  10.619  22.821  0.00  0.00    +0.000 C 
ATOM     22  N   UNL     1      -0.700  11.554  21.660  0.00  0.00    +0.000 N 
ATOM     23  C   UNL     1       0.196  11.168  20.571  0.00  0.00    +0.000 C 
ATOM     24  C   UNL     1       0.035   9.657  20.197  0.00  0.00    +0.000 C 
BRANCH  22  25
ATOM     25  C   UNL     1      -1.118  12.890  21.899  0.00  0.00    +0.000 A 
ATOM     26  C   UNL     1      -0.480  13.897  21.192  0.00  0.00    +0.000 A 
ATOM     27  C   UNL     1       0.235  14.817  21.922  0.00  0.00    +0.000 A 
ATOM     28  N   UNL     1       0.025  15.022  23.229  0.00  0.00    +0.000 NA
ATOM     29  C   UNL     1      -1.080  14.460  23.719  0.00  0.00    +0.000 A 
ATOM     30  C   UNL     1      -1.639  15.090  24.818  0.00  0.00    +0.000 A 
ATOM     31  C   UNL     1      -2.948  14.836  25.212  0.00  0.00    +0.000 A 
ATOM     32  C   UNL     1      -3.690  13.886  24.518  0.00  0.00    +0.000 A 
ATOM     33  C   UNL     1      -3.093  13.137  23.486  0.00  0.00    +0.000 A 
ATOM     34  C   UNL     1      -1.753  13.392  23.065  0.00  0.00    +0.000 A 
ENDBRANCH  22  25
ENDBRANCH  18  19
ENDBRANCH   1  18
TORSDOF 9
ENDMDL
MODEL 5
REMARK VINA RESULT:      -7.6      5.255      7.961
REMARK  Name = 
REMARK  9 active torsions:
REMARK  status: ('A' for Active; 'I' for Inactive)
REMARK    1  A    between atoms: C_4  and  N_5
REMARK    2  A    between atoms: N_8  and  C_9
REMARK    3  A    between atoms: C_9  and  C_10
REMARK    4  A    between atoms: C_10  and  C_11
REMARK    5  A    between atoms: C_11  and  C_12
REMARK    6  A    between atoms: C_12  and  C_13
REMARK    7  A    between atoms: C_13  and  C_14
REMARK    8  A    between atoms: C_14  and  N_15
REMARK    9  A    between atoms: N_18  and  C_19
REMARK                            x       y       z     vdW  Elec       q    Type
REMARK                         _______ _______ _______ _____ _____    ______ ____
ROOT
ATOM      1  C   UNL     1       8.994  10.594  18.661  0.00  0.00    +0.000 C 
ENDROOT
BRANCH   1   2
ATOM      2  C   UNL     1       8.759   9.087  18.886  0.00  0.00    +0.000 C 
BRANCH   2   3
ATOM      3  C   UNL     1       8.023   8.467  17.681  0.00  0.00    +0.000 C 
BRANCH   3   4
ATOM      4  C   UNL     1       7.466   7.065  17.961  0.00  0.00    +0.000 C 
BRANCH   4   5
ATOM      5  C   UNL     1       7.131   6.286  16.672  0.00  0.00    +0.000 C 
BRANCH   5   9
ATOM      6  N   UNL     1       4.295   4.568  18.157  0.00  0.00    +0.000 N 
ATOM      7  C   UNL     1       5.059   4.017  17.016  0.00  0.00    +0.000 C 
ATOM      8  C   UNL     1       5.158   5.037  15.872  0.00  0.00    +0.000 C 
ATOM      9  N   UNL     1       5.715   6.354  16.262  0.00  0.00    +0.000 NA
ATOM     10  C   UNL     1       4.865   6.880  17.361  0.00  0.00    +0.000 C 
ATOM     11  C   UNL     1       4.688   5.942  18.584  0.00  0.00    +0.000 C 
BRANCH   6  15
ATOM     12  C   UNL     1       0.709   2.856  19.545  0.00  0.00    +0.000 A 
ATOM     13  C   UNL     1       1.249   3.975  20.176  0.00  0.00    +0.000 A 
ATOM     14  C   UNL     1       2.426   4.550  19.695  0.00  0.00    +0.000 A 
ATOM     15  C   UNL     1       3.104   4.020  18.595  0.00  0.00    +0.000 A 
ATOM     16  C   UNL     1       2.538   2.907  17.971  0.00  0.00    +0.000 A 
ATOM     17  C   UNL     1       1.347   2.327  18.432  0.00  0.00    +0.000 A 
ENDBRANCH   6  15
ENDBRANCH   5   9
ENDBRANCH   4   5
ENDBRANCH   3   4
ENDBRANCH   2   3
ENDBRANCH   1   2
BRANCH   1  18
ATOM     18  C   UNL     1      10.411  11.132  19.007  0.00  0.00    +0.000 C 
BRANCH  18  19
ATOM     19  N   UNL     1      10.518  12.558  19.325  0.00  0.00    +0.000 NA
ATOM     20  C   UNL     1      10.697  13.472  18.190  0.00  0.00    +0.000 C 
ATOM     21  C   UNL     1       9.517  14.379  17.703  0.00  0.00    +0.000 C 
ATOM     22  N   UNL     1       8.529  14.808  18.737  0.00  0.00    +0.000 N 
ATOM     23  C   UNL     1       8.209  13.743  19.688  0.00  0.00    +0.000 C 
ATOM     24  C   UNL     1       9.502  13.075  20.264  0.00  0.00    +0.000 C 
BRANCH  22  25
ATOM     25  C   UNL     1       7.641  15.870  18.417  0.00  0.00    +0.000 A 
ATOM     26  C   UNL     1       8.160  17.154  18.398  0.00  0.00    +0.000 A 
ATOM     27  C   UNL     1       7.652  18.046  19.313  0.00  0.00    +0.000 A 
ATOM     28  N   UNL     1       6.467  17.871  19.912  0.00  0.00    +0.000 NA
ATOM     29  C   UNL     1       5.705  16.912  19.385  0.00  0.00    +0.000 A 
ATOM     30  C   UNL     1       4.339  17.078  19.540  0.00  0.00    +0.000 A 
ATOM     31  C   UNL     1       3.430  16.368  18.764  0.00  0.00    +0.000 A 
ATOM     32  C   UNL     1       3.906  15.432  17.852  0.00  0.00    +0.000 A 
ATOM     33  C   UNL     1       5.284  15.151  17.780  0.00  0.00    +0.000 A 
ATOM     34  C   UNL     1       6.229  15.877  18.564  0.00  0.00    +0.000 A 
ENDBRANCH  22  25
ENDBRANCH  18  19
ENDBRANCH   1  18
TORSDOF 9
ENDMDL
MODEL 6
REMARK VINA RESULT:      -7.5      3.325     11.278
REMARK  Name = 
REMARK  9 active torsions:
REMARK  status: ('A' for Active; 'I' for Inactive)
REMARK    1  A    between atoms: C_4  and  N_5
REMARK    2  A    between atoms: N_8  and  C_9
REMARK    3  A    between atoms: C_9  and  C_10
REMARK    4  A    between atoms: C_10  and  C_11
REMARK    5  A    between atoms: C_11  and  C_12
REMARK    6  A    between atoms: C_12  and  C_13
REMARK    7  A    between atoms: C_13  and  C_14
REMARK    8  A    between atoms: C_14  and  N_15
REMARK    9  A    between atoms: N_18  and  C_19
REMARK                            x       y       z     vdW  Elec       q    Type
REMARK                         _______ _______ _______ _____ _____    ______ ____
ROOT
ATOM      1  C   UNL     1       0.891  12.791  19.310  0.00  0.00    +0.000 C 
ENDROOT
BRANCH   1   2
ATOM      2  C   UNL     1      -0.108  13.888  19.728  0.00  0.00    +0.000 C 
BRANCH   2   3
ATOM      3  C   UNL     1       0.624  15.047  20.435  0.00  0.00    +0.000 C 
BRANCH   3   4
ATOM      4  C   UNL     1       0.884  14.788  21.924  0.00  0.00    +0.000 C 
BRANCH   4   5
ATOM      5  C   UNL     1      -0.138  15.491  22.842  0.00  0.00    +0.000 C 
BRANCH   5   9
ATOM      6  N   UNL     1      -3.665  14.749  23.298  0.00  0.00    +0.000 N 
ATOM      7  C   UNL     1      -2.977  15.844  24.015  0.00  0.00    +0.000 C 
ATOM      8  C   UNL     1      -1.717  15.332  24.731  0.00  0.00    +0.000 C 
ATOM      9  N   UNL     1      -0.755  14.618  23.859  0.00  0.00    +0.000 NA
ATOM     10  C   UNL     1      -1.490  13.495  23.224  0.00  0.00    +0.000 C 
ATOM     11  C   UNL     1      -2.785  13.883  22.461  0.00  0.00    +0.000 C 
BRANCH   6  15
ATOM     12  C   UNL     1      -7.579  13.476  24.176  0.00  0.00    +0.000 A 
ATOM     13  C   UNL     1      -6.524  12.566  24.175  0.00  0.00    +0.000 A 
ATOM     14  C   UNL     1      -5.226  13.002  23.905  0.00  0.00    +0.000 A 
ATOM     15  C   UNL     1      -4.946  14.338  23.612  0.00  0.00    +0.000 A 
ATOM     16  C   UNL     1      -6.017  15.233  23.631  0.00  0.00    +0.000 A 
ATOM     17  C   UNL     1      -7.325  14.815  23.917  0.00  0.00    +0.000 A 
ENDBRANCH   6  15
ENDBRANCH   5   9
ENDBRANCH   4   5
ENDBRANCH   3   4
ENDBRANCH   2   3
ENDBRANCH   1   2
BRANCH   1  18
ATOM     18  C   UNL     1       0.990  11.554  20.246  0.00  0.00    +0.000 C 
BRANCH  18  19
ATOM     19  N   UNL     1       0.483  10.284  19.721  0.00  0.00    +0.000 NA
ATOM     20  C   UNL     1       1.104   9.789  18.486  0.00  0.00    +0.000 C 
ATOM     21  C   UNL     1       2.098   8.580  18.522  0.00  0.00    +0.000 C 
ATOM     22  N   UNL     1       1.882   7.565  19.595  0.00  0.00    +0.000 N 
ATOM     23  C   UNL     1       1.511   8.168  20.876  0.00  0.00    +0.000 C 
ATOM     24  C   UNL     1       0.344   9.198  20.713  0.00  0.00    +0.000 C 
BRANCH  22  25
ATOM     25  C   UNL     1       2.542   6.313  19.477  0.00  0.00    +0.000 A 
ATOM     26  C   UNL     1       3.758   6.290  18.813  0.00  0.00    +0.000 A 
ATOM     27  C   UNL     1       3.823   5.551  17.655  0.00  0.00    +0.000 A 
ATOM     28  N   UNL     1       2.948   4.579  17.368  0.00  0.00    +0.000 NA
ATOM     29  C   UNL     1       2.164   4.208  18.381  0.00  0.00    +0.000 A 
ATOM     30  C   UNL     1       1.707   2.902  18.339  0.00  0.00    +0.000 A 
ATOM     31  C   UNL     1       1.186   2.280  19.469  0.00  0.00    +0.000 A 
ATOM     32  C   UNL     1       1.073   3.007  20.649  0.00  0.00    +0.000 A 
ATOM     33  C   UNL     1       1.404   4.376  20.672  0.00  0.00    +0.000 A 
ATOM     34  C   UNL     1       1.947   5.025  19.524  0.00  0.00    +0.000 A 
ENDBRANCH  22  25
ENDBRANCH  18  19
ENDBRANCH   1  18
TORSDOF 9
ENDMDL
MODEL 7
REMARK VINA RESULT:      -7.5      2.153      9.379
REMARK  Name = 
REMARK  9 active torsions:
REMARK  status: ('A' for Active; 'I' for Inactive)
REMARK    1  A    between atoms: C_4  and  N_5
REMARK    2  A    between atoms: N_8  and  C_9
REMARK    3  A    between atoms: C_9  and  C_10
REMARK    4  A    between atoms: C_10  and  C_11
REMARK    5  A    between atoms: C_11  and  C_12
REMARK    6  A    between atoms: C_12  and  C_13
REMARK    7  A    between atoms: C_13  and  C_14
REMARK    8  A    between atoms: C_14  and  N_15
REMARK    9  A    between atoms: N_18  and  C_19
REMARK                            x       y       z     vdW  Elec       q    Type
REMARK                         _______ _______ _______ _____ _____    ______ ____
ROOT
ATOM      1  C   UNL     1       1.642   3.640  21.076  0.00  0.00    +0.000 C 
ENDROOT
BRANCH   1   2
ATOM      2  C   UNL     1       1.263   4.944  20.347  0.00  0.00    +0.000 C 
BRANCH   2   3
ATOM      3  C   UNL     1       2.177   6.103  20.795  0.00  0.00    +0.000 C 
BRANCH   3   4
ATOM      4  C   UNL     1       1.896   7.421  20.064  0.00  0.00    +0.000 C 
BRANCH   4   5
ATOM      5  C   UNL     1       1.366   8.525  21.003  0.00  0.00    +0.000 C 
BRANCH   5   9
ATOM      6  N   UNL     1      -0.540  11.399  22.146  0.00  0.00    +0.000 N 
ATOM      7  C   UNL     1      -0.265  10.227  23.004  0.00  0.00    +0.000 C 
ATOM      8  C   UNL     1      -0.688   8.922  22.312  0.00  0.00    +0.000 C 
ATOM      9  N   UNL     1      -0.097   8.713  20.969  0.00  0.00    +0.000 NA
ATOM     10  C   UNL     1      -0.466   9.890  20.141  0.00  0.00    +0.000 C 
ATOM     11  C   UNL     1      -0.086  11.274  20.731  0.00  0.00    +0.000 C 
BRANCH   6  15
ATOM     12  C   UNL     1      -3.215  14.483  23.171  0.00  0.00    +0.000 A 
ATOM     13  C   UNL     1      -3.636  13.416  22.380  0.00  0.00    +0.000 A 
ATOM     14  C   UNL     1      -2.748  12.386  22.064  0.00  0.00    +0.000 A 
ATOM     15  C   UNL     1      -1.423  12.400  22.505  0.00  0.00    +0.000 A 
ATOM     16  C   UNL     1      -1.028  13.472  23.306  0.00  0.00    +0.000 A 
ATOM     17  C   UNL     1      -1.912  14.506  23.646  0.00  0.00    +0.000 A 
ENDBRANCH   6  15
ENDBRANCH   5   9
ENDBRANCH   4   5
ENDBRANCH   3   4
ENDBRANCH   2   3
ENDBRANCH   1   2
BRANCH   1  18
ATOM     18  C   UNL     1       1.354   2.315  20.316  0.00  0.00    +0.000 C 
BRANCH  18  19
ATOM     19  N   UNL     1       2.304   1.932  19.269  0.00  0.00    +0.000 NA
ATOM     20  C   UNL     1       1.957   2.316  17.895  0.00  0.00    +0.000 C 
ATOM     21  C   UNL     1       2.708   3.490  17.181  0.00  0.00    +0.000 C 
ATOM     22  N   UNL     1       4.125   3.725  17.585  0.00  0.00    +0.000 N 
ATOM     23  C   UNL     1       4.334   3.571  19.025  0.00  0.00    +0.000 C 
ATOM     24  C   UNL     1       3.721   2.234  19.559  0.00  0.00    +0.000 C 
BRANCH  22  25
ATOM     25  C   UNL     1       4.931   4.551  16.757  0.00  0.00    +0.000 A 
ATOM     26  C   UNL     1       5.457   3.985  15.606  0.00  0.00    +0.000 A 
ATOM     27  C   UNL     1       6.827   3.901  15.522  0.00  0.00    +0.000 A 
ATOM     28  N   UNL     1       7.644   4.663  16.262  0.00  0.00    +0.000 NA
ATOM     29  C   UNL     1       7.052   5.672  16.900  0.00  0.00    +0.000 A 
ATOM     30  C   UNL     1       7.853   6.771  17.160  0.00  0.00    +0.000 A 
ATOM     31  C   UNL     1       7.305   8.005  17.493  0.00  0.00    +0.000 A 
ATOM     32  C   UNL     1       5.924   8.119  17.621  0.00  0.00    +0.000 A 
ATOM     33  C   UNL     1       5.105   6.980  17.497  0.00  0.00    +0.000 A 
ATOM     34  C   UNL     1       5.653   5.709  17.148  0.00  0.00    +0.000 A 
ENDBRANCH  22  25
ENDBRANCH  18  19
ENDBRANCH   1  18
TORSDOF 9
ENDMDL
MODEL 8
REMARK VINA RESULT:      -7.2      4.460      9.291
REMARK  Name = 
REMARK  9 active torsions:
REMARK  status: ('A' for Active; 'I' for Inactive)
REMARK    1  A    between atoms: C_4  and  N_5
REMARK    2  A    between atoms: N_8  and  C_9
REMARK    3  A    between atoms: C_9  and  C_10
REMARK    4  A    between atoms: C_10  and  C_11
REMARK    5  A    between atoms: C_11  and  C_12
REMARK    6  A    between atoms: C_12  and  C_13
REMARK    7  A    between atoms: C_13  and  C_14
REMARK    8  A    between atoms: C_14  and  N_15
REMARK    9  A    between atoms: N_18  and  C_19
REMARK                            x       y       z     vdW  Elec       q    Type
REMARK                         _______ _______ _______ _____ _____    ______ ____
ROOT
ATOM      1  C   UNL     1       0.305  12.796  19.308  0.00  0.00    +0.000 C 
ENDROOT
BRANCH   1   2
ATOM      2  C   UNL     1       1.109  13.943  18.664  0.00  0.00    +0.000 C 
BRANCH   2   3
ATOM      3  C   UNL     1       1.554  14.962  19.733  0.00  0.00    +0.000 C 
BRANCH   3   4
ATOM      4  C   UNL     1       2.344  16.145  19.159  0.00  0.00    +0.000 C 
BRANCH   4   5
ATOM      5  C   UNL     1       3.657  16.415  19.924  0.00  0.00    +0.000 C 
BRANCH   5   9
ATOM      6  N   UNL     1       6.887  15.054  18.971  0.00  0.00    +0.000 N 
ATOM      7  C   UNL     1       6.689  15.871  20.188  0.00  0.00    +0.000 C 
ATOM      8  C   UNL     1       5.995  17.201  19.854  0.00  0.00    +0.000 C 
ATOM      9  N   UNL     1       4.713  17.065  19.124  0.00  0.00    +0.000 NA
ATOM     10  C   UNL     1       4.994  16.295  17.885  0.00  0.00    +0.000 C 
ATOM     11  C   UNL     1       5.692  14.924  18.088  0.00  0.00    +0.000 C 
BRANCH   6  15
ATOM     12  C   UNL     1      10.667  13.976  17.467  0.00  0.00    +0.000 A 
ATOM     13  C   UNL     1      10.244  15.303  17.430  0.00  0.00    +0.000 A 
ATOM     14  C   UNL     1       8.998  15.654  17.952  0.00  0.00    +0.000 A 
ATOM     15  C   UNL     1       8.138  14.701  18.501  0.00  0.00    +0.000 A 
ATOM     16  C   UNL     1       8.588  13.380  18.539  0.00  0.00    +0.000 A 
ATOM     17  C   UNL     1       9.844  13.013  18.034  0.00  0.00    +0.000 A 
ENDBRANCH   6  15
ENDBRANCH   5   9
ENDBRANCH   4   5
ENDBRANCH   3   4
ENDBRANCH   2   3
ENDBRANCH   1   2
BRANCH   1  18
ATOM     18  C   UNL     1       1.117  11.544  19.745  0.00  0.00    +0.000 C 
BRANCH  18  19
ATOM     19  N   UNL     1       0.593  10.240  19.331  0.00  0.00    +0.000 NA
ATOM     20  C   UNL     1       1.192   9.642  18.131  0.00  0.00    +0.000 C 
ATOM     21  C   UNL     1       2.179   8.433  18.250  0.00  0.00    +0.000 C 
ATOM     22  N   UNL     1       1.974   7.510  19.405  0.00  0.00    +0.000 N 
ATOM     23  C   UNL     1       1.627   8.217  20.638  0.00  0.00    +0.000 C 
ATOM     24  C   UNL     1       0.464   9.239  20.411  0.00  0.00    +0.000 C 
BRANCH  22  25
ATOM     25  C   UNL     1       2.625   6.247  19.378  0.00  0.00    +0.000 A 
ATOM     26  C   UNL     1       3.834   6.163  18.706  0.00  0.00    +0.000 A 
ATOM     27  C   UNL     1       3.882   5.336  17.608  0.00  0.00    +0.000 A 
ATOM     28  N   UNL     1       2.998   4.351  17.407  0.00  0.00    +0.000 NA
ATOM     29  C   UNL     1       2.222   4.066  18.453  0.00  0.00    +0.000 A 
ATOM     30  C   UNL     1       1.755   2.764  18.517  0.00  0.00    +0.000 A 
ATOM     31  C   UNL     1       1.241   2.236  19.696  0.00  0.00    +0.000 A 
ATOM     32  C   UNL     1       1.145   3.053  20.818  0.00  0.00    +0.000 A 
ATOM     33  C   UNL     1       1.485   4.417  20.731  0.00  0.00    +0.000 A 
ATOM     34  C   UNL     1       2.021   4.971  19.531  0.00  0.00    +0.000 A 
ENDBRANCH  22  25
ENDBRANCH  18  19
ENDBRANCH   1  18
TORSDOF 9
ENDMDL
MODEL 9
REMARK VINA RESULT:      -7.2      5.962      8.986
REMARK  Name = 
REMARK  9 active torsions:
REMARK  status: ('A' for Active; 'I' for Inactive)
REMARK    1  A    between atoms: C_4  and  N_5
REMARK    2  A    between atoms: N_8  and  C_9
REMARK    3  A    between atoms: C_9  and  C_10
REMARK    4  A    between atoms: C_10  and  C_11
REMARK    5  A    between atoms: C_11  and  C_12
REMARK    6  A    between atoms: C_12  and  C_13
REMARK    7  A    between atoms: C_13  and  C_14
REMARK    8  A    between atoms: C_14  and  N_15
REMARK    9  A    between atoms: N_18  and  C_19
REMARK                            x       y       z     vdW  Elec       q    Type
REMARK                         _______ _______ _______ _____ _____    ______ ____
ROOT
ATOM      1  C   UNL     1       9.196  11.630  17.996  0.00  0.00    +0.000 C 
ENDROOT
BRANCH   1   2
ATOM      2  C   UNL     1       8.961  10.245  18.632  0.00  0.00    +0.000 C 
BRANCH   2   3
ATOM      3  C   UNL     1       8.329   9.279  17.610  0.00  0.00    +0.000 C 
BRANCH   3   4
ATOM      4  C   UNL     1       8.049   7.883  18.181  0.00  0.00    +0.000 C 
BRANCH   4   5
ATOM      5  C   UNL     1       6.986   7.108  17.373  0.00  0.00    +0.000 C 
BRANCH   5   9
ATOM      6  N   UNL     1       4.149   5.068  18.365  0.00  0.00    +0.000 N 
ATOM      7  C   UNL     1       5.084   5.669  19.341  0.00  0.00    +0.000 C 
ATOM      8  C   UNL     1       6.540   5.311  19.005  0.00  0.00    +0.000 C 
ATOM      9  N   UNL     1       6.961   5.655  17.625  0.00  0.00    +0.000 NA
ATOM     10  C   UNL     1       6.024   4.968  16.699  0.00  0.00    +0.000 C 
ATOM     11  C   UNL     1       4.516   5.253  16.932  0.00  0.00    +0.000 C 
BRANCH   6  15
ATOM     12  C   UNL     1       1.192   2.290  19.486  0.00  0.00    +0.000 A 
ATOM     13  C   UNL     1       1.048   3.045  18.324  0.00  0.00    +0.000 A 
ATOM     14  C   UNL     1       2.045   3.948  17.948  0.00  0.00    +0.000 A 
ATOM     15  C   UNL     1       3.192   4.137  18.721  0.00  0.00    +0.000 A 
ATOM     16  C   UNL     1       3.320   3.360  19.874  0.00  0.00    +0.000 A 
ATOM     17  C   UNL     1       2.337   2.438  20.257  0.00  0.00    +0.000 A 
ENDBRANCH   6  15
ENDBRANCH   5   9
ENDBRANCH   4   5
ENDBRANCH   3   4
ENDBRANCH   2   3
ENDBRANCH   1   2
BRANCH   1  18
ATOM     18  C   UNL     1      10.530  12.340  18.362  0.00  0.00    +0.000 C 
BRANCH  18  19
ATOM     19  N   UNL     1      10.492  13.280  19.486  0.00  0.00    +0.000 NA
ATOM     20  C   UNL     1       9.402  14.264  19.482  0.00  0.00    +0.000 C 
ATOM     21  C   UNL     1       8.192  14.116  20.466  0.00  0.00    +0.000 C 
ATOM     22  N   UNL     1       8.467  13.452  21.774  0.00  0.00    +0.000 N 
ATOM     23  C   UNL     1       9.372  12.309  21.647  0.00  0.00    +0.000 C 
ATOM     24  C   UNL     1      10.652  12.674  20.823  0.00  0.00    +0.000 C 
BRANCH  22  25
ATOM     25  C   UNL     1       7.501  13.579  22.807  0.00  0.00    +0.000 A 
ATOM     26  C   UNL     1       6.193  13.838  22.433  0.00  0.00    +0.000 A 
ATOM     27  C   UNL     1       5.649  15.031  22.846  0.00  0.00    +0.000 A 
ATOM     28  N   UNL     1       6.143  15.733  23.874  0.00  0.00    +0.000 NA
ATOM     29  C   UNL     1       7.037  15.085  24.622  0.00  0.00    +0.000 A 
ATOM     30  C   UNL     1       7.119  15.489  25.944  0.00  0.00    +0.000 A 
ATOM     31  C   UNL     1       7.733  14.696  26.907  0.00  0.00    +0.000 A 
ATOM     32  C   UNL     1       8.324  13.499  26.520  0.00  0.00    +0.000 A 
ATOM     33  C   UNL     1       8.371  13.140  25.158  0.00  0.00    +0.000 A 
ATOM     34  C   UNL     1       7.739  13.939  24.160  0.00  0.00    +0.000 A 
ENDBRANCH  22  25
ENDBRANCH  18  19
ENDBRANCH   1  18
TORSDOF 9
ENDMDL
