MODEL 1
REMARK VINA RESULT:      -8.1      0.000      0.000
REMARK  Name = 
REMARK  6 active torsions:
REMARK  status: ('A' for Active; 'I' for Inactive)
REMARK    1  A    between atoms: C_2  and  C_3
REMARK    2  A    between atoms: C_15  and  C_16
REMARK    3  A    between atoms: C_16  and  O_17
REMARK    4  A    between atoms: C_16  and  C_18
REMARK    5  A    between atoms: C_18  and  C_19
REMARK    6  A    between atoms: C_19  and  C_20
REMARK                            x       y       z     vdW  Elec       q    Type
REMARK                         _______ _______ _______ _____ _____    ______ ____
ROOT
ATOM      1  O   UNL     1       4.520   2.680  16.433  0.00  0.00    +0.000 OA
ATOM      2  C   UNL     1       4.352   3.681  17.133  0.00  0.00    +0.000 C 
ATOM      3  N   UNL     1       5.377   4.618  17.333  0.00  0.00    +0.000 N 
ATOM      4  C   UNL     1       6.562   4.589  16.478  0.00  0.00    +0.000 C 
ATOM      5  C   UNL     1       7.845   4.684  17.302  0.00  0.00    +0.000 C 
ATOM      6  C   UNL     1       7.848   5.847  18.313  0.00  0.00    +0.000 C 
ATOM      7  C   UNL     1       6.563   5.784  19.143  0.00  0.00    +0.000 C 
ATOM      8  C   UNL     1       5.307   5.717  18.294  0.00  0.00    +0.000 C 
ENDROOT
BRANCH   2   9
ATOM      9  C   UNL     1       3.071   3.893  17.843  0.00  0.00    +0.000 A 
ATOM     10  N   UNL     1       2.042   4.599  17.315  0.00  0.00    +0.000 NA
ATOM     11  N   UNL     1       1.131   4.667  18.296  0.00  0.00    +0.000 N 
ATOM     12  C   UNL     1       1.469   3.929  19.381  0.00  0.00    +0.000 A 
ATOM     13  C   UNL     1       2.719   3.410  19.130  0.00  0.00    +0.000 A 
ATOM     14  C   UNL     1       3.446   2.562  20.112  0.00  0.00    +0.000 C 
ATOM     15  C   UNL     1       2.840   2.753  21.520  0.00  0.00    +0.000 C 
ATOM     16  C   UNL     1       1.299   2.667  21.491  0.00  0.00    +0.000 C 
ATOM     17  C   UNL     1       0.668   3.768  20.616  0.00  0.00    +0.000 C 
ATOM     18  H   UNL     1       0.310   5.245  18.152  0.00  0.00    +0.000 HD
ENDBRANCH   2   9
BRANCH   6  19
ATOM     19  C   UNL     1       8.129   7.227  17.666  0.00  0.00    +0.000 C 
BRANCH  19  20
ATOM     20  O   UNL     1       7.128   7.592  16.721  0.00  0.00    +0.000 OA
ATOM     21  H   UNL     1       6.591   8.314  17.086  0.00  0.00    +0.000 HD
ENDBRANCH  19  20
BRANCH  19  22
ATOM     22  C   UNL     1       8.282   8.378  18.668  0.00  0.00    +0.000 C 
BRANCH  22  23
ATOM     23  C   UNL     1       8.402   9.747  17.999  0.00  0.00    +0.000 C 
BRANCH  23  24
ATOM     24  C   UNL     1       9.456  10.568  18.690  0.00  0.00    +0.000 A 
ATOM     25  C   UNL     1       9.378  10.803  20.071  0.00  0.00    +0.000 A 
ATOM     26  C   UNL     1      10.309  11.629  20.698  0.00  0.00    +0.000 A 
ATOM     27  C   UNL     1      11.318  12.227  19.951  0.00  0.00    +0.000 A 
ATOM     28  C   UNL     1      11.408  11.995  18.577  0.00  0.00    +0.000 A 
ATOM     29  C   UNL     1      10.477  11.169  17.950  0.00  0.00    +0.000 A 
ENDBRANCH  23  24
ENDBRANCH  22  23
ENDBRANCH  19  22
ENDBRANCH   6  19
TORSDOF 6
ENDMDL
MODEL 2
REMARK VINA RESULT:      -7.8      4.650      7.871
REMARK  Name = 
REMARK  6 active torsions:
REMARK  status: ('A' for Active; 'I' for Inactive)
REMARK    1  A    between atoms: C_2  and  C_3
REMARK    2  A    between atoms: C_15  and  C_16
REMARK    3  A    between atoms: C_16  and  O_17
REMARK    4  A    between atoms: C_16  and  C_18
REMARK    5  A    between atoms: C_18  and  C_19
REMARK    6  A    between atoms: C_19  and  C_20
REMARK                            x       y       z     vdW  Elec       q    Type
REMARK                         _______ _______ _______ _____ _____    ______ ____
ROOT
ATOM      1  O   UNL     1       4.888   2.912  19.736  0.00  0.00    +0.000 OA
ATOM      2  C   UNL     1       4.974   4.011  19.181  0.00  0.00    +0.000 C 
ATOM      3  N   UNL     1       4.058   5.041  19.446  0.00  0.00    +0.000 N 
ATOM      4  C   UNL     1       3.170   4.940  20.602  0.00  0.00    +0.000 C 
ATOM      5  C   UNL     1       1.729   5.279  20.227  0.00  0.00    +0.000 C 
ATOM      6  C   UNL     1       1.583   6.606  19.456  0.00  0.00    +0.000 C 
ATOM      7  C   UNL     1       2.562   6.604  18.280  0.00  0.00    +0.000 C 
ATOM      8  C   UNL     1       3.989   6.289  18.691  0.00  0.00    +0.000 C 
ENDROOT
BRANCH   2   9
ATOM      9  C   UNL     1       6.017   4.256  18.162  0.00  0.00    +0.000 A 
ATOM     10  N   UNL     1       7.302   4.548  18.474  0.00  0.00    +0.000 NA
ATOM     11  N   UNL     1       7.891   4.819  17.301  0.00  0.00    +0.000 N 
ATOM     12  C   UNL     1       7.081   4.588  16.239  0.00  0.00    +0.000 A 
ATOM     13  C   UNL     1       5.857   4.222  16.751  0.00  0.00    +0.000 A 
ATOM     14  C   UNL     1       4.686   3.916  15.886  0.00  0.00    +0.000 C 
ATOM     15  C   UNL     1       4.909   4.503  14.476  0.00  0.00    +0.000 C 
ATOM     16  C   UNL     1       6.315   4.166  13.936  0.00  0.00    +0.000 C 
ATOM     17  C   UNL     1       7.436   4.759  14.812  0.00  0.00    +0.000 C 
ATOM     18  H   UNL     1       8.845   5.165  17.309  0.00  0.00    +0.000 HD
ENDBRANCH   2   9
BRANCH   6  19
ATOM     19  C   UNL     1       1.671   7.859  20.363  0.00  0.00    +0.000 C 
BRANCH  19  20
ATOM     20  O   UNL     1       1.885   9.052  19.614  0.00  0.00    +0.000 OA
ATOM     21  H   UNL     1       1.708   9.821  20.180  0.00  0.00    +0.000 HD
ENDBRANCH  19  20
BRANCH  19  22
ATOM     22  C   UNL     1       0.450   8.075  21.266  0.00  0.00    +0.000 C 
BRANCH  22  23
ATOM     23  C   UNL     1       0.654   9.185  22.298  0.00  0.00    +0.000 C 
BRANCH  23  24
ATOM     24  C   UNL     1      -0.381  10.262  22.108  0.00  0.00    +0.000 A 
ATOM     25  C   UNL     1      -0.558  10.859  20.851  0.00  0.00    +0.000 A 
ATOM     26  C   UNL     1      -1.460  11.910  20.692  0.00  0.00    +0.000 A 
ATOM     27  C   UNL     1      -2.184  12.372  21.786  0.00  0.00    +0.000 A 
ATOM     28  C   UNL     1      -2.019  11.780  23.041  0.00  0.00    +0.000 A 
ATOM     29  C   UNL     1      -1.118  10.729  23.199  0.00  0.00    +0.000 A 
ENDBRANCH  23  24
ENDBRANCH  22  23
ENDBRANCH  19  22
ENDBRANCH   6  19
TORSDOF 6
ENDMDL
MODEL 3
REMARK VINA RESULT:      -7.8      4.581      8.183
REMARK  Name = 
REMARK  6 active torsions:
REMARK  status: ('A' for Active; 'I' for Inactive)
REMARK    1  A    between atoms: C_2  and  C_3
REMARK    2  A    between atoms: C_15  and  C_16
REMARK    3  A    between atoms: C_16  and  O_17
REMARK    4  A    between atoms: C_16  and  C_18
REMARK    5  A    between atoms: C_18  and  C_19
REMARK    6  A    between atoms: C_19  and  C_20
REMARK                            x       y       z     vdW  Elec       q    Type
REMARK                         _______ _______ _______ _____ _____    ______ ____
ROOT
ATOM      1  O   UNL     1       1.729   8.016  21.276  0.00  0.00    +0.000 OA
ATOM      2  C   UNL     1       1.757   8.164  20.052  0.00  0.00    +0.000 C 
ATOM      3  N   UNL     1       2.465   7.282  19.221  0.00  0.00    +0.000 N 
ATOM      4  C   UNL     1       2.931   6.003  19.753  0.00  0.00    +0.000 C 
ATOM      5  C   UNL     1       4.390   5.744  19.382  0.00  0.00    +0.000 C 
ATOM      6  C   UNL     1       4.691   5.930  17.882  0.00  0.00    +0.000 C 
ATOM      7  C   UNL     1       4.153   7.291  17.435  0.00  0.00    +0.000 C 
ATOM      8  C   UNL     1       2.695   7.505  17.796  0.00  0.00    +0.000 C 
ENDROOT
BRANCH   2   9
ATOM      9  C   UNL     1       1.091   9.325  19.422  0.00  0.00    +0.000 A 
ATOM     10  N   UNL     1       1.304   9.690  18.135  0.00  0.00    +0.000 NA
ATOM     11  N   UNL     1       0.629  10.838  17.985  0.00  0.00    +0.000 N 
ATOM     12  C   UNL     1      -0.114  11.159  19.073  0.00  0.00    +0.000 A 
ATOM     13  C   UNL     1       0.157  10.205  20.027  0.00  0.00    +0.000 A 
ATOM     14  C   UNL     1      -0.452  10.236  21.384  0.00  0.00    +0.000 C 
ATOM     15  C   UNL     1      -0.995  11.650  21.684  0.00  0.00    +0.000 C 
ATOM     16  C   UNL     1      -1.827  12.199  20.505  0.00  0.00    +0.000 C 
ATOM     17  C   UNL     1      -0.993  12.341  19.216  0.00  0.00    +0.000 C 
ATOM     18  H   UNL     1       0.732  11.349  17.114  0.00  0.00    +0.000 HD
ENDBRANCH   2   9
BRANCH   6  19
ATOM     19  C   UNL     1       4.229   4.737  17.007  0.00  0.00    +0.000 C 
BRANCH  19  20
ATOM     20  O   UNL     1       4.777   4.789  15.693  0.00  0.00    +0.000 OA
ATOM     21  H   UNL     1       4.541   3.976  15.217  0.00  0.00    +0.000 HD
ENDBRANCH  19  20
BRANCH  19  22
ATOM     22  C   UNL     1       4.539   3.357  17.601  0.00  0.00    +0.000 C 
BRANCH  22  23
ATOM     23  C   UNL     1       3.312   2.449  17.682  0.00  0.00    +0.000 C 
BRANCH  23  24
ATOM     24  C   UNL     1       2.620   2.636  19.005  0.00  0.00    +0.000 A 
ATOM     25  C   UNL     1       3.321   2.445  20.205  0.00  0.00    +0.000 A 
ATOM     26  C   UNL     1       2.661   2.540  21.429  0.00  0.00    +0.000 A 
ATOM     27  C   UNL     1       1.299   2.822  21.461  0.00  0.00    +0.000 A 
ATOM     28  C   UNL     1       0.593   3.019  20.273  0.00  0.00    +0.000 A 
ATOM     29  C   UNL     1       1.253   2.924  19.049  0.00  0.00    +0.000 A 
ENDBRANCH  23  24
ENDBRANCH  22  23
ENDBRANCH  19  22
ENDBRANCH   6  19
TORSDOF 6
ENDMDL
MODEL 4
REMARK VINA RESULT:      -7.8      5.827      8.128
REMARK  Name = 
REMARK  6 active torsions:
REMARK  status: ('A' for Active; 'I' for Inactive)
REMARK    1  A    between atoms: C_2  and  C_3
REMARK    2  A    between atoms: C_15  and  C_16
REMARK    3  A    between atoms: C_16  and  O_17
REMARK    4  A    between atoms: C_16  and  C_18
REMARK    5  A    between atoms: C_18  and  C_19
REMARK    6  A    between atoms: C_19  and  C_20
REMARK                            x       y       z     vdW  Elec       q    Type
REMARK                         _______ _______ _______ _____ _____    ______ ____
ROOT
ATOM      1  O   UNL     1       2.044   5.465  20.662  0.00  0.00    +0.000 OA
ATOM      2  C   UNL     1       2.374   6.000  19.601  0.00  0.00    +0.000 C 
ATOM      3  N   UNL     1       2.170   7.370  19.375  0.00  0.00    +0.000 N 
ATOM      4  C   UNL     1       1.843   8.248  20.496  0.00  0.00    +0.000 C 
ATOM      5  C   UNL     1       0.668   9.164  20.161  0.00  0.00    +0.000 C 
ATOM      6  C   UNL     1       0.824   9.911  18.823  0.00  0.00    +0.000 C 
ATOM      7  C   UNL     1       1.174   8.899  17.729  0.00  0.00    +0.000 C 
ATOM      8  C   UNL     1       2.362   8.024  18.083  0.00  0.00    +0.000 C 
ENDROOT
BRANCH   2   9
ATOM      9  C   UNL     1       2.943   5.193  18.500  0.00  0.00    +0.000 A 
ATOM     10  N   UNL     1       2.188   4.410  17.691  0.00  0.00    +0.000 NA
ATOM     11  N   UNL     1       3.069   3.760  16.919  0.00  0.00    +0.000 N 
ATOM     12  C   UNL     1       4.344   4.184  17.101  0.00  0.00    +0.000 A 
ATOM     13  C   UNL     1       4.307   5.112  18.117  0.00  0.00    +0.000 A 
ATOM     14  C   UNL     1       5.530   5.786  18.629  0.00  0.00    +0.000 C 
ATOM     15  C   UNL     1       6.783   4.985  18.215  0.00  0.00    +0.000 C 
ATOM     16  C   UNL     1       6.742   4.599  16.722  0.00  0.00    +0.000 C 
ATOM     17  C   UNL     1       5.542   3.692  16.384  0.00  0.00    +0.000 C 
ATOM     18  H   UNL     1       2.724   3.035  16.299  0.00  0.00    +0.000 HD
ENDBRANCH   2   9
BRANCH   6  19
ATOM     19  C   UNL     1       1.782  11.127  18.903  0.00  0.00    +0.000 C 
BRANCH  19  20
ATOM     20  O   UNL     1       2.287  11.501  17.625  0.00  0.00    +0.000 OA
ATOM     21  H   UNL     1       2.894  10.813  17.307  0.00  0.00    +0.000 HD
ENDBRANCH  19  20
BRANCH  19  22
ATOM     22  C   UNL     1       1.173  12.372  19.560  0.00  0.00    +0.000 C 
BRANCH  22  23
ATOM     23  C   UNL     1       0.237  13.145  18.631  0.00  0.00    +0.000 C 
BRANCH  23  24
ATOM     24  C   UNL     1      -1.170  12.631  18.775  0.00  0.00    +0.000 A 
ATOM     25  C   UNL     1      -1.768  11.901  17.737  0.00  0.00    +0.000 A 
ATOM     26  C   UNL     1      -3.097  11.494  17.837  0.00  0.00    +0.000 A 
ATOM     27  C   UNL     1      -3.836  11.817  18.970  0.00  0.00    +0.000 A 
ATOM     28  C   UNL     1      -3.250  12.538  20.012  0.00  0.00    +0.000 A 
ATOM     29  C   UNL     1      -1.920  12.945  19.912  0.00  0.00    +0.000 A 
ENDBRANCH  23  24
ENDBRANCH  22  23
ENDBRANCH  19  22
ENDBRANCH   6  19
TORSDOF 6
ENDMDL
MODEL 5
REMARK VINA RESULT:      -7.8      5.822      7.977
REMARK  Name = 
REMARK  6 active torsions:
REMARK  status: ('A' for Active; 'I' for Inactive)
REMARK    1  A    between atoms: C_2  and  C_3
REMARK    2  A    between atoms: C_15  and  C_16
REMARK    3  A    between atoms: C_16  and  O_17
REMARK    4  A    between atoms: C_16  and  C_18
REMARK    5  A    between atoms: C_18  and  C_19
REMARK    6  A    between atoms: C_19  and  C_20
REMARK                            x       y       z     vdW  Elec       q    Type
REMARK                         _______ _______ _______ _____ _____    ______ ____
ROOT
ATOM      1  O   UNL     1       2.076   5.418  20.617  0.00  0.00    +0.000 OA
ATOM      2  C   UNL     1       2.415   5.978  19.571  0.00  0.00    +0.000 C 
ATOM      3  N   UNL     1       2.194   7.349  19.367  0.00  0.00    +0.000 N 
ATOM      4  C   UNL     1       1.837   8.201  20.500  0.00  0.00    +0.000 C 
ATOM      5  C   UNL     1       0.653   9.106  20.164  0.00  0.00    +0.000 C 
ATOM      6  C   UNL     1       0.819   9.880  18.842  0.00  0.00    +0.000 C 
ATOM      7  C   UNL     1       1.200   8.895  17.735  0.00  0.00    +0.000 C 
ATOM      8  C   UNL     1       2.396   8.030  18.091  0.00  0.00    +0.000 C 
ENDROOT
BRANCH   2   9
ATOM      9  C   UNL     1       3.012   5.201  18.463  0.00  0.00    +0.000 A 
ATOM     10  N   UNL     1       2.279   4.439  17.617  0.00  0.00    +0.000 NA
ATOM     11  N   UNL     1       3.180   3.810  16.850  0.00  0.00    +0.000 N 
ATOM     12  C   UNL     1       4.449   4.229  17.075  0.00  0.00    +0.000 A 
ATOM     13  C   UNL     1       4.386   5.131  18.113  0.00  0.00    +0.000 A 
ATOM     14  C   UNL     1       5.594   5.792  18.673  0.00  0.00    +0.000 C 
ATOM     15  C   UNL     1       6.859   5.003  18.271  0.00  0.00    +0.000 C 
ATOM     16  C   UNL     1       6.856   4.656  16.767  0.00  0.00    +0.000 C 
ATOM     17  C   UNL     1       5.665   3.758  16.376  0.00  0.00    +0.000 C 
ATOM     18  H   UNL     1       2.851   3.101  16.202  0.00  0.00    +0.000 HD
ENDBRANCH   2   9
BRANCH   6  19
ATOM     19  C   UNL     1       1.758  11.108  18.961  0.00  0.00    +0.000 C 
BRANCH  19  20
ATOM     20  O   UNL     1       1.901  11.798  17.722  0.00  0.00    +0.000 OA
ATOM     21  H   UNL     1       2.049  11.152  17.012  0.00  0.00    +0.000 HD
ENDBRANCH  19  20
BRANCH  19  22
ATOM     22  C   UNL     1       1.339  12.126  20.029  0.00  0.00    +0.000 C 
BRANCH  22  23
ATOM     23  C   UNL     1       0.017  12.823  19.710  0.00  0.00    +0.000 C 
BRANCH  23  24
ATOM     24  C   UNL     1      -0.949  12.643  20.850  0.00  0.00    +0.000 A 
ATOM     25  C   UNL     1      -0.526  12.049  22.049  0.00  0.00    +0.000 A 
ATOM     26  C   UNL     1      -1.438  11.809  23.075  0.00  0.00    +0.000 A 
ATOM     27  C   UNL     1      -2.775  12.157  22.909  0.00  0.00    +0.000 A 
ATOM     28  C   UNL     1      -3.205  12.753  21.721  0.00  0.00    +0.000 A 
ATOM     29  C   UNL     1      -2.293  12.993  20.695  0.00  0.00    +0.000 A 
ENDBRANCH  23  24
ENDBRANCH  22  23
ENDBRANCH  19  22
ENDBRANCH   6  19
TORSDOF 6
ENDMDL
MODEL 6
REMARK VINA RESULT:      -7.7      4.282      6.804
REMARK  Name = 
REMARK  6 active torsions:
REMARK  status: ('A' for Active; 'I' for Inactive)
REMARK    1  A    between atoms: C_2  and  C_3
REMARK    2  A    between atoms: C_15  and  C_16
REMARK    3  A    between atoms: C_16  and  O_17
REMARK    4  A    between atoms: C_16  and  C_18
REMARK    5  A    between atoms: C_18  and  C_19
REMARK    6  A    between atoms: C_19  and  C_20
REMARK                            x       y       z     vdW  Elec       q    Type
REMARK                         _______ _______ _______ _____ _____    ______ ____
ROOT
ATOM      1  O   UNL     1       2.475   7.881  17.892  0.00  0.00    +0.000 OA
ATOM      2  C   UNL     1       3.050   6.818  18.138  0.00  0.00    +0.000 C 
ATOM      3  N   UNL     1       4.112   6.356  17.345  0.00  0.00    +0.000 N 
ATOM      4  C   UNL     1       4.756   7.263  16.398  0.00  0.00    +0.000 C 
ATOM      5  C   UNL     1       4.927   6.608  15.029  0.00  0.00    +0.000 C 
ATOM      6  C   UNL     1       5.581   5.214  15.084  0.00  0.00    +0.000 C 
ATOM      7  C   UNL     1       4.834   4.358  16.110  0.00  0.00    +0.000 C 
ATOM      8  C   UNL     1       4.706   5.027  17.466  0.00  0.00    +0.000 C 
ENDROOT
BRANCH   2   9
ATOM      9  C   UNL     1       2.590   5.958  19.250  0.00  0.00    +0.000 A 
ATOM     10  N   UNL     1       2.714   6.306  20.553  0.00  0.00    +0.000 NA
ATOM     11  N   UNL     1       2.303   5.230  21.239  0.00  0.00    +0.000 N 
ATOM     12  C   UNL     1       1.799   4.257  20.442  0.00  0.00    +0.000 A 
ATOM     13  C   UNL     1       1.966   4.687  19.145  0.00  0.00    +0.000 A 
ATOM     14  C   UNL     1       1.559   3.868  17.972  0.00  0.00    +0.000 C 
ATOM     15  C   UNL     1       1.395   2.392  18.393  0.00  0.00    +0.000 C 
ATOM     16  C   UNL     1       0.566   2.262  19.689  0.00  0.00    +0.000 C 
ATOM     17  C   UNL     1       1.238   2.962  20.887  0.00  0.00    +0.000 C 
ATOM     18  H   UNL     1       2.407   5.233  22.249  0.00  0.00    +0.000 HD
ENDBRANCH   2   9
BRANCH   6  19
ATOM     19  C   UNL     1       7.117   5.261  15.283  0.00  0.00    +0.000 C 
BRANCH  19  20
ATOM     20  O   UNL     1       7.539   4.497  16.409  0.00  0.00    +0.000 OA
ATOM     21  H   UNL     1       8.197   5.004  16.911  0.00  0.00    +0.000 HD
ENDBRANCH  19  20
BRANCH  19  22
ATOM     22  C   UNL     1       7.929   4.804  14.064  0.00  0.00    +0.000 C 
BRANCH  22  23
ATOM     23  C   UNL     1       7.204   5.034  12.738  0.00  0.00    +0.000 C 
BRANCH  23  24
ATOM     24  C   UNL     1       6.739   3.720  12.170  0.00  0.00    +0.000 A 
ATOM     25  C   UNL     1       7.668   2.805  11.651  0.00  0.00    +0.000 A 
ATOM     26  C   UNL     1       7.232   1.624  11.053  0.00  0.00    +0.000 A 
ATOM     27  C   UNL     1       5.871   1.352  10.967  0.00  0.00    +0.000 A 
ATOM     28  C   UNL     1       4.939   2.254  11.486  0.00  0.00    +0.000 A 
ATOM     29  C   UNL     1       5.374   3.435  12.084  0.00  0.00    +0.000 A 
ENDBRANCH  23  24
ENDBRANCH  22  23
ENDBRANCH  19  22
ENDBRANCH   6  19
TORSDOF 6
ENDMDL
MODEL 7
REMARK VINA RESULT:      -7.7      4.729      7.541
REMARK  Name = 
REMARK  6 active torsions:
REMARK  status: ('A' for Active; 'I' for Inactive)
REMARK    1  A    between atoms: C_2  and  C_3
REMARK    2  A    between atoms: C_15  and  C_16
REMARK    3  A    between atoms: C_16  and  O_17
REMARK    4  A    between atoms: C_16  and  C_18
REMARK    5  A    between atoms: C_18  and  C_19
REMARK    6  A    between atoms: C_19  and  C_20
REMARK                            x       y       z     vdW  Elec       q    Type
REMARK                         _______ _______ _______ _____ _____    ______ ____
ROOT
ATOM      1  O   UNL     1       1.603   9.271  18.576  0.00  0.00    +0.000 OA
ATOM      2  C   UNL     1       1.549   8.620  19.623  0.00  0.00    +0.000 C 
ATOM      3  N   UNL     1       1.971   7.283  19.679  0.00  0.00    +0.000 N 
ATOM      4  C   UNL     1       2.761   6.727  18.583  0.00  0.00    +0.000 C 
ATOM      5  C   UNL     1       2.226   5.365  18.145  0.00  0.00    +0.000 C 
ATOM      6  C   UNL     1       2.012   4.378  19.309  0.00  0.00    +0.000 C 
ATOM      7  C   UNL     1       1.185   5.067  20.397  0.00  0.00    +0.000 C 
ATOM      8  C   UNL     1       1.759   6.405  20.827  0.00  0.00    +0.000 C 
ENDROOT
BRANCH   2   9
ATOM      9  C   UNL     1       0.971   9.216  20.847  0.00  0.00    +0.000 A 
ATOM     10  N   UNL     1       1.260   8.771  22.093  0.00  0.00    +0.000 NA
ATOM     11  N   UNL     1       0.458   9.472  22.906  0.00  0.00    +0.000 N 
ATOM     12  C   UNL     1      -0.237  10.438  22.256  0.00  0.00    +0.000 A 
ATOM     13  C   UNL     1       0.065  10.307  20.920  0.00  0.00    +0.000 A 
ATOM     14  C   UNL     1      -0.535  11.178  19.874  0.00  0.00    +0.000 C 
ATOM     15  C   UNL     1      -1.807  11.858  20.425  0.00  0.00    +0.000 C 
ATOM     16  C   UNL     1      -1.565  12.467  21.823  0.00  0.00    +0.000 C 
ATOM     17  C   UNL     1      -1.181  11.401  22.867  0.00  0.00    +0.000 C 
ATOM     18  H   UNL     1       0.435   9.227  23.890  0.00  0.00    +0.000 HD
ENDBRANCH   2   9
BRANCH   6  19
ATOM     19  C   UNL     1       3.325   3.728  19.816  0.00  0.00    +0.000 C 
BRANCH  19  20
ATOM     20  O   UNL     1       3.080   2.604  20.655  0.00  0.00    +0.000 OA
ATOM     21  H   UNL     1       2.701   1.885  20.123  0.00  0.00    +0.000 HD
ENDBRANCH  19  20
BRANCH  19  22
ATOM     22  C   UNL     1       4.288   3.295  18.704  0.00  0.00    +0.000 C 
BRANCH  22  23
ATOM     23  C   UNL     1       5.503   4.212  18.569  0.00  0.00    +0.000 C 
BRANCH  23  24
ATOM     24  C   UNL     1       5.887   4.350  17.120  0.00  0.00    +0.000 A 
ATOM     25  C   UNL     1       7.182   4.758  16.766  0.00  0.00    +0.000 A 
ATOM     26  C   UNL     1       7.514   4.962  15.428  0.00  0.00    +0.000 A 
ATOM     27  C   UNL     1       6.556   4.764  14.438  0.00  0.00    +0.000 A 
ATOM     28  C   UNL     1       5.266   4.352  14.780  0.00  0.00    +0.000 A 
ATOM     29  C   UNL     1       4.934   4.148  16.118  0.00  0.00    +0.000 A 
ENDBRANCH  23  24
ENDBRANCH  22  23
ENDBRANCH  19  22
ENDBRANCH   6  19
TORSDOF 6
ENDMDL
MODEL 8
REMARK VINA RESULT:      -7.6      7.202      8.220
REMARK  Name = 
REMARK  6 active torsions:
REMARK  status: ('A' for Active; 'I' for Inactive)
REMARK    1  A    between atoms: C_2  and  C_3
REMARK    2  A    between atoms: C_15  and  C_16
REMARK    3  A    between atoms: C_16  and  O_17
REMARK    4  A    between atoms: C_16  and  C_18
REMARK    5  A    between atoms: C_18  and  C_19
REMARK    6  A    between atoms: C_19  and  C_20
REMARK                            x       y       z     vdW  Elec       q    Type
REMARK                         _______ _______ _______ _____ _____    ______ ____
ROOT
ATOM      1  O   UNL     1       1.622   7.970  21.640  0.00  0.00    +0.000 OA
ATOM      2  C   UNL     1       1.621   8.196  20.428  0.00  0.00    +0.000 C 
ATOM      3  N   UNL     1       1.021   9.349  19.896  0.00  0.00    +0.000 N 
ATOM      4  C   UNL     1       0.655  10.449  20.785  0.00  0.00    +0.000 C 
ATOM      5  C   UNL     1      -0.762  10.944  20.503  0.00  0.00    +0.000 C 
ATOM      6  C   UNL     1      -1.030  11.242  19.015  0.00  0.00    +0.000 C 
ATOM      7  C   UNL     1      -0.603  10.032  18.182  0.00  0.00    +0.000 C 
ATOM      8  C   UNL     1       0.819   9.583  18.469  0.00  0.00    +0.000 C 
ENDROOT
BRANCH   2   9
ATOM      9  C   UNL     1       2.200   7.218  19.481  0.00  0.00    +0.000 A 
ATOM     10  N   UNL     1       2.989   7.575  18.440  0.00  0.00    +0.000 NA
ATOM     11  N   UNL     1       3.203   6.438  17.763  0.00  0.00    +0.000 N 
ATOM     12  C   UNL     1       2.699   5.347  18.390  0.00  0.00    +0.000 A 
ATOM     13  C   UNL     1       2.040   5.807  19.508  0.00  0.00    +0.000 A 
ATOM     14  C   UNL     1       1.324   4.901  20.444  0.00  0.00    +0.000 C 
ATOM     15  C   UNL     1       1.044   3.548  19.753  0.00  0.00    +0.000 C 
ATOM     16  C   UNL     1       2.300   3.005  19.040  0.00  0.00    +0.000 C 
ATOM     17  C   UNL     1       2.792   3.946  17.923  0.00  0.00    +0.000 C 
ATOM     18  H   UNL     1       3.694   6.490  16.876  0.00  0.00    +0.000 HD
ENDBRANCH   2   9
BRANCH   6  19
ATOM     19  C   UNL     1      -0.436  12.592  18.539  0.00  0.00    +0.000 C 
BRANCH  19  20
ATOM     20  O   UNL     1      -0.969  13.003  17.284  0.00  0.00    +0.000 OA
ATOM     21  H   UNL     1      -1.676  13.651  17.434  0.00  0.00    +0.000 HD
ENDBRANCH  19  20
BRANCH  19  22
ATOM     22  C   UNL     1      -0.609  13.748  19.533  0.00  0.00    +0.000 C 
BRANCH  22  23
ATOM     23  C   UNL     1       0.675  14.546  19.757  0.00  0.00    +0.000 C 
BRANCH  23  24
ATOM     24  C   UNL     1       0.703  15.743  18.846  0.00  0.00    +0.000 A 
ATOM     25  C   UNL     1       1.925  16.245  18.372  0.00  0.00    +0.000 A 
ATOM     26  C   UNL     1       1.957  17.400  17.594  0.00  0.00    +0.000 A 
ATOM     27  C   UNL     1       0.773  18.062  17.288  0.00  0.00    +0.000 A 
ATOM     28  C   UNL     1      -0.449  17.568  17.750  0.00  0.00    +0.000 A 
ATOM     29  C   UNL     1      -0.481  16.413  18.528  0.00  0.00    +0.000 A 
ENDBRANCH  23  24
ENDBRANCH  22  23
ENDBRANCH  19  22
ENDBRANCH   6  19
TORSDOF 6
ENDMDL
MODEL 9
REMARK VINA RESULT:      -7.5      5.426      6.639
REMARK  Name = 
REMARK  6 active torsions:
REMARK  status: ('A' for Active; 'I' for Inactive)
REMARK    1  A    between atoms: C_2  and  C_3
REMARK    2  A    between atoms: C_15  and  C_16
REMARK    3  A    between atoms: C_16  and  O_17
REMARK    4  A    between atoms: C_16  and  C_18
REMARK    5  A    between atoms: C_18  and  C_19
REMARK    6  A    between atoms: C_19  and  C_20
REMARK                            x       y       z     vdW  Elec       q    Type
REMARK                         _______ _______ _______ _____ _____    ______ ____
ROOT
ATOM      1  O   UNL     1       1.969   5.568  20.710  0.00  0.00    +0.000 OA
ATOM      2  C   UNL     1       2.302   6.079  19.637  0.00  0.00    +0.000 C 
ATOM      3  N   UNL     1       2.116   7.447  19.387  0.00  0.00    +0.000 N 
ATOM      4  C   UNL     1       1.807   8.350  20.493  0.00  0.00    +0.000 C 
ATOM      5  C   UNL     1       0.643   9.276  20.147  0.00  0.00    +0.000 C 
ATOM      6  C   UNL     1       0.804   9.997  18.794  0.00  0.00    +0.000 C 
ATOM      7  C   UNL     1       1.133   8.960  17.718  0.00  0.00    +0.000 C 
ATOM      8  C   UNL     1       2.311   8.075  18.082  0.00  0.00    +0.000 C 
ENDROOT
BRANCH   2   9
ATOM      9  C   UNL     1       2.853   5.244  18.548  0.00  0.00    +0.000 A 
ATOM     10  N   UNL     1       2.085   4.444  17.769  0.00  0.00    +0.000 NA
ATOM     11  N   UNL     1       2.954   3.773  17.000  0.00  0.00    +0.000 N 
ATOM     12  C   UNL     1       4.232   4.197  17.156  0.00  0.00    +0.000 A 
ATOM     13  C   UNL     1       4.212   5.149  18.149  0.00  0.00    +0.000 A 
ATOM     14  C   UNL     1       5.444   5.831  18.629  0.00  0.00    +0.000 C 
ATOM     15  C   UNL     1       6.689   5.016  18.218  0.00  0.00    +0.000 C 
ATOM     16  C   UNL     1       6.627   4.594  16.735  0.00  0.00    +0.000 C 
ATOM     17  C   UNL     1       5.420   3.684  16.435  0.00  0.00    +0.000 C 
ATOM     18  H   UNL     1       2.599   3.034  16.402  0.00  0.00    +0.000 HD
ENDBRANCH   2   9
BRANCH   6  19
ATOM     19  C   UNL     1       1.780  11.200  18.848  0.00  0.00    +0.000 C 
BRANCH  19  20
ATOM     20  O   UNL     1       2.296  11.532  17.563  0.00  0.00    +0.000 OA
ATOM     21  H   UNL     1       2.471  12.487  17.526  0.00  0.00    +0.000 HD
ENDBRANCH  19  20
BRANCH  19  22
ATOM     22  C   UNL     1       1.186  12.471  19.468  0.00  0.00    +0.000 C 
BRANCH  22  23
ATOM     23  C   UNL     1       2.233  13.358  20.140  0.00  0.00    +0.000 C 
BRANCH  23  24
ATOM     24  C   UNL     1       2.548  14.539  19.261  0.00  0.00    +0.000 A 
ATOM     25  C   UNL     1       1.630  15.593  19.136  0.00  0.00    +0.000 A 
ATOM     26  C   UNL     1       1.885  16.648  18.262  0.00  0.00    +0.000 A 
ATOM     27  C   UNL     1       3.054  16.656  17.508  0.00  0.00    +0.000 A 
ATOM     28  C   UNL     1       3.977  15.614  17.629  0.00  0.00    +0.000 A 
ATOM     29  C   UNL     1       3.722  14.559  18.503  0.00  0.00    +0.000 A 
ENDBRANCH  23  24
ENDBRANCH  22  23
ENDBRANCH  19  22
ENDBRANCH   6  19
TORSDOF 6
ENDMDL
