MODEL 1
REMARK VINA RESULT:      -7.0      0.000      0.000
REMARK  Name = 
REMARK  10 active torsions:
REMARK  status: ('A' for Active; 'I' for Inactive)
REMARK    1  A    between atoms: C_1  and  C_2
REMARK    2  A    between atoms: C_2  and  C_3
REMARK    3  A    between atoms: C_2  and  C_4
REMARK    4  A    between atoms: C_2  and  C_5
REMARK    5  A    between atoms: C_5  and  C_7
REMARK    6  A    between atoms: C_7  and  O_8
REMARK    7  A    between atoms: O_8  and  C_9
REMARK    8  A    between atoms: C_9  and  C_11
REMARK    9  A    between atoms: C_15  and  N_16
REMARK   10  A    between atoms: C_17  and  C_19
REMARK                            x       y       z     vdW  Elec       q    Type
REMARK                         _______ _______ _______ _____ _____    ______ ____
ROOT
ATOM      1  C   UNL     1       5.822   5.306  17.852  0.00  0.00    +0.000 A 
ATOM      2  C   UNL     1       5.310   6.598  17.675  0.00  0.00    +0.000 A 
ATOM      3  C   UNL     1       4.903   7.019  16.416  0.00  0.00    +0.000 A 
ATOM      4  C   UNL     1       5.029   6.165  15.323  0.00  0.00    +0.000 A 
ATOM      5  C   UNL     1       5.572   4.883  15.462  0.00  0.00    +0.000 A 
ATOM      6  C   UNL     1       5.952   4.449  16.742  0.00  0.00    +0.000 A 
ENDROOT
BRANCH   5   7
ATOM      7  N   UNL     1       5.736   4.006  14.366  0.00  0.00    +0.000 N 
ATOM      8  C   UNL     1       6.607   4.178  13.297  0.00  0.00    +0.000 C 
ATOM      9  O   UNL     1       7.398   5.110  13.174  0.00  0.00    +0.000 OA
ATOM     10  H   UNL     1       5.224   3.130  14.373  0.00  0.00    +0.000 HD
BRANCH   8  11
ATOM     11  C   UNL     1       6.549   3.124  12.301  0.00  0.00    +0.000 A 
ATOM     12  C   UNL     1       7.550   2.606  11.500  0.00  0.00    +0.000 A 
ATOM     13  C   UNL     1       6.959   1.591  10.716  0.00  0.00    +0.000 A 
ATOM     14  C   UNL     1       5.632   1.554  11.079  0.00  0.00    +0.000 A 
ATOM     15  O   UNL     1       5.370   2.477  12.042  0.00  0.00    +0.000 OA
ENDBRANCH   8  11
ENDBRANCH   5   7
BRANCH   1  16
ATOM     16  C   UNL     1       6.152   4.795  19.215  0.00  0.00    +0.000 C 
ATOM     17  O   UNL     1       6.889   5.368  19.999  0.00  0.00    +0.000 OA
BRANCH  16  18
ATOM     18  O   UNL     1       5.636   3.550  19.361  0.00  0.00    +0.000 OA
BRANCH  18  19
ATOM     19  C   UNL     1       4.394   3.446  20.051  0.00  0.00    +0.000 C 
BRANCH  19  20
ATOM     20  C   UNL     1       3.201   3.024  19.185  0.00  0.00    +0.000 C 
ATOM     21  O   UNL     1       3.190   1.945  18.589  0.00  0.00    +0.000 OA
BRANCH  20  23
ATOM     22  C   UNL     1       1.700   4.371  17.659  0.00  0.00    +0.000 C 
ATOM     23  C   UNL     1       1.999   4.003  19.121  0.00  0.00    +0.000 C 
ATOM     24  C   UNL     1       2.329   5.288  19.891  0.00  0.00    +0.000 C 
ATOM     25  C   UNL     1       0.747   3.345  19.720  0.00  0.00    +0.000 C 
ENDBRANCH  20  23
ENDBRANCH  19  20
ENDBRANCH  18  19
ENDBRANCH  16  18
ENDBRANCH   1  16
TORSDOF 7
ENDMDL
MODEL 2
REMARK VINA RESULT:      -7.0      1.628      2.275
REMARK  Name = 
REMARK  10 active torsions:
REMARK  status: ('A' for Active; 'I' for Inactive)
REMARK    1  A    between atoms: C_1  and  C_2
REMARK    2  A    between atoms: C_2  and  C_3
REMARK    3  A    between atoms: C_2  and  C_4
REMARK    4  A    between atoms: C_2  and  C_5
REMARK    5  A    between atoms: C_5  and  C_7
REMARK    6  A    between atoms: C_7  and  O_8
REMARK    7  A    between atoms: O_8  and  C_9
REMARK    8  A    between atoms: C_9  and  C_11
REMARK    9  A    between atoms: C_15  and  N_16
REMARK   10  A    between atoms: C_17  and  C_19
REMARK                            x       y       z     vdW  Elec       q    Type
REMARK                         _______ _______ _______ _____ _____    ______ ____
ROOT
ATOM      1  C   UNL     1       5.057   5.750  18.068  0.00  0.00    +0.000 A 
ATOM      2  C   UNL     1       6.260   5.749  18.785  0.00  0.00    +0.000 A 
ATOM      3  C   UNL     1       7.392   5.151  18.245  0.00  0.00    +0.000 A 
ATOM      4  C   UNL     1       7.323   4.529  17.001  0.00  0.00    +0.000 A 
ATOM      5  C   UNL     1       6.125   4.482  16.278  0.00  0.00    +0.000 A 
ATOM      6  C   UNL     1       4.993   5.115  16.812  0.00  0.00    +0.000 A 
ENDROOT
BRANCH   5   7
ATOM      7  N   UNL     1       6.021   3.834  15.026  0.00  0.00    +0.000 N 
ATOM      8  C   UNL     1       6.554   4.279  13.823  0.00  0.00    +0.000 C 
ATOM      9  O   UNL     1       7.234   5.293  13.684  0.00  0.00    +0.000 OA
ATOM     10  H   UNL     1       5.575   2.923  14.994  0.00  0.00    +0.000 HD
BRANCH   8  11
ATOM     11  C   UNL     1       6.275   3.417  12.689  0.00  0.00    +0.000 A 
ATOM     12  C   UNL     1       7.140   2.686  11.897  0.00  0.00    +0.000 A 
ATOM     13  C   UNL     1       6.348   2.016  10.939  0.00  0.00    +0.000 A 
ATOM     14  C   UNL     1       5.047   2.383  11.197  0.00  0.00    +0.000 A 
ATOM     15  O   UNL     1       4.988   3.232  12.258  0.00  0.00    +0.000 OA
ENDBRANCH   8  11
ENDBRANCH   5   7
BRANCH   1  16
ATOM     16  C   UNL     1       3.864   6.490  18.577  0.00  0.00    +0.000 C 
ATOM     17  O   UNL     1       3.410   7.494  18.056  0.00  0.00    +0.000 OA
BRANCH  16  18
ATOM     18  O   UNL     1       3.487   5.961  19.766  0.00  0.00    +0.000 OA
BRANCH  18  19
ATOM     19  C   UNL     1       2.101   5.675  19.932  0.00  0.00    +0.000 C 
BRANCH  19  20
ATOM     20  C   UNL     1       1.761   4.191  20.120  0.00  0.00    +0.000 C 
ATOM     21  O   UNL     1       1.471   3.735  21.228  0.00  0.00    +0.000 OA
BRANCH  20  23
ATOM     22  C   UNL     1       0.677   2.223  18.957  0.00  0.00    +0.000 C 
ATOM     23  C   UNL     1       1.767   3.303  18.849  0.00  0.00    +0.000 C 
ATOM     24  C   UNL     1       3.128   2.609  18.701  0.00  0.00    +0.000 C 
ATOM     25  C   UNL     1       1.480   4.156  17.604  0.00  0.00    +0.000 C 
ENDBRANCH  20  23
ENDBRANCH  19  20
ENDBRANCH  18  19
ENDBRANCH  16  18
ENDBRANCH   1  16
TORSDOF 7
ENDMDL
MODEL 3
REMARK VINA RESULT:      -6.8      3.005      5.914
REMARK  Name = 
REMARK  10 active torsions:
REMARK  status: ('A' for Active; 'I' for Inactive)
REMARK    1  A    between atoms: C_1  and  C_2
REMARK    2  A    between atoms: C_2  and  C_3
REMARK    3  A    between atoms: C_2  and  C_4
REMARK    4  A    between atoms: C_2  and  C_5
REMARK    5  A    between atoms: C_5  and  C_7
REMARK    6  A    between atoms: C_7  and  O_8
REMARK    7  A    between atoms: O_8  and  C_9
REMARK    8  A    between atoms: C_9  and  C_11
REMARK    9  A    between atoms: C_15  and  N_16
REMARK   10  A    between atoms: C_17  and  C_19
REMARK                            x       y       z     vdW  Elec       q    Type
REMARK                         _______ _______ _______ _____ _____    ______ ____
ROOT
ATOM      1  C   UNL     1       4.662   4.618  16.461  0.00  0.00    +0.000 A 
ATOM      2  C   UNL     1       5.310   3.784  15.542  0.00  0.00    +0.000 A 
ATOM      3  C   UNL     1       6.587   4.100  15.095  0.00  0.00    +0.000 A 
ATOM      4  C   UNL     1       7.212   5.262  15.542  0.00  0.00    +0.000 A 
ATOM      5  C   UNL     1       6.573   6.134  16.431  0.00  0.00    +0.000 A 
ATOM      6  C   UNL     1       5.297   5.794  16.905  0.00  0.00    +0.000 A 
ENDROOT
BRANCH   5   7
ATOM      7  N   UNL     1       7.174   7.332  16.880  0.00  0.00    +0.000 N 
ATOM      8  C   UNL     1       7.885   7.505  18.060  0.00  0.00    +0.000 C 
ATOM      9  O   UNL     1       8.128   6.618  18.874  0.00  0.00    +0.000 OA
ATOM     10  H   UNL     1       7.150   8.138  16.263  0.00  0.00    +0.000 HD
BRANCH   8  11
ATOM     11  C   UNL     1       8.375   8.855  18.273  0.00  0.00    +0.000 A 
ATOM     12  C   UNL     1       8.171   9.999  17.524  0.00  0.00    +0.000 A 
ATOM     13  C   UNL     1       8.865  11.041  18.177  0.00  0.00    +0.000 A 
ATOM     14  C   UNL     1       9.457  10.471  19.281  0.00  0.00    +0.000 A 
ATOM     15  O   UNL     1       9.165   9.145  19.353  0.00  0.00    +0.000 OA
ENDBRANCH   8  11
ENDBRANCH   5   7
BRANCH   1  16
ATOM     16  C   UNL     1       3.342   4.233  17.043  0.00  0.00    +0.000 C 
ATOM     17  O   UNL     1       2.705   3.252  16.700  0.00  0.00    +0.000 OA
BRANCH  16  18
ATOM     18  O   UNL     1       2.918   5.217  17.874  0.00  0.00    +0.000 OA
BRANCH  18  19
ATOM     19  C   UNL     1       1.755   4.945  18.650  0.00  0.00    +0.000 C 
BRANCH  19  20
ATOM     20  C   UNL     1       2.024   4.551  20.108  0.00  0.00    +0.000 C 
ATOM     21  O   UNL     1       2.132   5.402  20.994  0.00  0.00    +0.000 OA
BRANCH  20  23
ATOM     22  C   UNL     1       1.213   2.244  19.461  0.00  0.00    +0.000 C 
ATOM     23  C   UNL     1       2.120   3.035  20.419  0.00  0.00    +0.000 C 
ATOM     24  C   UNL     1       1.663   2.764  21.858  0.00  0.00    +0.000 C 
ATOM     25  C   UNL     1       3.564   2.545  20.231  0.00  0.00    +0.000 C 
ENDBRANCH  20  23
ENDBRANCH  19  20
ENDBRANCH  18  19
ENDBRANCH  16  18
ENDBRANCH   1  16
TORSDOF 7
ENDMDL
MODEL 4
REMARK VINA RESULT:      -6.8      1.718      2.338
REMARK  Name = 
REMARK  10 active torsions:
REMARK  status: ('A' for Active; 'I' for Inactive)
REMARK    1  A    between atoms: C_1  and  C_2
REMARK    2  A    between atoms: C_2  and  C_3
REMARK    3  A    between atoms: C_2  and  C_4
REMARK    4  A    between atoms: C_2  and  C_5
REMARK    5  A    between atoms: C_5  and  C_7
REMARK    6  A    between atoms: C_7  and  O_8
REMARK    7  A    between atoms: O_8  and  C_9
REMARK    8  A    between atoms: C_9  and  C_11
REMARK    9  A    between atoms: C_15  and  N_16
REMARK   10  A    between atoms: C_17  and  C_19
REMARK                            x       y       z     vdW  Elec       q    Type
REMARK                         _______ _______ _______ _____ _____    ______ ____
ROOT
ATOM      1  C   UNL     1       4.789   5.781  18.073  0.00  0.00    +0.000 A 
ATOM      2  C   UNL     1       5.965   5.759  18.834  0.00  0.00    +0.000 A 
ATOM      3  C   UNL     1       7.106   5.147  18.333  0.00  0.00    +0.000 A 
ATOM      4  C   UNL     1       7.074   4.531  17.083  0.00  0.00    +0.000 A 
ATOM      5  C   UNL     1       5.903   4.505  16.318  0.00  0.00    +0.000 A 
ATOM      6  C   UNL     1       4.761   5.153  16.813  0.00  0.00    +0.000 A 
ENDROOT
BRANCH   5   7
ATOM      7  N   UNL     1       5.835   3.865  15.059  0.00  0.00    +0.000 N 
ATOM      8  C   UNL     1       6.461   4.279  13.890  0.00  0.00    +0.000 C 
ATOM      9  O   UNL     1       7.205   5.252  13.794  0.00  0.00    +0.000 OA
ATOM     10  H   UNL     1       5.340   2.981  14.998  0.00  0.00    +0.000 HD
BRANCH   8  11
ATOM     11  C   UNL     1       6.199   3.435  12.739  0.00  0.00    +0.000 A 
ATOM     12  C   UNL     1       7.080   2.737  11.933  0.00  0.00    +0.000 A 
ATOM     13  C   UNL     1       6.302   2.071  10.961  0.00  0.00    +0.000 A 
ATOM     14  C   UNL     1       4.993   2.407  11.226  0.00  0.00    +0.000 A 
ATOM     15  O   UNL     1       4.917   3.232  12.304  0.00  0.00    +0.000 OA
ENDBRANCH   8  11
ENDBRANCH   5   7
BRANCH   1  16
ATOM     16  C   UNL     1       3.590   6.537  18.542  0.00  0.00    +0.000 C 
ATOM     17  O   UNL     1       3.069   7.445  17.919  0.00  0.00    +0.000 OA
BRANCH  16  18
ATOM     18  O   UNL     1       3.291   6.156  19.808  0.00  0.00    +0.000 OA
BRANCH  18  19
ATOM     19  C   UNL     1       2.026   5.532  20.010  0.00  0.00    +0.000 C 
BRANCH  19  20
ATOM     20  C   UNL     1       1.787   4.262  19.184  0.00  0.00    +0.000 C 
ATOM     21  O   UNL     1       1.352   4.319  18.031  0.00  0.00    +0.000 OA
BRANCH  20  23
ATOM     22  C   UNL     1       1.587   2.868  21.285  0.00  0.00    +0.000 C 
ATOM     23  C   UNL     1       2.148   2.911  19.854  0.00  0.00    +0.000 C 
ATOM     24  C   UNL     1       3.672   2.751  19.922  0.00  0.00    +0.000 C 
ATOM     25  C   UNL     1       1.538   1.746  19.060  0.00  0.00    +0.000 C 
ENDBRANCH  20  23
ENDBRANCH  19  20
ENDBRANCH  18  19
ENDBRANCH  16  18
ENDBRANCH   1  16
TORSDOF 7
ENDMDL
MODEL 5
REMARK VINA RESULT:      -6.8      1.503      2.229
REMARK  Name = 
REMARK  10 active torsions:
REMARK  status: ('A' for Active; 'I' for Inactive)
REMARK    1  A    between atoms: C_1  and  C_2
REMARK    2  A    between atoms: C_2  and  C_3
REMARK    3  A    between atoms: C_2  and  C_4
REMARK    4  A    between atoms: C_2  and  C_5
REMARK    5  A    between atoms: C_5  and  C_7
REMARK    6  A    between atoms: C_7  and  O_8
REMARK    7  A    between atoms: O_8  and  C_9
REMARK    8  A    between atoms: C_9  and  C_11
REMARK    9  A    between atoms: C_15  and  N_16
REMARK   10  A    between atoms: C_17  and  C_19
REMARK                            x       y       z     vdW  Elec       q    Type
REMARK                         _______ _______ _______ _____ _____    ______ ____
ROOT
ATOM      1  C   UNL     1       5.206   5.378  18.169  0.00  0.00    +0.000 A 
ATOM      2  C   UNL     1       6.434   5.532  18.824  0.00  0.00    +0.000 A 
ATOM      3  C   UNL     1       7.607   5.108  18.213  0.00  0.00    +0.000 A 
ATOM      4  C   UNL     1       7.559   4.505  16.958  0.00  0.00    +0.000 A 
ATOM      5  C   UNL     1       6.342   4.303  16.296  0.00  0.00    +0.000 A 
ATOM      6  C   UNL     1       5.163   4.762  16.903  0.00  0.00    +0.000 A 
ENDROOT
BRANCH   5   7
ATOM      7  N   UNL     1       6.262   3.670  15.035  0.00  0.00    +0.000 N 
ATOM      8  C   UNL     1       6.646   4.212  13.816  0.00  0.00    +0.000 C 
ATOM      9  O   UNL     1       7.153   5.321  13.665  0.00  0.00    +0.000 OA
ATOM     10  H   UNL     1       5.959   2.701  15.005  0.00  0.00    +0.000 HD
BRANCH   8  11
ATOM     11  C   UNL     1       6.432   3.338  12.677  0.00  0.00    +0.000 A 
ATOM     12  C   UNL     1       7.350   2.759  11.820  0.00  0.00    +0.000 A 
ATOM     13  C   UNL     1       6.612   1.994  10.890  0.00  0.00    +0.000 A 
ATOM     14  C   UNL     1       5.288   2.157  11.229  0.00  0.00    +0.000 A 
ATOM     15  O   UNL     1       5.165   2.968  12.313  0.00  0.00    +0.000 OA
ENDBRANCH   8  11
ENDBRANCH   5   7
BRANCH   1  16
ATOM     16  C   UNL     1       3.951   5.934  18.756  0.00  0.00    +0.000 C 
ATOM     17  O   UNL     1       3.775   6.109  19.950  0.00  0.00    +0.000 OA
BRANCH  16  18
ATOM     18  O   UNL     1       3.019   6.056  17.780  0.00  0.00    +0.000 OA
BRANCH  18  19
ATOM     19  C   UNL     1       1.766   5.417  18.005  0.00  0.00    +0.000 C 
BRANCH  19  20
ATOM     20  C   UNL     1       1.796   3.885  17.941  0.00  0.00    +0.000 C 
ATOM     21  O   UNL     1       2.042   3.291  16.888  0.00  0.00    +0.000 OA
BRANCH  20  23
ATOM     22  C   UNL     1       2.852   2.525  19.794  0.00  0.00    +0.000 C 
ATOM     23  C   UNL     1       1.537   3.122  19.266  0.00  0.00    +0.000 C 
ATOM     24  C   UNL     1       0.543   1.978  19.025  0.00  0.00    +0.000 C 
ATOM     25  C   UNL     1       0.980   4.080  20.329  0.00  0.00    +0.000 C 
ENDBRANCH  20  23
ENDBRANCH  19  20
ENDBRANCH  18  19
ENDBRANCH  16  18
ENDBRANCH   1  16
TORSDOF 7
ENDMDL
MODEL 6
REMARK VINA RESULT:      -6.8      0.889      1.140
REMARK  Name = 
REMARK  10 active torsions:
REMARK  status: ('A' for Active; 'I' for Inactive)
REMARK    1  A    between atoms: C_1  and  C_2
REMARK    2  A    between atoms: C_2  and  C_3
REMARK    3  A    between atoms: C_2  and  C_4
REMARK    4  A    between atoms: C_2  and  C_5
REMARK    5  A    between atoms: C_5  and  C_7
REMARK    6  A    between atoms: C_7  and  O_8
REMARK    7  A    between atoms: O_8  and  C_9
REMARK    8  A    between atoms: C_9  and  C_11
REMARK    9  A    between atoms: C_15  and  N_16
REMARK   10  A    between atoms: C_17  and  C_19
REMARK                            x       y       z     vdW  Elec       q    Type
REMARK                         _______ _______ _______ _____ _____    ______ ____
ROOT
ATOM      1  C   UNL     1       5.885   5.522  17.871  0.00  0.00    +0.000 A 
ATOM      2  C   UNL     1       5.389   6.817  17.677  0.00  0.00    +0.000 A 
ATOM      3  C   UNL     1       4.965   7.220  16.417  0.00  0.00    +0.000 A 
ATOM      4  C   UNL     1       5.059   6.342  15.339  0.00  0.00    +0.000 A 
ATOM      5  C   UNL     1       5.586   5.055  15.495  0.00  0.00    +0.000 A 
ATOM      6  C   UNL     1       5.983   4.642  16.775  0.00  0.00    +0.000 A 
ENDROOT
BRANCH   5   7
ATOM      7  N   UNL     1       5.718   4.155  14.413  0.00  0.00    +0.000 N 
ATOM      8  C   UNL     1       6.601   4.272  13.347  0.00  0.00    +0.000 C 
ATOM      9  O   UNL     1       7.432   5.167  13.214  0.00  0.00    +0.000 OA
ATOM     10  H   UNL     1       5.169   3.301  14.432  0.00  0.00    +0.000 HD
BRANCH   8  11
ATOM     11  C   UNL     1       6.503   3.205  12.368  0.00  0.00    +0.000 A 
ATOM     12  C   UNL     1       5.398   2.494  11.939  0.00  0.00    +0.000 A 
ATOM     13  C   UNL     1       5.855   1.576  10.969  0.00  0.00    +0.000 A 
ATOM     14  C   UNL     1       7.213   1.775  10.867  0.00  0.00    +0.000 A 
ATOM     15  O   UNL     1       7.620   2.763  11.709  0.00  0.00    +0.000 OA
ENDBRANCH   8  11
ENDBRANCH   5   7
BRANCH   1  16
ATOM     16  C   UNL     1       6.232   5.033  19.238  0.00  0.00    +0.000 C 
ATOM     17  O   UNL     1       7.199   5.415  19.874  0.00  0.00    +0.000 OA
BRANCH  16  18
ATOM     18  O   UNL     1       5.405   4.011  19.568  0.00  0.00    +0.000 OA
BRANCH  18  19
ATOM     19  C   UNL     1       4.046   4.344  19.832  0.00  0.00    +0.000 C 
BRANCH  19  20
ATOM     20  C   UNL     1       3.018   3.309  19.357  0.00  0.00    +0.000 C 
ATOM     21  O   UNL     1       3.277   2.518  18.447  0.00  0.00    +0.000 OA
BRANCH  20  23
ATOM     22  C   UNL     1       0.599   2.584  19.224  0.00  0.00    +0.000 C 
ATOM     23  C   UNL     1       1.655   3.283  20.096  0.00  0.00    +0.000 C 
ATOM     24  C   UNL     1       1.185   4.716  20.377  0.00  0.00    +0.000 C 
ATOM     25  C   UNL     1       1.782   2.509  21.416  0.00  0.00    +0.000 C 
ENDBRANCH  20  23
ENDBRANCH  19  20
ENDBRANCH  18  19
ENDBRANCH  16  18
ENDBRANCH   1  16
TORSDOF 7
ENDMDL
MODEL 7
REMARK VINA RESULT:      -6.8      1.003      1.331
REMARK  Name = 
REMARK  10 active torsions:
REMARK  status: ('A' for Active; 'I' for Inactive)
REMARK    1  A    between atoms: C_1  and  C_2
REMARK    2  A    between atoms: C_2  and  C_3
REMARK    3  A    between atoms: C_2  and  C_4
REMARK    4  A    between atoms: C_2  and  C_5
REMARK    5  A    between atoms: C_5  and  C_7
REMARK    6  A    between atoms: C_7  and  O_8
REMARK    7  A    between atoms: O_8  and  C_9
REMARK    8  A    between atoms: C_9  and  C_11
REMARK    9  A    between atoms: C_15  and  N_16
REMARK   10  A    between atoms: C_17  and  C_19
REMARK                            x       y       z     vdW  Elec       q    Type
REMARK                         _______ _______ _______ _____ _____    ______ ____
ROOT
ATOM      1  C   UNL     1       5.635   5.194  17.755  0.00  0.00    +0.000 A 
ATOM      2  C   UNL     1       5.258   6.529  17.560  0.00  0.00    +0.000 A 
ATOM      3  C   UNL     1       4.975   6.993  16.282  0.00  0.00    +0.000 A 
ATOM      4  C   UNL     1       5.092   6.136  15.190  0.00  0.00    +0.000 A 
ATOM      5  C   UNL     1       5.502   4.808  15.350  0.00  0.00    +0.000 A 
ATOM      6  C   UNL     1       5.756   4.335  16.646  0.00  0.00    +0.000 A 
ENDROOT
BRANCH   5   7
ATOM      7  N   UNL     1       5.654   3.926  14.257  0.00  0.00    +0.000 N 
ATOM      8  C   UNL     1       6.540   4.073  13.197  0.00  0.00    +0.000 C 
ATOM      9  O   UNL     1       7.356   4.984  13.080  0.00  0.00    +0.000 OA
ATOM     10  H   UNL     1       5.121   3.062  14.261  0.00  0.00    +0.000 HD
BRANCH   8  11
ATOM     11  C   UNL     1       6.466   3.018  12.202  0.00  0.00    +0.000 A 
ATOM     12  C   UNL     1       5.373   2.303  11.750  0.00  0.00    +0.000 A 
ATOM     13  C   UNL     1       5.851   1.402  10.773  0.00  0.00    +0.000 A 
ATOM     14  C   UNL     1       7.209   1.616  10.692  0.00  0.00    +0.000 A 
ATOM     15  O   UNL     1       7.594   2.596  11.552  0.00  0.00    +0.000 OA
ENDBRANCH   8  11
ENDBRANCH   5   7
BRANCH   1  16
ATOM     16  C   UNL     1       5.826   4.647  19.131  0.00  0.00    +0.000 C 
ATOM     17  O   UNL     1       6.422   5.230  20.021  0.00  0.00    +0.000 OA
BRANCH  16  18
ATOM     18  O   UNL     1       5.377   3.369  19.169  0.00  0.00    +0.000 OA
BRANCH  18  19
ATOM     19  C   UNL     1       4.341   3.079  20.102  0.00  0.00    +0.000 C 
BRANCH  19  20
ATOM     20  C   UNL     1       3.008   3.790  19.835  0.00  0.00    +0.000 C 
ATOM     21  O   UNL     1       2.650   4.757  20.512  0.00  0.00    +0.000 OA
BRANCH  20  23
ATOM     22  C   UNL     1       2.829   2.027  18.030  0.00  0.00    +0.000 C 
ATOM     23  C   UNL     1       2.151   3.256  18.658  0.00  0.00    +0.000 C 
ATOM     24  C   UNL     1       2.009   4.339  17.580  0.00  0.00    +0.000 C 
ATOM     25  C   UNL     1       0.762   2.837  19.160  0.00  0.00    +0.000 C 
ENDBRANCH  20  23
ENDBRANCH  19  20
ENDBRANCH  18  19
ENDBRANCH  16  18
ENDBRANCH   1  16
TORSDOF 7
ENDMDL
MODEL 8
REMARK VINA RESULT:      -6.7      0.793      1.128
REMARK  Name = 
REMARK  10 active torsions:
REMARK  status: ('A' for Active; 'I' for Inactive)
REMARK    1  A    between atoms: C_1  and  C_2
REMARK    2  A    between atoms: C_2  and  C_3
REMARK    3  A    between atoms: C_2  and  C_4
REMARK    4  A    between atoms: C_2  and  C_5
REMARK    5  A    between atoms: C_5  and  C_7
REMARK    6  A    between atoms: C_7  and  O_8
REMARK    7  A    between atoms: O_8  and  C_9
REMARK    8  A    between atoms: C_9  and  C_11
REMARK    9  A    between atoms: C_15  and  N_16
REMARK   10  A    between atoms: C_17  and  C_19
REMARK                            x       y       z     vdW  Elec       q    Type
REMARK                         _______ _______ _______ _____ _____    ______ ____
ROOT
ATOM      1  C   UNL     1       6.175   5.476  17.673  0.00  0.00    +0.000 A 
ATOM      2  C   UNL     1       5.551   6.716  17.485  0.00  0.00    +0.000 A 
ATOM      3  C   UNL     1       4.991   7.035  16.255  0.00  0.00    +0.000 A 
ATOM      4  C   UNL     1       5.073   6.131  15.199  0.00  0.00    +0.000 A 
ATOM      5  C   UNL     1       5.723   4.900  15.345  0.00  0.00    +0.000 A 
ATOM      6  C   UNL     1       6.259   4.568  16.599  0.00  0.00    +0.000 A 
ENDROOT
BRANCH   5   7
ATOM      7  N   UNL     1       5.844   3.976  14.282  0.00  0.00    +0.000 N 
ATOM      8  C   UNL     1       6.654   4.111  13.162  0.00  0.00    +0.000 C 
ATOM      9  O   UNL     1       7.420   5.049  12.954  0.00  0.00    +0.000 OA
ATOM     10  H   UNL     1       5.349   3.093  14.358  0.00  0.00    +0.000 HD
BRANCH   8  11
ATOM     11  C   UNL     1       6.562   3.011  12.220  0.00  0.00    +0.000 A 
ATOM     12  C   UNL     1       7.547   2.419  11.451  0.00  0.00    +0.000 A 
ATOM     13  C   UNL     1       6.923   1.388  10.715  0.00  0.00    +0.000 A 
ATOM     14  C   UNL     1       5.594   1.416  11.072  0.00  0.00    +0.000 A 
ATOM     15  O   UNL     1       5.362   2.394  11.986  0.00  0.00    +0.000 OA
ENDBRANCH   8  11
ENDBRANCH   5   7
BRANCH   1  16
ATOM     16  C   UNL     1       6.675   5.067  19.018  0.00  0.00    +0.000 C 
ATOM     17  O   UNL     1       7.770   5.371  19.460  0.00  0.00    +0.000 OA
BRANCH  16  18
ATOM     18  O   UNL     1       5.796   4.200  19.576  0.00  0.00    +0.000 OA
BRANCH  18  19
ATOM     19  C   UNL     1       4.449   4.645  19.707  0.00  0.00    +0.000 C 
BRANCH  19  20
ATOM     20  C   UNL     1       3.385   3.548  19.568  0.00  0.00    +0.000 C 
ATOM     21  O   UNL     1       3.310   2.621  20.376  0.00  0.00    +0.000 OA
BRANCH  20  23
ATOM     22  C   UNL     1       2.079   5.163  18.124  0.00  0.00    +0.000 C 
ATOM     23  C   UNL     1       2.393   3.680  18.383  0.00  0.00    +0.000 C 
ATOM     24  C   UNL     1       1.082   2.955  18.715  0.00  0.00    +0.000 C 
ATOM     25  C   UNL     1       3.007   3.087  17.107  0.00  0.00    +0.000 C 
ENDBRANCH  20  23
ENDBRANCH  19  20
ENDBRANCH  18  19
ENDBRANCH  16  18
ENDBRANCH   1  16
TORSDOF 7
ENDMDL
MODEL 9
REMARK VINA RESULT:      -6.7      3.915      5.104
REMARK  Name = 
REMARK  10 active torsions:
REMARK  status: ('A' for Active; 'I' for Inactive)
REMARK    1  A    between atoms: C_1  and  C_2
REMARK    2  A    between atoms: C_2  and  C_3
REMARK    3  A    between atoms: C_2  and  C_4
REMARK    4  A    between atoms: C_2  and  C_5
REMARK    5  A    between atoms: C_5  and  C_7
REMARK    6  A    between atoms: C_7  and  O_8
REMARK    7  A    between atoms: O_8  and  C_9
REMARK    8  A    between atoms: C_9  and  C_11
REMARK    9  A    between atoms: C_15  and  N_16
REMARK   10  A    between atoms: C_17  and  C_19
REMARK                            x       y       z     vdW  Elec       q    Type
REMARK                         _______ _______ _______ _____ _____    ______ ____
ROOT
ATOM      1  C   UNL     1       3.001   6.027  18.944  0.00  0.00    +0.000 A 
ATOM      2  C   UNL     1       2.940   4.905  19.780  0.00  0.00    +0.000 A 
ATOM      3  C   UNL     1       3.575   3.726  19.413  0.00  0.00    +0.000 A 
ATOM      4  C   UNL     1       4.252   3.651  18.198  0.00  0.00    +0.000 A 
ATOM      5  C   UNL     1       4.299   4.744  17.325  0.00  0.00    +0.000 A 
ATOM      6  C   UNL     1       3.683   5.943  17.715  0.00  0.00    +0.000 A 
ENDROOT
BRANCH   5   7
ATOM      7  N   UNL     1       4.956   4.687  16.075  0.00  0.00    +0.000 N 
ATOM      8  C   UNL     1       6.325   4.570  15.869  0.00  0.00    +0.000 C 
ATOM      9  O   UNL     1       7.166   4.460  16.758  0.00  0.00    +0.000 OA
ATOM     10  H   UNL     1       4.386   4.661  15.235  0.00  0.00    +0.000 HD
BRANCH   8  11
ATOM     11  C   UNL     1       6.722   4.554  14.473  0.00  0.00    +0.000 A 
ATOM     12  C   UNL     1       6.258   3.776  13.428  0.00  0.00    +0.000 A 
ATOM     13  C   UNL     1       6.976   4.168  12.278  0.00  0.00    +0.000 A 
ATOM     14  C   UNL     1       7.842   5.157  12.689  0.00  0.00    +0.000 A 
ATOM     15  O   UNL     1       7.696   5.403  14.017  0.00  0.00    +0.000 OA
ENDBRANCH   8  11
ENDBRANCH   5   7
BRANCH   1  16
ATOM     16  C   UNL     1       2.428   7.335  19.377  0.00  0.00    +0.000 C 
ATOM     17  O   UNL     1       1.772   7.490  20.392  0.00  0.00    +0.000 OA
BRANCH  16  18
ATOM     18  O   UNL     1       2.622   8.252  18.397  0.00  0.00    +0.000 OA
BRANCH  18  19
ATOM     19  C   UNL     1       1.458   8.874  17.860  0.00  0.00    +0.000 C 
BRANCH  19  20
ATOM     20  C   UNL     1       1.247  10.333  18.281  0.00  0.00    +0.000 C 
ATOM     21  O   UNL     1       2.162  11.157  18.221  0.00  0.00    +0.000 OA
BRANCH  20  23
ATOM     22  C   UNL     1      -1.228  10.148  17.793  0.00  0.00    +0.000 C 
ATOM     23  C   UNL     1      -0.176  10.728  18.754  0.00  0.00    +0.000 C 
ATOM     24  C   UNL     1      -0.319  12.255  18.769  0.00  0.00    +0.000 C 
ATOM     25  C   UNL     1      -0.443  10.167  20.158  0.00  0.00    +0.000 C 
ENDBRANCH  20  23
ENDBRANCH  19  20
ENDBRANCH  18  19
ENDBRANCH  16  18
ENDBRANCH   1  16
TORSDOF 7
ENDMDL
