MODEL 1
REMARK VINA RESULT:      -6.6      0.000      0.000
REMARK  Name = 
REMARK  2 active torsions:
REMARK  status: ('A' for Active; 'I' for Inactive)
REMARK    1  A    between atoms: C_2  and  C_3
REMARK    2  A    between atoms: C_5  and  C_6
REMARK                            x       y       z     vdW  Elec       q    Type
REMARK                         _______ _______ _______ _____ _____    ______ ____
ROOT
ATOM      1  O   UNL     1       3.004   2.694  17.359  0.00  0.00    +0.000 OA
ATOM      2  C   UNL     1       3.751   3.368  18.066  0.00  0.00    +0.000 C 
ATOM      3  N   UNL     1       4.904   3.935  17.579  0.00  0.00    +0.000 N 
ATOM      4  C   UNL     1       5.319   3.871  16.169  0.00  0.00    +0.000 C 
ATOM      5  C   UNL     1       6.599   4.734  16.091  0.00  0.00    +0.000 C 
ATOM      6  N   UNL     1       6.819   5.076  17.482  0.00  0.00    +0.000 N 
ATOM      7  C   UNL     1       7.738   5.745  18.199  0.00  0.00    +0.000 A 
ATOM      8  C   UNL     1       7.252   5.657  19.494  0.00  0.00    +0.000 A 
ATOM      9  N   UNL     1       6.057   4.961  19.545  0.00  0.00    +0.000 NA
ATOM     10  C   UNL     1       5.834   4.626  18.304  0.00  0.00    +0.000 A 
ENDROOT
BRANCH   2  11
ATOM     11  C   UNL     1       3.359   3.672  19.474  0.00  0.00    +0.000 C 
ATOM     12  C   UNL     1       2.195   4.615  19.688  0.00  0.00    +0.000 C 
ATOM     13  C   UNL     1       2.079   3.170  20.104  0.00  0.00    +0.000 C 
BRANCH  13  14
ATOM     14  C   UNL     1       2.064   2.814  21.549  0.00  0.00    +0.000 C 
ATOM     15  F   UNL     1       2.425   3.898  22.280  0.00  0.00    +0.000 F 
ATOM     16  F   UNL     1       0.800   2.493  21.920  0.00  0.00    +0.000 F 
ENDBRANCH  13  14
ENDBRANCH   2  11
TORSDOF 2
ENDMDL
MODEL 2
REMARK VINA RESULT:      -6.6      4.476      6.337
REMARK  Name = 
REMARK  2 active torsions:
REMARK  status: ('A' for Active; 'I' for Inactive)
REMARK    1  A    between atoms: C_2  and  C_3
REMARK    2  A    between atoms: C_5  and  C_6
REMARK                            x       y       z     vdW  Elec       q    Type
REMARK                         _______ _______ _______ _____ _____    ______ ____
ROOT
ATOM      1  O   UNL     1       7.840   4.527  16.321  0.00  0.00    +0.000 OA
ATOM      2  C   UNL     1       6.629   4.316  16.308  0.00  0.00    +0.000 C 
ATOM      3  N   UNL     1       5.843   4.493  17.422  0.00  0.00    +0.000 N 
ATOM      4  C   UNL     1       6.339   5.024  18.701  0.00  0.00    +0.000 C 
ATOM      5  C   UNL     1       5.086   5.141  19.596  0.00  0.00    +0.000 C 
ATOM      6  N   UNL     1       4.060   4.549  18.761  0.00  0.00    +0.000 N 
ATOM      7  C   UNL     1       2.753   4.255  18.863  0.00  0.00    +0.000 A 
ATOM      8  C   UNL     1       2.455   3.706  17.626  0.00  0.00    +0.000 A 
ATOM      9  N   UNL     1       3.562   3.687  16.796  0.00  0.00    +0.000 NA
ATOM     10  C   UNL     1       4.512   4.205  17.524  0.00  0.00    +0.000 A 
ENDROOT
BRANCH   2  11
ATOM     11  C   UNL     1       5.959   3.950  15.025  0.00  0.00    +0.000 C 
ATOM     12  C   UNL     1       5.426   5.078  14.168  0.00  0.00    +0.000 C 
ATOM     13  C   UNL     1       6.563   4.224  13.666  0.00  0.00    +0.000 C 
BRANCH  13  14
ATOM     14  C   UNL     1       6.333   3.261  12.555  0.00  0.00    +0.000 C 
ATOM     15  F   UNL     1       5.120   3.505  11.996  0.00  0.00    +0.000 F 
ATOM     16  F   UNL     1       7.260   3.464  11.586  0.00  0.00    +0.000 F 
ENDBRANCH  13  14
ENDBRANCH   2  11
TORSDOF 2
ENDMDL
MODEL 3
REMARK VINA RESULT:      -6.5      0.733      1.055
REMARK  Name = 
REMARK  2 active torsions:
REMARK  status: ('A' for Active; 'I' for Inactive)
REMARK    1  A    between atoms: C_2  and  C_3
REMARK    2  A    between atoms: C_5  and  C_6
REMARK                            x       y       z     vdW  Elec       q    Type
REMARK                         _______ _______ _______ _____ _____    ______ ____
ROOT
ATOM      1  O   UNL     1       2.636   3.188  16.884  0.00  0.00    +0.000 OA
ATOM      2  C   UNL     1       3.421   3.740  17.652  0.00  0.00    +0.000 C 
ATOM      3  N   UNL     1       4.699   4.076  17.275  0.00  0.00    +0.000 N 
ATOM      4  C   UNL     1       5.230   3.894  15.916  0.00  0.00    +0.000 C 
ATOM      5  C   UNL     1       6.645   4.511  15.954  0.00  0.00    +0.000 C 
ATOM      6  N   UNL     1       6.789   4.854  17.355  0.00  0.00    +0.000 N 
ATOM      7  C   UNL     1       7.740   5.371  18.152  0.00  0.00    +0.000 A 
ATOM      8  C   UNL     1       7.124   5.413  19.392  0.00  0.00    +0.000 A 
ATOM      9  N   UNL     1       5.823   4.943  19.333  0.00  0.00    +0.000 NA
ATOM     10  C   UNL     1       5.664   4.613  18.081  0.00  0.00    +0.000 A 
ENDROOT
BRANCH   2  11
ATOM     11  C   UNL     1       2.956   4.154  19.009  0.00  0.00    +0.000 C 
ATOM     12  C   UNL     1       2.158   5.436  19.114  0.00  0.00    +0.000 C 
ATOM     13  C   UNL     1       1.506   4.115  19.437  0.00  0.00    +0.000 C 
BRANCH  13  14
ATOM     14  C   UNL     1       1.167   3.779  20.846  0.00  0.00    +0.000 C 
ATOM     15  F   UNL     1       1.073   2.431  20.974  0.00  0.00    +0.000 F 
ATOM     16  F   UNL     1       2.175   4.182  21.660  0.00  0.00    +0.000 F 
ENDBRANCH  13  14
ENDBRANCH   2  11
TORSDOF 2
ENDMDL
MODEL 4
REMARK VINA RESULT:      -6.5      4.998      6.673
REMARK  Name = 
REMARK  2 active torsions:
REMARK  status: ('A' for Active; 'I' for Inactive)
REMARK    1  A    between atoms: C_2  and  C_3
REMARK    2  A    between atoms: C_5  and  C_6
REMARK                            x       y       z     vdW  Elec       q    Type
REMARK                         _______ _______ _______ _____ _____    ______ ____
ROOT
ATOM      1  O   UNL     1       7.859   5.419  14.095  0.00  0.00    +0.000 OA
ATOM      2  C   UNL     1       6.959   4.801  14.661  0.00  0.00    +0.000 C 
ATOM      3  N   UNL     1       6.544   5.116  15.933  0.00  0.00    +0.000 N 
ATOM      4  C   UNL     1       7.061   6.254  16.708  0.00  0.00    +0.000 C 
ATOM      5  C   UNL     1       6.226   6.263  18.008  0.00  0.00    +0.000 C 
ATOM      6  N   UNL     1       5.428   5.061  17.864  0.00  0.00    +0.000 N 
ATOM      7  C   UNL     1       4.522   4.386  18.592  0.00  0.00    +0.000 A 
ATOM      8  C   UNL     1       4.189   3.321  17.771  0.00  0.00    +0.000 A 
ATOM      9  N   UNL     1       4.873   3.369  16.569  0.00  0.00    +0.000 NA
ATOM     10  C   UNL     1       5.614   4.437  16.670  0.00  0.00    +0.000 A 
ENDROOT
BRANCH   2  11
ATOM     11  C   UNL     1       6.216   3.739  13.922  0.00  0.00    +0.000 C 
ATOM     12  C   UNL     1       5.114   4.180  12.982  0.00  0.00    +0.000 C 
ATOM     13  C   UNL     1       6.351   3.516  12.432  0.00  0.00    +0.000 C 
BRANCH  13  14
ATOM     14  C   UNL     1       6.271   2.133  11.888  0.00  0.00    +0.000 C 
ATOM     15  F   UNL     1       5.139   2.008  11.150  0.00  0.00    +0.000 F 
ATOM     16  F   UNL     1       7.314   1.920  11.046  0.00  0.00    +0.000 F 
ENDBRANCH  13  14
ENDBRANCH   2  11
TORSDOF 2
ENDMDL
MODEL 5
REMARK VINA RESULT:      -6.3      3.538      5.426
REMARK  Name = 
REMARK  2 active torsions:
REMARK  status: ('A' for Active; 'I' for Inactive)
REMARK    1  A    between atoms: C_2  and  C_3
REMARK    2  A    between atoms: C_5  and  C_6
REMARK                            x       y       z     vdW  Elec       q    Type
REMARK                         _______ _______ _______ _____ _____    ______ ____
ROOT
ATOM      1  O   UNL     1       5.035   3.952  16.295  0.00  0.00    +0.000 OA
ATOM      2  C   UNL     1       4.589   4.441  17.331  0.00  0.00    +0.000 C 
ATOM      3  N   UNL     1       3.421   3.997  17.906  0.00  0.00    +0.000 N 
ATOM      4  C   UNL     1       2.640   2.857  17.404  0.00  0.00    +0.000 C 
ATOM      5  C   UNL     1       1.497   2.675  18.427  0.00  0.00    +0.000 C 
ATOM      6  N   UNL     1       1.698   3.807  19.310  0.00  0.00    +0.000 N 
ATOM      7  C   UNL     1       1.090   4.341  20.383  0.00  0.00    +0.000 A 
ATOM      8  C   UNL     1       1.891   5.430  20.690  0.00  0.00    +0.000 A 
ATOM      9  N   UNL     1       2.966   5.533  19.824  0.00  0.00    +0.000 NA
ATOM     10  C   UNL     1       2.808   4.532  19.004  0.00  0.00    +0.000 A 
ENDROOT
BRANCH   2  11
ATOM     11  C   UNL     1       5.376   5.483  18.053  0.00  0.00    +0.000 C 
ATOM     12  C   UNL     1       6.363   5.014  19.100  0.00  0.00    +0.000 C 
ATOM     13  C   UNL     1       6.859   5.692  17.848  0.00  0.00    +0.000 C 
BRANCH  13  14
ATOM     14  C   UNL     1       7.423   7.067  17.922  0.00  0.00    +0.000 C 
ATOM     15  F   UNL     1       8.447   7.082  18.813  0.00  0.00    +0.000 F 
ATOM     16  F   UNL     1       7.946   7.405  16.717  0.00  0.00    +0.000 F 
ENDBRANCH  13  14
ENDBRANCH   2  11
TORSDOF 2
ENDMDL
MODEL 6
REMARK VINA RESULT:      -6.3      1.959      2.156
REMARK  Name = 
REMARK  2 active torsions:
REMARK  status: ('A' for Active; 'I' for Inactive)
REMARK    1  A    between atoms: C_2  and  C_3
REMARK    2  A    between atoms: C_5  and  C_6
REMARK                            x       y       z     vdW  Elec       q    Type
REMARK                         _______ _______ _______ _____ _____    ______ ____
ROOT
ATOM      1  O   UNL     1       3.705   1.619  17.804  0.00  0.00    +0.000 OA
ATOM      2  C   UNL     1       3.430   2.808  17.946  0.00  0.00    +0.000 C 
ATOM      3  N   UNL     1       4.111   3.801  17.282  0.00  0.00    +0.000 N 
ATOM      4  C   UNL     1       5.164   3.550  16.286  0.00  0.00    +0.000 C 
ATOM      5  C   UNL     1       5.543   4.947  15.746  0.00  0.00    +0.000 C 
ATOM      6  N   UNL     1       4.751   5.822  16.587  0.00  0.00    +0.000 N 
ATOM      7  C   UNL     1       4.583   7.145  16.751  0.00  0.00    +0.000 A 
ATOM      8  C   UNL     1       3.630   7.220  17.755  0.00  0.00    +0.000 A 
ATOM      9  N   UNL     1       3.227   5.963  18.171  0.00  0.00    +0.000 NA
ATOM     10  C   UNL     1       3.933   5.146  17.439  0.00  0.00    +0.000 A 
ENDROOT
BRANCH   2  11
ATOM     11  C   UNL     1       2.260   3.200  18.786  0.00  0.00    +0.000 C 
ATOM     12  C   UNL     1       1.002   2.367  18.665  0.00  0.00    +0.000 C 
ATOM     13  C   UNL     1       1.772   2.383  19.961  0.00  0.00    +0.000 C 
BRANCH  13  14
ATOM     14  C   UNL     1       1.208   3.075  21.151  0.00  0.00    +0.000 C 
ATOM     15  F   UNL     1       2.191   3.261  22.068  0.00  0.00    +0.000 F 
ATOM     16  F   UNL     1       0.770   4.307  20.789  0.00  0.00    +0.000 F 
ENDBRANCH  13  14
ENDBRANCH   2  11
TORSDOF 2
ENDMDL
MODEL 7
REMARK VINA RESULT:      -6.2      3.466      5.335
REMARK  Name = 
REMARK  2 active torsions:
REMARK  status: ('A' for Active; 'I' for Inactive)
REMARK    1  A    between atoms: C_2  and  C_3
REMARK    2  A    between atoms: C_5  and  C_6
REMARK                            x       y       z     vdW  Elec       q    Type
REMARK                         _______ _______ _______ _____ _____    ______ ____
ROOT
ATOM      1  O   UNL     1       3.678   7.527  17.624  0.00  0.00    +0.000 OA
ATOM      2  C   UNL     1       3.908   6.334  17.809  0.00  0.00    +0.000 C 
ATOM      3  N   UNL     1       3.374   5.642  18.870  0.00  0.00    +0.000 N 
ATOM      4  C   UNL     1       2.421   6.219  19.831  0.00  0.00    +0.000 C 
ATOM      5  C   UNL     1       2.028   5.046  20.756  0.00  0.00    +0.000 C 
ATOM      6  N   UNL     1       2.896   3.985  20.286  0.00  0.00    +0.000 N 
ATOM      7  C   UNL     1       3.166   2.711  20.618  0.00  0.00    +0.000 A 
ATOM      8  C   UNL     1       4.117   2.336  19.682  0.00  0.00    +0.000 A 
ATOM      9  N   UNL     1       4.398   3.363  18.799  0.00  0.00    +0.000 NA
ATOM     10  C   UNL     1       3.638   4.343  19.203  0.00  0.00    +0.000 A 
ENDROOT
BRANCH   2  11
ATOM     11  C   UNL     1       4.712   5.573  16.807  0.00  0.00    +0.000 C 
ATOM     12  C   UNL     1       5.241   6.335  15.611  0.00  0.00    +0.000 C 
ATOM     13  C   UNL     1       6.201   5.761  16.623  0.00  0.00    +0.000 C 
BRANCH  13  14
ATOM     14  C   UNL     1       7.048   4.592  16.263  0.00  0.00    +0.000 C 
ATOM     15  F   UNL     1       7.781   4.222  17.343  0.00  0.00    +0.000 F 
ATOM     16  F   UNL     1       6.252   3.540  15.948  0.00  0.00    +0.000 F 
ENDBRANCH  13  14
ENDBRANCH   2  11
TORSDOF 2
ENDMDL
MODEL 8
REMARK VINA RESULT:      -6.2      1.122      1.122
REMARK  Name = 
REMARK  2 active torsions:
REMARK  status: ('A' for Active; 'I' for Inactive)
REMARK    1  A    between atoms: C_2  and  C_3
REMARK    2  A    between atoms: C_5  and  C_6
REMARK                            x       y       z     vdW  Elec       q    Type
REMARK                         _______ _______ _______ _____ _____    ______ ____
ROOT
ATOM      1  O   UNL     1       2.543   4.269  17.304  0.00  0.00    +0.000 OA
ATOM      2  C   UNL     1       3.469   4.452  18.092  0.00  0.00    +0.000 C 
ATOM      3  N   UNL     1       4.606   5.139  17.738  0.00  0.00    +0.000 N 
ATOM      4  C   UNL     1       4.801   5.789  16.433  0.00  0.00    +0.000 C 
ATOM      5  C   UNL     1       6.160   6.513  16.548  0.00  0.00    +0.000 C 
ATOM      6  N   UNL     1       6.624   6.084  17.852  0.00  0.00    +0.000 N 
ATOM      7  C   UNL     1       7.719   6.249  18.614  0.00  0.00    +0.000 A 
ATOM      8  C   UNL     1       7.418   5.530  19.760  0.00  0.00    +0.000 A 
ATOM      9  N   UNL     1       6.159   4.959  19.689  0.00  0.00    +0.000 NA
ATOM     10  C   UNL     1       5.716   5.318  18.516  0.00  0.00    +0.000 A 
ENDROOT
BRANCH   2  11
ATOM     11  C   UNL     1       3.329   4.007  19.510  0.00  0.00    +0.000 C 
ATOM     12  C   UNL     1       2.580   4.918  20.459  0.00  0.00    +0.000 C 
ATOM     13  C   UNL     1       2.016   3.562  20.114  0.00  0.00    +0.000 C 
BRANCH  13  14
ATOM     14  C   UNL     1       2.008   2.480  21.135  0.00  0.00    +0.000 C 
ATOM     15  F   UNL     1       3.225   2.421  21.733  0.00  0.00    +0.000 F 
ATOM     16  F   UNL     1       1.109   2.784  22.104  0.00  0.00    +0.000 F 
ENDBRANCH  13  14
ENDBRANCH   2  11
TORSDOF 2
ENDMDL
MODEL 9
REMARK VINA RESULT:      -6.2      3.489      5.436
REMARK  Name = 
REMARK  2 active torsions:
REMARK  status: ('A' for Active; 'I' for Inactive)
REMARK    1  A    between atoms: C_2  and  C_3
REMARK    2  A    between atoms: C_5  and  C_6
REMARK                            x       y       z     vdW  Elec       q    Type
REMARK                         _______ _______ _______ _____ _____    ______ ____
ROOT
ATOM      1  O   UNL     1       3.804   7.347  17.282  0.00  0.00    +0.000 OA
ATOM      2  C   UNL     1       4.262   6.322  17.783  0.00  0.00    +0.000 C 
ATOM      3  N   UNL     1       3.459   5.276  18.173  0.00  0.00    +0.000 N 
ATOM      4  C   UNL     1       2.004   5.235  17.961  0.00  0.00    +0.000 C 
ATOM      5  C   UNL     1       1.569   3.838  18.457  0.00  0.00    +0.000 C 
ATOM      6  N   UNL     1       2.805   3.311  19.002  0.00  0.00    +0.000 N 
ATOM      7  C   UNL     1       3.206   2.198  19.640  0.00  0.00    +0.000 A 
ATOM      8  C   UNL     1       4.561   2.416  19.831  0.00  0.00    +0.000 A 
ATOM      9  N   UNL     1       4.963   3.630  19.302  0.00  0.00    +0.000 NA
ATOM     10  C   UNL     1       3.867   4.139  18.812  0.00  0.00    +0.000 A 
ENDROOT
BRANCH   2  11
ATOM     11  C   UNL     1       5.741   6.149  17.889  0.00  0.00    +0.000 C 
ATOM     12  C   UNL     1       6.487   5.732  16.640  0.00  0.00    +0.000 C 
ATOM     13  C   UNL     1       6.733   7.091  17.245  0.00  0.00    +0.000 C 
BRANCH  13  14
ATOM     14  C   UNL     1       8.023   7.376  17.929  0.00  0.00    +0.000 C 
ATOM     15  F   UNL     1       8.071   8.690  18.263  0.00  0.00    +0.000 F 
ATOM     16  F   UNL     1       8.082   6.673  19.088  0.00  0.00    +0.000 F 
ENDBRANCH  13  14
ENDBRANCH   2  11
TORSDOF 2
ENDMDL
