MODEL 1
REMARK VINA RESULT:      -6.4      0.000      0.000
REMARK  Name = 
REMARK  2 active torsions:
REMARK  status: ('A' for Active; 'I' for Inactive)
REMARK    1  A    between atoms: C_1  and  O_2
REMARK    2  A    between atoms: O_2  and  C_3
REMARK                            x       y       z     vdW  Elec       q    Type
REMARK                         _______ _______ _______ _____ _____    ______ ____
ROOT
ATOM      1  C   UNL     1       8.004   6.910  17.304  0.00  0.00    +0.000 C 
ATOM      2  C   UNL     1       7.767   6.456  18.737  0.00  0.00    +0.000 C 
ATOM      3  O   UNL     1       6.374   6.134  18.844  0.00  0.00    +0.000 OA
ATOM      4  C   UNL     1       5.864   5.853  17.519  0.00  0.00    +0.000 C 
ATOM      5  C   UNL     1       4.787   6.913  17.201  0.00  0.00    +0.000 C 
ATOM      6  C   UNL     1       3.530   6.694  18.033  0.00  0.00    +0.000 C 
ATOM      7  C   UNL     1       3.015   5.286  17.783  0.00  0.00    +0.000 C 
ATOM      8  N   UNL     1       3.996   4.308  18.241  0.00  0.00    +0.000 N 
ATOM      9  C   UNL     1       3.998   3.555  19.408  0.00  0.00    +0.000 C 
ATOM     10  O   UNL     1       5.025   2.977  19.773  0.00  0.00    +0.000 OA
ATOM     11  N   UNL     1       2.852   3.408  20.162  0.00  0.00    +0.000 N 
ATOM     12  C   UNL     1       2.911   2.685  21.426  0.00  0.00    +0.000 C 
ATOM     13  C   UNL     1       1.540   2.043  21.570  0.00  0.00    +0.000 C 
ATOM     14  C   UNL     1       0.612   3.050  20.921  0.00  0.00    +0.000 C 
ATOM     15  C   UNL     1       1.468   3.727  19.857  0.00  0.00    +0.000 C 
ATOM     16  C   UNL     1       5.267   4.417  17.494  0.00  0.00    +0.000 C 
ATOM     17  C   UNL     1       7.060   5.984  16.559  0.00  0.00    +0.000 C 
ENDROOT
BRANCH   1  19
ATOM     18  C   UNL     1       8.137   9.218  17.921  0.00  0.00    +0.000 C 
ATOM     19  O   UNL     1       7.606   8.256  17.022  0.00  0.00    +0.000 OA
ENDBRANCH   1  19
TORSDOF 1
ENDMDL
MODEL 2
REMARK VINA RESULT:      -5.9      3.397      4.589
REMARK  Name = 
REMARK  2 active torsions:
REMARK  status: ('A' for Active; 'I' for Inactive)
REMARK    1  A    between atoms: C_1  and  O_2
REMARK    2  A    between atoms: O_2  and  C_3
REMARK                            x       y       z     vdW  Elec       q    Type
REMARK                         _______ _______ _______ _____ _____    ______ ____
ROOT
ATOM      1  C   UNL     1       5.370   3.784  17.832  0.00  0.00    +0.000 C 
ATOM      2  C   UNL     1       5.347   4.390  19.227  0.00  0.00    +0.000 C 
ATOM      3  O   UNL     1       4.602   5.612  19.133  0.00  0.00    +0.000 OA
ATOM      4  C   UNL     1       3.750   5.543  17.967  0.00  0.00    +0.000 C 
ATOM      5  C   UNL     1       4.194   6.660  16.998  0.00  0.00    +0.000 C 
ATOM      6  C   UNL     1       3.821   8.038  17.532  0.00  0.00    +0.000 C 
ATOM      7  C   UNL     1       2.321   8.079  17.778  0.00  0.00    +0.000 C 
ATOM      8  N   UNL     1       1.959   7.117  18.812  0.00  0.00    +0.000 N 
ATOM      9  C   UNL     1       1.673   7.343  20.153  0.00  0.00    +0.000 C 
ATOM     10  O   UNL     1       1.649   6.401  20.950  0.00  0.00    +0.000 OA
ATOM     11  N   UNL     1       1.377   8.609  20.613  0.00  0.00    +0.000 N 
ATOM     12  C   UNL     1       1.169   8.825  22.039  0.00  0.00    +0.000 C 
ATOM     13  C   UNL     1       0.163   9.962  22.117  0.00  0.00    +0.000 C 
ATOM     14  C   UNL     1       0.508  10.817  20.914  0.00  0.00    +0.000 C 
ATOM     15  C   UNL     1       1.066   9.832  19.894  0.00  0.00    +0.000 C 
ATOM     16  C   UNL     1       2.269   5.731  18.402  0.00  0.00    +0.000 C 
ATOM     17  C   UNL     1       3.983   4.155  17.343  0.00  0.00    +0.000 C 
ENDROOT
BRANCH   1  19
ATOM     18  C   UNL     1       7.587   4.630  17.517  0.00  0.00    +0.000 C 
ATOM     19  O   UNL     1       6.320   4.368  16.933  0.00  0.00    +0.000 OA
ENDBRANCH   1  19
TORSDOF 1
ENDMDL
MODEL 3
REMARK VINA RESULT:      -5.8      2.249      3.027
REMARK  Name = 
REMARK  2 active torsions:
REMARK  status: ('A' for Active; 'I' for Inactive)
REMARK    1  A    between atoms: C_1  and  O_2
REMARK    2  A    between atoms: O_2  and  C_3
REMARK                            x       y       z     vdW  Elec       q    Type
REMARK                         _______ _______ _______ _____ _____    ______ ____
ROOT
ATOM      1  C   UNL     1       6.255   5.241  14.146  0.00  0.00    +0.000 C 
ATOM      2  C   UNL     1       5.489   3.974  14.500  0.00  0.00    +0.000 C 
ATOM      3  O   UNL     1       5.257   4.015  15.914  0.00  0.00    +0.000 OA
ATOM      4  C   UNL     1       5.342   5.390  16.355  0.00  0.00    +0.000 C 
ATOM      5  C   UNL     1       6.525   5.491  17.342  0.00  0.00    +0.000 C 
ATOM      6  C   UNL     1       6.208   4.796  18.661  0.00  0.00    +0.000 C 
ATOM      7  C   UNL     1       4.944   5.406  19.245  0.00  0.00    +0.000 C 
ATOM      8  N   UNL     1       3.814   5.156  18.358  0.00  0.00    +0.000 N 
ATOM      9  C   UNL     1       2.804   4.209  18.476  0.00  0.00    +0.000 C 
ATOM     10  O   UNL     1       2.079   3.949  17.512  0.00  0.00    +0.000 OA
ATOM     11  N   UNL     1       2.567   3.569  19.675  0.00  0.00    +0.000 N 
ATOM     12  C   UNL     1       1.559   2.518  19.741  0.00  0.00    +0.000 C 
ATOM     13  C   UNL     1       1.007   2.599  21.155  0.00  0.00    +0.000 C 
ATOM     14  C   UNL     1       2.207   3.025  21.976  0.00  0.00    +0.000 C 
ATOM     15  C   UNL     1       3.053   3.851  21.014  0.00  0.00    +0.000 C 
ATOM     16  C   UNL     1       4.003   5.794  17.038  0.00  0.00    +0.000 C 
ATOM     17  C   UNL     1       5.609   6.232  15.095  0.00  0.00    +0.000 C 
ENDROOT
BRANCH   1  19
ATOM     18  C   UNL     1       8.490   5.486  13.327  0.00  0.00    +0.000 C 
ATOM     19  O   UNL     1       7.655   5.204  14.440  0.00  0.00    +0.000 OA
ENDBRANCH   1  19
TORSDOF 1
ENDMDL
MODEL 4
REMARK VINA RESULT:      -5.7      3.401      5.935
REMARK  Name = 
REMARK  2 active torsions:
REMARK  status: ('A' for Active; 'I' for Inactive)
REMARK    1  A    between atoms: C_1  and  O_2
REMARK    2  A    between atoms: O_2  and  C_3
REMARK                            x       y       z     vdW  Elec       q    Type
REMARK                         _______ _______ _______ _____ _____    ______ ____
ROOT
ATOM      1  C   UNL     1       3.852   2.812  17.557  0.00  0.00    +0.000 C 
ATOM      2  C   UNL     1       3.015   3.799  16.756  0.00  0.00    +0.000 C 
ATOM      3  O   UNL     1       2.404   4.686  17.703  0.00  0.00    +0.000 OA
ATOM      4  C   UNL     1       3.183   4.663  18.923  0.00  0.00    +0.000 C 
ATOM      5  C   UNL     1       2.276   4.111  20.044  0.00  0.00    +0.000 C 
ATOM      6  C   UNL     1       1.192   5.113  20.425  0.00  0.00    +0.000 C 
ATOM      7  C   UNL     1       1.854   6.418  20.838  0.00  0.00    +0.000 C 
ATOM      8  N   UNL     1       2.575   6.990  19.707  0.00  0.00    +0.000 N 
ATOM      9  C   UNL     1       2.198   8.034  18.870  0.00  0.00    +0.000 C 
ATOM     10  O   UNL     1       2.790   8.220  17.804  0.00  0.00    +0.000 OA
ATOM     11  N   UNL     1       1.186   8.901  19.227  0.00  0.00    +0.000 N 
ATOM     12  C   UNL     1       0.758   9.930  18.288  0.00  0.00    +0.000 C 
ATOM     13  C   UNL     1       0.306  11.089  19.161  0.00  0.00    +0.000 C 
ATOM     14  C   UNL     1      -0.275  10.402  20.381  0.00  0.00    +0.000 C 
ATOM     15  C   UNL     1       0.512   9.102  20.497  0.00  0.00    +0.000 C 
ATOM     16  C   UNL     1       3.666   6.105  19.248  0.00  0.00    +0.000 C 
ATOM     17  C   UNL     1       4.367   3.716  18.662  0.00  0.00    +0.000 C 
ENDROOT
BRANCH   1  19
ATOM     18  C   UNL     1       3.893   0.915  19.015  0.00  0.00    +0.000 C 
ATOM     19  O   UNL     1       3.114   1.750  18.171  0.00  0.00    +0.000 OA
ENDBRANCH   1  19
TORSDOF 1
ENDMDL
MODEL 5
REMARK VINA RESULT:      -5.4      8.530      9.783
REMARK  Name = 
REMARK  2 active torsions:
REMARK  status: ('A' for Active; 'I' for Inactive)
REMARK    1  A    between atoms: C_1  and  O_2
REMARK    2  A    between atoms: O_2  and  C_3
REMARK                            x       y       z     vdW  Elec       q    Type
REMARK                         _______ _______ _______ _____ _____    ______ ____
ROOT
ATOM      1  C   UNL     1       1.069   9.970  18.189  0.00  0.00    +0.000 C 
ATOM      2  C   UNL     1      -0.451   9.982  18.114  0.00  0.00    +0.000 C 
ATOM      3  O   UNL     1      -0.926  10.271  19.436  0.00  0.00    +0.000 OA
ATOM      4  C   UNL     1       0.129  10.936  20.169  0.00  0.00    +0.000 C 
ATOM      5  C   UNL     1       0.513  10.029  21.358  0.00  0.00    +0.000 C 
ATOM      6  C   UNL     1      -0.584  10.003  22.414  0.00  0.00    +0.000 C 
ATOM      7  C   UNL     1      -0.861  11.427  22.869  0.00  0.00    +0.000 C 
ATOM      8  N   UNL     1      -1.371  12.216  21.753  0.00  0.00    +0.000 N 
ATOM      9  C   UNL     1      -2.680  12.590  21.475  0.00  0.00    +0.000 C 
ATOM     10  O   UNL     1      -2.979  13.025  20.360  0.00  0.00    +0.000 OA
ATOM     11  N   UNL     1      -3.661  12.519  22.443  0.00  0.00    +0.000 N 
ATOM     12  C   UNL     1      -5.040  12.834  22.094  0.00  0.00    +0.000 C 
ATOM     13  C   UNL     1      -5.638  13.418  23.363  0.00  0.00    +0.000 C 
ATOM     14  C   UNL     1      -4.929  12.657  24.466  0.00  0.00    +0.000 C 
ATOM     15  C   UNL     1      -3.565  12.318  23.878  0.00  0.00    +0.000 C 
ATOM     16  C   UNL     1      -0.382  12.321  20.659  0.00  0.00    +0.000 C 
ATOM     17  C   UNL     1       1.308  11.084  19.191  0.00  0.00    +0.000 C 
ENDROOT
BRANCH   1  19
ATOM     18  C   UNL     1       2.629   8.179  17.897  0.00  0.00    +0.000 C 
ATOM     19  O   UNL     1       1.640   8.772  18.725  0.00  0.00    +0.000 OA
ENDBRANCH   1  19
TORSDOF 1
ENDMDL
MODEL 6
REMARK VINA RESULT:      -5.3      6.453      7.858
REMARK  Name = 
REMARK  2 active torsions:
REMARK  status: ('A' for Active; 'I' for Inactive)
REMARK    1  A    between atoms: C_1  and  O_2
REMARK    2  A    between atoms: O_2  and  C_3
REMARK                            x       y       z     vdW  Elec       q    Type
REMARK                         _______ _______ _______ _____ _____    ______ ____
ROOT
ATOM      1  C   UNL     1       0.081  13.742  21.424  0.00  0.00    +0.000 C 
ATOM      2  C   UNL     1       1.421  13.159  21.000  0.00  0.00    +0.000 C 
ATOM      3  O   UNL     1       1.337  11.742  21.202  0.00  0.00    +0.000 OA
ATOM      4  C   UNL     1      -0.058  11.360  21.209  0.00  0.00    +0.000 C 
ATOM      5  C   UNL     1      -0.376  10.784  22.606  0.00  0.00    +0.000 C 
ATOM      6  C   UNL     1       0.283   9.426  22.810  0.00  0.00    +0.000 C 
ATOM      7  C   UNL     1      -0.174   8.487  21.705  0.00  0.00    +0.000 C 
ATOM      8  N   UNL     1       0.279   8.984  20.410  0.00  0.00    +0.000 N 
ATOM      9  C   UNL     1       1.350   8.553  19.637  0.00  0.00    +0.000 C 
ATOM     10  O   UNL     1       1.761   9.247  18.703  0.00  0.00    +0.000 OA
ATOM     11  N   UNL     1       1.952   7.334  19.872  0.00  0.00    +0.000 N 
ATOM     12  C   UNL     1       3.129   6.953  19.101  0.00  0.00    +0.000 C 
ATOM     13  C   UNL     1       3.049   5.439  18.995  0.00  0.00    +0.000 C 
ATOM     14  C   UNL     1       2.415   5.029  20.309  0.00  0.00    +0.000 C 
ATOM     15  C   UNL     1       1.533   6.211  20.691  0.00  0.00    +0.000 C 
ATOM     16  C   UNL     1      -0.306  10.304  20.095  0.00  0.00    +0.000 C 
ATOM     17  C   UNL     1      -0.860  12.649  20.954  0.00  0.00    +0.000 C 
ENDROOT
BRANCH   1  19
ATOM     18  C   UNL     1      -1.268  14.600  23.205  0.00  0.00    +0.000 C 
ATOM     19  O   UNL     1      -0.094  13.890  22.837  0.00  0.00    +0.000 OA
ENDBRANCH   1  19
TORSDOF 1
ENDMDL
MODEL 7
REMARK VINA RESULT:      -5.2      3.119      6.202
REMARK  Name = 
REMARK  2 active torsions:
REMARK  status: ('A' for Active; 'I' for Inactive)
REMARK    1  A    between atoms: C_1  and  O_2
REMARK    2  A    between atoms: O_2  and  C_3
REMARK                            x       y       z     vdW  Elec       q    Type
REMARK                         _______ _______ _______ _____ _____    ______ ____
ROOT
ATOM      1  C   UNL     1       2.596   5.409  19.723  0.00  0.00    +0.000 C 
ATOM      2  C   UNL     1       2.189   4.995  18.317  0.00  0.00    +0.000 C 
ATOM      3  O   UNL     1       3.298   5.300  17.460  0.00  0.00    +0.000 OA
ATOM      4  C   UNL     1       4.497   5.368  18.267  0.00  0.00    +0.000 C 
ATOM      5  C   UNL     1       5.042   6.809  18.171  0.00  0.00    +0.000 C 
ATOM      6  C   UNL     1       5.621   7.094  16.790  0.00  0.00    +0.000 C 
ATOM      7  C   UNL     1       6.704   6.070  16.492  0.00  0.00    +0.000 C 
ATOM      8  N   UNL     1       6.124   4.732  16.437  0.00  0.00    +0.000 N 
ATOM      9  C   UNL     1       5.803   3.966  15.323  0.00  0.00    +0.000 C 
ATOM     10  O   UNL     1       5.077   2.975  15.440  0.00  0.00    +0.000 OA
ATOM     11  N   UNL     1       6.312   4.272  14.078  0.00  0.00    +0.000 N 
ATOM     12  C   UNL     1       5.884   3.502  12.918  0.00  0.00    +0.000 C 
ATOM     13  C   UNL     1       7.085   3.506  11.986  0.00  0.00    +0.000 C 
ATOM     14  C   UNL     1       7.717   4.861  12.234  0.00  0.00    +0.000 C 
ATOM     15  C   UNL     1       7.375   5.179  13.685  0.00  0.00    +0.000 C 
ATOM     16  C   UNL     1       5.533   4.338  17.733  0.00  0.00    +0.000 C 
ATOM     17  C   UNL     1       4.067   5.041  19.708  0.00  0.00    +0.000 C 
ENDROOT
BRANCH   1  19
ATOM     18  C   UNL     1       1.386   7.174  20.796  0.00  0.00    +0.000 C 
ATOM     19  O   UNL     1       2.500   6.812  19.993  0.00  0.00    +0.000 OA
ENDBRANCH   1  19
TORSDOF 1
ENDMDL
MODEL 8
REMARK VINA RESULT:      -5.2      5.958      7.555
REMARK  Name = 
REMARK  2 active torsions:
REMARK  status: ('A' for Active; 'I' for Inactive)
REMARK    1  A    between atoms: C_1  and  O_2
REMARK    2  A    between atoms: O_2  and  C_3
REMARK                            x       y       z     vdW  Elec       q    Type
REMARK                         _______ _______ _______ _____ _____    ______ ____
ROOT
ATOM      1  C   UNL     1       0.269  13.619  20.758  0.00  0.00    +0.000 C 
ATOM      2  C   UNL     1       1.580  13.229  20.090  0.00  0.00    +0.000 C 
ATOM      3  O   UNL     1       1.713  11.810  20.243  0.00  0.00    +0.000 OA
ATOM      4  C   UNL     1       0.400  11.245  20.467  0.00  0.00    +0.000 C 
ATOM      5  C   UNL     1       0.403  10.603  21.871  0.00  0.00    +0.000 C 
ATOM      6  C   UNL     1       1.256   9.341  21.904  0.00  0.00    +0.000 C 
ATOM      7  C   UNL     1       0.740   8.373  20.852  0.00  0.00    +0.000 C 
ATOM      8  N   UNL     1       0.897   8.952  19.522  0.00  0.00    +0.000 N 
ATOM      9  C   UNL     1       1.866   8.684  18.563  0.00  0.00    +0.000 C 
ATOM     10  O   UNL     1       2.018   9.445  17.603  0.00  0.00    +0.000 OA
ATOM     11  N   UNL     1       2.650   7.551  18.641  0.00  0.00    +0.000 N 
ATOM     12  C   UNL     1       3.715   7.346  17.668  0.00  0.00    +0.000 C 
ATOM     13  C   UNL     1       3.813   5.838  17.512  0.00  0.00    +0.000 C 
ATOM     14  C   UNL     1       3.472   5.320  18.895  0.00  0.00    +0.000 C 
ATOM     15  C   UNL     1       2.524   6.366  19.470  0.00  0.00    +0.000 C 
ATOM     16  C   UNL     1       0.102  10.188  19.366  0.00  0.00    +0.000 C 
ATOM     17  C   UNL     1      -0.591  12.421  20.405  0.00  0.00    +0.000 C 
ENDROOT
BRANCH   1  19
ATOM     18  C   UNL     1      -0.369  14.835  22.718  0.00  0.00    +0.000 C 
ATOM     19  O   UNL     1       0.321  13.714  22.185  0.00  0.00    +0.000 OA
ENDBRANCH   1  19
TORSDOF 1
ENDMDL
MODEL 9
REMARK VINA RESULT:      -5.2      9.403     11.031
REMARK  Name = 
REMARK  2 active torsions:
REMARK  status: ('A' for Active; 'I' for Inactive)
REMARK    1  A    between atoms: C_1  and  O_2
REMARK    2  A    between atoms: O_2  and  C_3
REMARK                            x       y       z     vdW  Elec       q    Type
REMARK                         _______ _______ _______ _____ _____    ______ ____
ROOT
ATOM      1  C   UNL     1      -4.140  13.797  24.272  0.00  0.00    +0.000 C 
ATOM      2  C   UNL     1      -3.959  12.286  24.249  0.00  0.00    +0.000 C 
ATOM      3  O   UNL     1      -3.144  11.986  23.108  0.00  0.00    +0.000 OA
ATOM      4  C   UNL     1      -2.399  13.173  22.749  0.00  0.00    +0.000 C 
ATOM      5  C   UNL     1      -2.846  13.593  21.333  0.00  0.00    +0.000 C 
ATOM      6  C   UNL     1      -2.337  12.618  20.277  0.00  0.00    +0.000 C 
ATOM      7  C   UNL     1      -0.823  12.531  20.379  0.00  0.00    +0.000 C 
ATOM      8  N   UNL     1      -0.442  11.982  21.676  0.00  0.00    +0.000 N 
ATOM      9  C   UNL     1      -0.030  10.693  21.991  0.00  0.00    +0.000 C 
ATOM     10  O   UNL     1      -0.002  10.320  23.167  0.00  0.00    +0.000 OA
ATOM     11  N   UNL     1       0.388   9.820  21.008  0.00  0.00    +0.000 N 
ATOM     12  C   UNL     1       0.729   8.448  21.364  0.00  0.00    +0.000 C 
ATOM     13  C   UNL     1       1.812   8.050  20.375  0.00  0.00    +0.000 C 
ATOM     14  C   UNL     1       1.426   8.796  19.113  0.00  0.00    +0.000 C 
ATOM     15  C   UNL     1       0.720  10.050  19.613  0.00  0.00    +0.000 C 
ATOM     16  C   UNL     1      -0.877  12.853  22.788  0.00  0.00    +0.000 C 
ATOM     17  C   UNL     1      -2.777  14.249  23.783  0.00  0.00    +0.000 C 
ENDROOT
BRANCH   1  19
ATOM     18  C   UNL     1      -5.423  15.679  23.537  0.00  0.00    +0.000 C 
ATOM     19  O   UNL     1      -5.120  14.304  23.359  0.00  0.00    +0.000 OA
ENDBRANCH   1  19
TORSDOF 1
ENDMDL
