MODEL 1
REMARK VINA RESULT:      -6.9      0.000      0.000
REMARK  Name = 
REMARK  6 active torsions:
REMARK  status: ('A' for Active; 'I' for Inactive)
REMARK    1  A    between atoms: C_1  and  C_2
REMARK    2  A    between atoms: C_2  and  C_3
REMARK    3  A    between atoms: C_2  and  N_4
REMARK    4  A    between atoms: C_8  and  C_9
REMARK    5  A    between atoms: C_12  and  O_13
REMARK    6  A    between atoms: C_14  and  O_15
REMARK                            x       y       z     vdW  Elec       q    Type
REMARK                         _______ _______ _______ _____ _____    ______ ____
ROOT
ATOM      1  C   UNL     1       4.179   4.555  17.088  0.00  0.00    +0.000 A 
ATOM      2  C   UNL     1       4.100   5.898  17.503  0.00  0.00    +0.000 A 
ATOM      3  C   UNL     1       5.212   6.742  17.446  0.00  0.00    +0.000 A 
ATOM      4  C   UNL     1       6.435   6.267  16.953  0.00  0.00    +0.000 A 
ATOM      5  C   UNL     1       6.544   4.925  16.549  0.00  0.00    +0.000 A 
ATOM      6  C   UNL     1       5.424   4.081  16.615  0.00  0.00    +0.000 A 
ENDROOT
BRANCH   1  11
ATOM      7  N   UNL     1       1.815   3.378  19.342  0.00  0.00    +0.000 NA
ATOM      8  C   UNL     1       2.186   1.956  19.234  0.00  0.00    +0.000 C 
ATOM      9  C   UNL     1       3.406   1.768  18.326  0.00  0.00    +0.000 C 
ATOM     10  O   UNL     1       3.180   2.288  17.024  0.00  0.00    +0.000 OA
ATOM     11  C   UNL     1       2.912   3.684  17.056  0.00  0.00    +0.000 C 
ATOM     12  C   UNL     1       1.724   4.012  18.014  0.00  0.00    +0.000 C 
BRANCH   7  14
ATOM     13  C   UNL     1       1.668   5.580  20.495  0.00  0.00    +0.000 C 
ATOM     14  C   UNL     1       2.347   4.198  20.461  0.00  0.00    +0.000 C 
ATOM     15  C   UNL     1       2.223   3.527  21.830  0.00  0.00    +0.000 C 
ENDBRANCH   7  14
ENDBRANCH   1  11
BRANCH   4  16
ATOM     16  O   UNL     1       7.502   7.090  16.859  0.00  0.00    +0.000 OA
ATOM     17  H   UNL     1       7.563   7.789  16.190  0.00  0.00    +0.000 HD
ENDBRANCH   4  16
BRANCH   5  18
ATOM     18  O   UNL     1       7.706   4.435  16.059  0.00  0.00    +0.000 OA
ATOM     19  H   UNL     1       7.753   3.913  15.244  0.00  0.00    +0.000 HD
ENDBRANCH   5  18
TORSDOF 4
ENDMDL
MODEL 2
REMARK VINA RESULT:      -6.7      1.299      1.796
REMARK  Name = 
REMARK  6 active torsions:
REMARK  status: ('A' for Active; 'I' for Inactive)
REMARK    1  A    between atoms: C_1  and  C_2
REMARK    2  A    between atoms: C_2  and  C_3
REMARK    3  A    between atoms: C_2  and  N_4
REMARK    4  A    between atoms: C_8  and  C_9
REMARK    5  A    between atoms: C_12  and  O_13
REMARK    6  A    between atoms: C_14  and  O_15
REMARK                            x       y       z     vdW  Elec       q    Type
REMARK                         _______ _______ _______ _____ _____    ______ ____
ROOT
ATOM      1  C   UNL     1       4.097   4.109  17.161  0.00  0.00    +0.000 A 
ATOM      2  C   UNL     1       4.920   3.926  16.034  0.00  0.00    +0.000 A 
ATOM      3  C   UNL     1       6.305   4.097  16.111  0.00  0.00    +0.000 A 
ATOM      4  C   UNL     1       6.908   4.437  17.329  0.00  0.00    +0.000 A 
ATOM      5  C   UNL     1       6.105   4.642  18.466  0.00  0.00    +0.000 A 
ATOM      6  C   UNL     1       4.713   4.476  18.378  0.00  0.00    +0.000 A 
ENDROOT
BRANCH   1  11
ATOM      7  N   UNL     1       1.376   3.962  19.312  0.00  0.00    +0.000 NA
ATOM      8  C   UNL     1       1.164   2.508  19.201  0.00  0.00    +0.000 C 
ATOM      9  C   UNL     1       2.246   1.854  18.337  0.00  0.00    +0.000 C 
ATOM     10  O   UNL     1       2.292   2.415  17.033  0.00  0.00    +0.000 OA
ATOM     11  C   UNL     1       2.592   3.805  17.072  0.00  0.00    +0.000 C 
ATOM     12  C   UNL     1       1.592   4.576  17.989  0.00  0.00    +0.000 C 
BRANCH   7  14
ATOM     13  C   UNL     1       1.618   5.907  20.848  0.00  0.00    +0.000 C 
ATOM     14  C   UNL     1       2.143   4.513  20.460  0.00  0.00    +0.000 C 
ATOM     15  C   UNL     1       2.152   3.602  21.688  0.00  0.00    +0.000 C 
ENDBRANCH   7  14
ENDBRANCH   1  11
BRANCH   4  16
ATOM     16  O   UNL     1       8.250   4.564  17.418  0.00  0.00    +0.000 OA
ATOM     17  H   UNL     1       8.858   4.079  16.839  0.00  0.00    +0.000 HD
ENDBRANCH   4  16
BRANCH   5  18
ATOM     18  O   UNL     1       6.653   4.962  19.660  0.00  0.00    +0.000 OA
ATOM     19  H   UNL     1       6.122   5.207  20.433  0.00  0.00    +0.000 HD
ENDBRANCH   5  18
TORSDOF 4
ENDMDL
MODEL 3
REMARK VINA RESULT:      -6.6      1.710      2.564
REMARK  Name = 
REMARK  6 active torsions:
REMARK  status: ('A' for Active; 'I' for Inactive)
REMARK    1  A    between atoms: C_1  and  C_2
REMARK    2  A    between atoms: C_2  and  C_3
REMARK    3  A    between atoms: C_2  and  N_4
REMARK    4  A    between atoms: C_8  and  C_9
REMARK    5  A    between atoms: C_12  and  O_13
REMARK    6  A    between atoms: C_14  and  O_15
REMARK                            x       y       z     vdW  Elec       q    Type
REMARK                         _______ _______ _______ _____ _____    ______ ____
ROOT
ATOM      1  C   UNL     1       4.650   5.552  18.022  0.00  0.00    +0.000 A 
ATOM      2  C   UNL     1       4.551   5.985  16.686  0.00  0.00    +0.000 A 
ATOM      3  C   UNL     1       5.597   5.787  15.779  0.00  0.00    +0.000 A 
ATOM      4  C   UNL     1       6.767   5.132  16.183  0.00  0.00    +0.000 A 
ATOM      5  C   UNL     1       6.897   4.705  17.517  0.00  0.00    +0.000 A 
ATOM      6  C   UNL     1       5.845   4.913  18.423  0.00  0.00    +0.000 A 
ENDROOT
BRANCH   1  11
ATOM      7  N   UNL     1       2.493   3.439  19.735  0.00  0.00    +0.000 NA
ATOM      8  C   UNL     1       1.287   3.780  18.959  0.00  0.00    +0.000 C 
ATOM      9  C   UNL     1       1.617   4.744  17.815  0.00  0.00    +0.000 C 
ATOM     10  O   UNL     1       2.217   5.941  18.288  0.00  0.00    +0.000 OA
ATOM     11  C   UNL     1       3.442   5.682  18.963  0.00  0.00    +0.000 C 
ATOM     12  C   UNL     1       3.246   4.648  20.116  0.00  0.00    +0.000 C 
BRANCH   7  14
ATOM     13  C   UNL     1       3.505   2.134  17.871  0.00  0.00    +0.000 C 
ATOM     14  C   UNL     1       3.273   2.221  19.391  0.00  0.00    +0.000 C 
ATOM     15  C   UNL     1       4.610   2.119  20.125  0.00  0.00    +0.000 C 
ENDBRANCH   7  14
ENDBRANCH   1  11
BRANCH   4  16
ATOM     16  O   UNL     1       7.764   4.903  15.301  0.00  0.00    +0.000 OA
ATOM     17  H   UNL     1       7.730   5.219  14.384  0.00  0.00    +0.000 HD
ENDBRANCH   4  16
BRANCH   5  18
ATOM     18  O   UNL     1       8.008   4.060  17.939  0.00  0.00    +0.000 OA
ATOM     19  H   UNL     1       7.998   3.418  18.665  0.00  0.00    +0.000 HD
ENDBRANCH   5  18
TORSDOF 4
ENDMDL
MODEL 4
REMARK VINA RESULT:      -6.6      1.116      1.176
REMARK  Name = 
REMARK  6 active torsions:
REMARK  status: ('A' for Active; 'I' for Inactive)
REMARK    1  A    between atoms: C_1  and  C_2
REMARK    2  A    between atoms: C_2  and  C_3
REMARK    3  A    between atoms: C_2  and  N_4
REMARK    4  A    between atoms: C_8  and  C_9
REMARK    5  A    between atoms: C_12  and  O_13
REMARK    6  A    between atoms: C_14  and  O_15
REMARK                            x       y       z     vdW  Elec       q    Type
REMARK                         _______ _______ _______ _____ _____    ______ ____
ROOT
ATOM      1  C   UNL     1       4.748   4.475  17.617  0.00  0.00    +0.000 A 
ATOM      2  C   UNL     1       5.088   4.702  18.964  0.00  0.00    +0.000 A 
ATOM      3  C   UNL     1       6.236   5.419  19.313  0.00  0.00    +0.000 A 
ATOM      4  C   UNL     1       7.067   5.948  18.317  0.00  0.00    +0.000 A 
ATOM      5  C   UNL     1       6.759   5.720  16.964  0.00  0.00    +0.000 A 
ATOM      6  C   UNL     1       5.608   4.992  16.622  0.00  0.00    +0.000 A 
ENDROOT
BRANCH   1  11
ATOM      7  N   UNL     1       1.887   3.415  19.273  0.00  0.00    +0.000 NA
ATOM      8  C   UNL     1       2.113   1.972  19.073  0.00  0.00    +0.000 C 
ATOM      9  C   UNL     1       3.454   1.711  18.379  0.00  0.00    +0.000 C 
ATOM     10  O   UNL     1       3.536   2.371  17.124  0.00  0.00    +0.000 OA
ATOM     11  C   UNL     1       3.422   3.781  17.265  0.00  0.00    +0.000 C 
ATOM     12  C   UNL     1       2.118   4.172  18.029  0.00  0.00    +0.000 C 
BRANCH   7  14
ATOM     13  C   UNL     1       1.666   5.460  20.676  0.00  0.00    +0.000 C 
ATOM     14  C   UNL     1       2.285   4.056  20.553  0.00  0.00    +0.000 C 
ATOM     15  C   UNL     1       1.938   3.227  21.791  0.00  0.00    +0.000 C 
ENDBRANCH   7  14
ENDBRANCH   1  11
BRANCH   4  16
ATOM     16  O   UNL     1       8.156   6.676  18.649  0.00  0.00    +0.000 OA
ATOM     17  H   UNL     1       8.245   7.614  18.418  0.00  0.00    +0.000 HD
ENDBRANCH   4  16
BRANCH   5  18
ATOM     18  O   UNL     1       7.534   6.223  15.977  0.00  0.00    +0.000 OA
ATOM     19  H   UNL     1       7.440   7.130  15.647  0.00  0.00    +0.000 HD
ENDBRANCH   5  18
TORSDOF 4
ENDMDL
MODEL 5
REMARK VINA RESULT:      -6.6      1.742      2.536
REMARK  Name = 
REMARK  6 active torsions:
REMARK  status: ('A' for Active; 'I' for Inactive)
REMARK    1  A    between atoms: C_1  and  C_2
REMARK    2  A    between atoms: C_2  and  C_3
REMARK    3  A    between atoms: C_2  and  N_4
REMARK    4  A    between atoms: C_8  and  C_9
REMARK    5  A    between atoms: C_12  and  O_13
REMARK    6  A    between atoms: C_14  and  O_15
REMARK                            x       y       z     vdW  Elec       q    Type
REMARK                         _______ _______ _______ _____ _____    ______ ____
ROOT
ATOM      1  C   UNL     1       4.219   5.338  18.220  0.00  0.00    +0.000 A 
ATOM      2  C   UNL     1       4.629   4.751  17.007  0.00  0.00    +0.000 A 
ATOM      3  C   UNL     1       5.956   4.368  16.799  0.00  0.00    +0.000 A 
ATOM      4  C   UNL     1       6.910   4.545  17.809  0.00  0.00    +0.000 A 
ATOM      5  C   UNL     1       6.529   5.145  19.023  0.00  0.00    +0.000 A 
ATOM      6  C   UNL     1       5.195   5.534  19.222  0.00  0.00    +0.000 A 
ENDROOT
BRANCH   1  11
ATOM      7  N   UNL     1       1.673   4.219  20.297  0.00  0.00    +0.000 NA
ATOM      8  C   UNL     1       0.854   3.611  19.232  0.00  0.00    +0.000 C 
ATOM      9  C   UNL     1       1.560   3.694  17.875  0.00  0.00    +0.000 C 
ATOM     10  O   UNL     1       1.862   5.035  17.517  0.00  0.00    +0.000 OA
ATOM     11  C   UNL     1       2.732   5.645  18.462  0.00  0.00    +0.000 C 
ATOM     12  C   UNL     1       2.150   5.558  19.908  0.00  0.00    +0.000 C 
BRANCH   7  14
ATOM     13  C   UNL     1       1.787   2.453  22.048  0.00  0.00    +0.000 C 
ATOM     14  C   UNL     1       2.587   3.369  21.104  0.00  0.00    +0.000 C 
ATOM     15  C   UNL     1       3.552   2.532  20.264  0.00  0.00    +0.000 C 
ENDBRANCH   7  14
ENDBRANCH   1  11
BRANCH   4  16
ATOM     16  O   UNL     1       8.185   4.140  17.627  0.00  0.00    +0.000 OA
ATOM     17  H   UNL     1       8.434   3.495  16.946  0.00  0.00    +0.000 HD
ENDBRANCH   4  16
BRANCH   5  18
ATOM     18  O   UNL     1       7.421   5.323  20.024  0.00  0.00    +0.000 OA
ATOM     19  H   UNL     1       7.157   5.420  20.951  0.00  0.00    +0.000 HD
ENDBRANCH   5  18
TORSDOF 4
ENDMDL
MODEL 6
REMARK VINA RESULT:      -6.5      1.319      1.465
REMARK  Name = 
REMARK  6 active torsions:
REMARK  status: ('A' for Active; 'I' for Inactive)
REMARK    1  A    between atoms: C_1  and  C_2
REMARK    2  A    between atoms: C_2  and  C_3
REMARK    3  A    between atoms: C_2  and  N_4
REMARK    4  A    between atoms: C_8  and  C_9
REMARK    5  A    between atoms: C_12  and  O_13
REMARK    6  A    between atoms: C_14  and  O_15
REMARK                            x       y       z     vdW  Elec       q    Type
REMARK                         _______ _______ _______ _____ _____    ______ ____
ROOT
ATOM      1  C   UNL     1       4.457   5.037  17.565  0.00  0.00    +0.000 A 
ATOM      2  C   UNL     1       4.922   5.998  16.648  0.00  0.00    +0.000 A 
ATOM      3  C   UNL     1       6.106   6.704  16.874  0.00  0.00    +0.000 A 
ATOM      4  C   UNL     1       6.871   6.453  18.020  0.00  0.00    +0.000 A 
ATOM      5  C   UNL     1       6.419   5.510  18.961  0.00  0.00    +0.000 A 
ATOM      6  C   UNL     1       5.224   4.809  18.730  0.00  0.00    +0.000 A 
ENDROOT
BRANCH   1  11
ATOM      7  N   UNL     1       1.893   3.458  19.294  0.00  0.00    +0.000 NA
ATOM      8  C   UNL     1       2.294   2.082  18.950  0.00  0.00    +0.000 C 
ATOM      9  C   UNL     1       3.602   2.068  18.152  0.00  0.00    +0.000 C 
ATOM     10  O   UNL     1       3.502   2.832  16.960  0.00  0.00    +0.000 OA
ATOM     11  C   UNL     1       3.212   4.197  17.235  0.00  0.00    +0.000 C 
ATOM     12  C   UNL     1       1.929   4.339  18.112  0.00  0.00    +0.000 C 
BRANCH   7  14
ATOM     13  C   UNL     1       1.690   5.444  20.782  0.00  0.00    +0.000 C 
ATOM     14  C   UNL     1       2.297   4.041  20.600  0.00  0.00    +0.000 C 
ATOM     15  C   UNL     1       1.945   3.164  21.801  0.00  0.00    +0.000 C 
ENDBRANCH   7  14
ENDBRANCH   1  11
BRANCH   4  16
ATOM     16  O   UNL     1       8.037   7.104  18.223  0.00  0.00    +0.000 OA
ATOM     17  H   UNL     1       8.093   7.920  18.745  0.00  0.00    +0.000 HD
ENDBRANCH   4  16
BRANCH   5  18
ATOM     18  O   UNL     1       7.136   5.235  20.074  0.00  0.00    +0.000 OA
ATOM     19  H   UNL     1       6.774   5.329  20.968  0.00  0.00    +0.000 HD
ENDBRANCH   5  18
TORSDOF 4
ENDMDL
MODEL 7
REMARK VINA RESULT:      -6.5      1.814      2.612
REMARK  Name = 
REMARK  6 active torsions:
REMARK  status: ('A' for Active; 'I' for Inactive)
REMARK    1  A    between atoms: C_1  and  C_2
REMARK    2  A    between atoms: C_2  and  C_3
REMARK    3  A    between atoms: C_2  and  N_4
REMARK    4  A    between atoms: C_8  and  C_9
REMARK    5  A    between atoms: C_12  and  O_13
REMARK    6  A    between atoms: C_14  and  O_15
REMARK                            x       y       z     vdW  Elec       q    Type
REMARK                         _______ _______ _______ _____ _____    ______ ____
ROOT
ATOM      1  C   UNL     1       4.821   5.803  17.656  0.00  0.00    +0.000 A 
ATOM      2  C   UNL     1       4.685   6.395  16.387  0.00  0.00    +0.000 A 
ATOM      3  C   UNL     1       5.670   6.245  15.406  0.00  0.00    +0.000 A 
ATOM      4  C   UNL     1       6.813   5.478  15.666  0.00  0.00    +0.000 A 
ATOM      5  C   UNL     1       6.980   4.890  16.933  0.00  0.00    +0.000 A 
ATOM      6  C   UNL     1       5.990   5.052  17.914  0.00  0.00    +0.000 A 
ENDROOT
BRANCH   1  11
ATOM      7  N   UNL     1       3.055   3.647  19.727  0.00  0.00    +0.000 NA
ATOM      8  C   UNL     1       1.767   3.766  19.020  0.00  0.00    +0.000 C 
ATOM      9  C   UNL     1       1.901   4.637  17.766  0.00  0.00    +0.000 C 
ATOM     10  O   UNL     1       2.382   5.937  18.074  0.00  0.00    +0.000 OA
ATOM     11  C   UNL     1       3.671   5.891  18.673  0.00  0.00    +0.000 C 
ATOM     12  C   UNL     1       3.679   4.967  19.931  0.00  0.00    +0.000 C 
BRANCH   7  14
ATOM     13  C   UNL     1       4.469   1.871  20.749  0.00  0.00    +0.000 C 
ATOM     14  C   UNL     1       3.952   2.497  19.441  0.00  0.00    +0.000 C 
ATOM     15  C   UNL     1       3.311   1.418  18.568  0.00  0.00    +0.000 C 
ENDBRANCH   7  14
ENDBRANCH   1  11
BRANCH   4  16
ATOM     16  O   UNL     1       7.749   5.298  14.708  0.00  0.00    +0.000 OA
ATOM     17  H   UNL     1       8.212   6.038  14.287  0.00  0.00    +0.000 HD
ENDBRANCH   4  16
BRANCH   5  18
ATOM     18  O   UNL     1       8.067   4.136  17.215  0.00  0.00    +0.000 OA
ATOM     19  H   UNL     1       8.034   3.369  17.806  0.00  0.00    +0.000 HD
ENDBRANCH   5  18
TORSDOF 4
ENDMDL
MODEL 8
REMARK VINA RESULT:      -6.4      3.325      4.456
REMARK  Name = 
REMARK  6 active torsions:
REMARK  status: ('A' for Active; 'I' for Inactive)
REMARK    1  A    between atoms: C_1  and  C_2
REMARK    2  A    between atoms: C_2  and  C_3
REMARK    3  A    between atoms: C_2  and  N_4
REMARK    4  A    between atoms: C_8  and  C_9
REMARK    5  A    between atoms: C_12  and  O_13
REMARK    6  A    between atoms: C_14  and  O_15
REMARK                            x       y       z     vdW  Elec       q    Type
REMARK                         _______ _______ _______ _____ _____    ______ ____
ROOT
ATOM      1  C   UNL     1       2.791   6.930  18.390  0.00  0.00    +0.000 A 
ATOM      2  C   UNL     1       2.310   6.901  19.712  0.00  0.00    +0.000 A 
ATOM      3  C   UNL     1       1.646   7.998  20.267  0.00  0.00    +0.000 A 
ATOM      4  C   UNL     1       1.428   9.152  19.503  0.00  0.00    +0.000 A 
ATOM      5  C   UNL     1       1.914   9.211  18.184  0.00  0.00    +0.000 A 
ATOM      6  C   UNL     1       2.586   8.108  17.637  0.00  0.00    +0.000 A 
ENDROOT
BRANCH   1  11
ATOM      7  N   UNL     1       3.174   3.581  19.223  0.00  0.00    +0.000 NA
ATOM      8  C   UNL     1       4.640   3.621  19.375  0.00  0.00    +0.000 C 
ATOM      9  C   UNL     1       5.176   5.046  19.200  0.00  0.00    +0.000 C 
ATOM     10  O   UNL     1       4.827   5.591  17.936  0.00  0.00    +0.000 OA
ATOM     11  C   UNL     1       3.417   5.668  17.771  0.00  0.00    +0.000 C 
ATOM     12  C   UNL     1       2.741   4.279  17.999  0.00  0.00    +0.000 C 
BRANCH   7  14
ATOM     13  C   UNL     1       0.818   3.571  20.031  0.00  0.00    +0.000 C 
ATOM     14  C   UNL     1       2.303   3.691  20.423  0.00  0.00    +0.000 C 
ATOM     15  C   UNL     1       2.633   2.676  21.518  0.00  0.00    +0.000 C 
ENDBRANCH   7  14
ENDBRANCH   1  11
BRANCH   4  16
ATOM     16  O   UNL     1       0.751  10.200  20.022  0.00  0.00    +0.000 OA
ATOM     17  H   UNL     1      -0.167  10.128  20.325  0.00  0.00    +0.000 HD
ENDBRANCH   4  16
BRANCH   5  18
ATOM     18  O   UNL     1       1.713  10.305  17.415  0.00  0.00    +0.000 OA
ATOM     19  H   UNL     1       2.332  11.051  17.390  0.00  0.00    +0.000 HD
ENDBRANCH   5  18
TORSDOF 4
ENDMDL
MODEL 9
REMARK VINA RESULT:      -6.4      1.376      1.712
REMARK  Name = 
REMARK  6 active torsions:
REMARK  status: ('A' for Active; 'I' for Inactive)
REMARK    1  A    between atoms: C_1  and  C_2
REMARK    2  A    between atoms: C_2  and  C_3
REMARK    3  A    between atoms: C_2  and  N_4
REMARK    4  A    between atoms: C_8  and  C_9
REMARK    5  A    between atoms: C_12  and  O_13
REMARK    6  A    between atoms: C_14  and  O_15
REMARK                            x       y       z     vdW  Elec       q    Type
REMARK                         _______ _______ _______ _____ _____    ______ ____
ROOT
ATOM      1  C   UNL     1       4.500   4.657  17.604  0.00  0.00    +0.000 A 
ATOM      2  C   UNL     1       4.820   5.656  16.665  0.00  0.00    +0.000 A 
ATOM      3  C   UNL     1       5.919   6.500  16.849  0.00  0.00    +0.000 A 
ATOM      4  C   UNL     1       6.740   6.354  17.975  0.00  0.00    +0.000 A 
ATOM      5  C   UNL     1       6.431   5.376  18.936  0.00  0.00    +0.000 A 
ATOM      6  C   UNL     1       5.322   4.536  18.747  0.00  0.00    +0.000 A 
ENDROOT
BRANCH   1  11
ATOM      7  N   UNL     1       1.531   3.667  19.107  0.00  0.00    +0.000 NA
ATOM      8  C   UNL     1       1.962   2.292  19.420  0.00  0.00    +0.000 C 
ATOM      9  C   UNL     1       3.429   2.071  19.038  0.00  0.00    +0.000 C 
ATOM     10  O   UNL     1       3.661   2.326  17.661  0.00  0.00    +0.000 OA
ATOM     11  C   UNL     1       3.355   3.672  17.319  0.00  0.00    +0.000 C 
ATOM     12  C   UNL     1       1.895   4.043  17.729  0.00  0.00    +0.000 C 
BRANCH   7  14
ATOM     13  C   UNL     1       2.387   4.217  21.379  0.00  0.00    +0.000 C 
ATOM     14  C   UNL     1       1.606   4.721  20.152  0.00  0.00    +0.000 C 
ATOM     15  C   UNL     1       2.211   6.036  19.657  0.00  0.00    +0.000 C 
ENDBRANCH   7  14
ENDBRANCH   1  11
BRANCH   4  16
ATOM     16  O   UNL     1       7.826   7.142  18.137  0.00  0.00    +0.000 OA
ATOM     17  H   UNL     1       8.718   6.857  17.884  0.00  0.00    +0.000 HD
ENDBRANCH   4  16
BRANCH   5  18
ATOM     18  O   UNL     1       7.208   5.201  20.029  0.00  0.00    +0.000 OA
ATOM     19  H   UNL     1       6.932   5.473  20.918  0.00  0.00    +0.000 HD
ENDBRANCH   5  18
TORSDOF 4
ENDMDL
