MODEL 1
REMARK VINA RESULT:      -8.4      0.000      0.000
REMARK  Name = 
REMARK  7 active torsions:
REMARK  status: ('A' for Active; 'I' for Inactive)
REMARK    1  A    between atoms: C_2  and  C_3
REMARK    2  A    between atoms: C_3  and  N_4
REMARK    3  A    between atoms: C_9  and  N_10
REMARK    4  A    between atoms: N_10  and  C_11
REMARK    5  A    between atoms: C_11  and  N_16
REMARK    6  A    between atoms: C_12  and  N_13
REMARK    7  A    between atoms: N_16  and  C_17
REMARK                            x       y       z     vdW  Elec       q    Type
REMARK                         _______ _______ _______ _____ _____    ______ ____
ROOT
ATOM      1  N   UNL     1       2.569   5.099  19.122  0.00  0.00    +0.000 N 
ATOM      2  C   UNL     1       1.533   4.535  18.255  0.00  0.00    +0.000 C 
ATOM      3  C   UNL     1       1.412   3.019  18.409  0.00  0.00    +0.000 C 
ATOM      4  C   UNL     1       2.441   2.201  17.624  0.00  0.00    +0.000 C 
ATOM      5  C   UNL     1       3.910   2.456  17.981  0.00  0.00    +0.000 C 
ATOM      6  C   UNL     1       4.303   3.921  17.788  0.00  0.00    +0.000 C 
ATOM      7  C   UNL     1       3.903   4.740  19.030  0.00  0.00    +0.000 C 
ATOM      8  O   UNL     1       4.726   5.040  19.898  0.00  0.00    +0.000 OA
ENDROOT
BRANCH   6   9
ATOM      9  N   UNL     1       5.749   4.055  17.544  0.00  0.00    +0.000 N 
ATOM     10  H   UNL     1       6.299   3.581  18.267  0.00  0.00    +0.000 HD
BRANCH   9  11
ATOM     11  C   UNL     1       6.413   5.237  17.192  0.00  0.00    +0.000 C 
ATOM     12  C   UNL     1       7.239   5.841  18.074  0.00  0.00    +0.000 C 
BRANCH  12  13
ATOM     13  N   UNL     1       7.928   7.073  17.810  0.00  0.00    +0.000 N 
ATOM     14  O   UNL     1       8.455   7.689  18.747  0.00  0.00    +0.000 OA
ATOM     15  O   UNL     1       7.985   7.408  16.620  0.00  0.00    +0.000 OA
ENDBRANCH  12  13
BRANCH  11  16
ATOM     16  N   UNL     1       6.070   5.749  15.946  0.00  0.00    +0.000 N 
ATOM     17  H   UNL     1       6.444   6.694  15.811  0.00  0.00    +0.000 HD
BRANCH  16  18
ATOM     18  C   UNL     1       6.282   5.061  14.713  0.00  0.00    +0.000 A 
ATOM     19  C   UNL     1       5.390   4.125  14.175  0.00  0.00    +0.000 A 
ATOM     20  C   UNL     1       5.645   3.516  12.940  0.00  0.00    +0.000 A 
ATOM     21  C   UNL     1       6.791   3.841  12.219  0.00  0.00    +0.000 A 
ATOM     22  C   UNL     1       7.698   4.762  12.746  0.00  0.00    +0.000 A 
ATOM     23  C   UNL     1       7.445   5.358  13.984  0.00  0.00    +0.000 A 
ENDBRANCH  16  18
ENDBRANCH  11  16
ENDBRANCH   9  11
ENDBRANCH   6   9
BRANCH   1  24
ATOM     24  C   UNL     1       2.181   6.135  20.089  0.00  0.00    +0.000 C 
BRANCH  24  26
ATOM     25  O   UNL     1       2.685   7.824  18.411  0.00  0.00    +0.000 OA
ATOM     26  C   UNL     1       2.109   7.545  19.465  0.00  0.00    +0.000 C 
ATOM     27  N   UNL     1       1.325   8.473  20.118  0.00  0.00    +0.000 N 
ATOM     28  C   UNL     1       1.084   9.786  19.550  0.00  0.00    +0.000 C 
ATOM     29  C   UNL     1       0.798  10.660  20.757  0.00  0.00    +0.000 C 
ATOM     30  C   UNL     1       0.075   9.706  21.702  0.00  0.00    +0.000 C 
ATOM     31  C   UNL     1       0.757   8.362  21.453  0.00  0.00    +0.000 C 
ENDBRANCH  24  26
ENDBRANCH   1  24
TORSDOF 7
ENDMDL
MODEL 2
REMARK VINA RESULT:      -8.3      1.676      3.335
REMARK  Name = 
REMARK  7 active torsions:
REMARK  status: ('A' for Active; 'I' for Inactive)
REMARK    1  A    between atoms: C_2  and  C_3
REMARK    2  A    between atoms: C_3  and  N_4
REMARK    3  A    between atoms: C_9  and  N_10
REMARK    4  A    between atoms: N_10  and  C_11
REMARK    5  A    between atoms: C_11  and  N_16
REMARK    6  A    between atoms: C_12  and  N_13
REMARK    7  A    between atoms: N_16  and  C_17
REMARK                            x       y       z     vdW  Elec       q    Type
REMARK                         _______ _______ _______ _____ _____    ______ ____
ROOT
ATOM      1  N   UNL     1       2.550   5.072  19.047  0.00  0.00    +0.000 N 
ATOM      2  C   UNL     1       1.387   4.464  18.398  0.00  0.00    +0.000 C 
ATOM      3  C   UNL     1       1.275   2.969  18.696  0.00  0.00    +0.000 C 
ATOM      4  C   UNL     1       2.163   2.065  17.836  0.00  0.00    +0.000 C 
ATOM      5  C   UNL     1       3.672   2.314  17.943  0.00  0.00    +0.000 C 
ATOM      6  C   UNL     1       4.046   3.748  17.571  0.00  0.00    +0.000 C 
ATOM      7  C   UNL     1       3.850   4.675  18.785  0.00  0.00    +0.000 C 
ATOM      8  O   UNL     1       4.799   5.025  19.490  0.00  0.00    +0.000 OA
ENDROOT
BRANCH   6   9
ATOM      9  N   UNL     1       5.439   3.828  17.100  0.00  0.00    +0.000 N 
ATOM     10  H   UNL     1       6.078   4.096  17.856  0.00  0.00    +0.000 HD
BRANCH   9  11
ATOM     11  C   UNL     1       5.871   4.451  15.921  0.00  0.00    +0.000 C 
ATOM     12  C   UNL     1       6.166   3.711  14.831  0.00  0.00    +0.000 C 
BRANCH  12  13
ATOM     13  N   UNL     1       6.651   4.265  13.598  0.00  0.00    +0.000 N 
ATOM     14  O   UNL     1       7.385   5.263  13.625  0.00  0.00    +0.000 OA
ATOM     15  O   UNL     1       6.327   3.653  12.573  0.00  0.00    +0.000 OA
ENDBRANCH  12  13
BRANCH  11  16
ATOM     16  N   UNL     1       6.052   5.826  16.023  0.00  0.00    +0.000 N 
ATOM     17  H   UNL     1       5.155   6.321  16.064  0.00  0.00    +0.000 HD
BRANCH  16  18
ATOM     18  C   UNL     1       6.894   6.453  16.991  0.00  0.00    +0.000 A 
ATOM     19  C   UNL     1       7.191   7.821  17.001  0.00  0.00    +0.000 A 
ATOM     20  C   UNL     1       7.996   8.374  18.005  0.00  0.00    +0.000 A 
ATOM     21  C   UNL     1       8.507   7.570  19.020  0.00  0.00    +0.000 A 
ATOM     22  C   UNL     1       8.231   6.201  19.019  0.00  0.00    +0.000 A 
ATOM     23  C   UNL     1       7.438   5.652  18.008  0.00  0.00    +0.000 A 
ENDBRANCH  16  18
ENDBRANCH  11  16
ENDBRANCH   9  11
ENDBRANCH   6   9
BRANCH   1  24
ATOM     24  C   UNL     1       2.325   6.192  19.971  0.00  0.00    +0.000 C 
BRANCH  24  26
ATOM     25  O   UNL     1       2.624   7.756  18.131  0.00  0.00    +0.000 OA
ATOM     26  C   UNL     1       2.147   7.544  19.248  0.00  0.00    +0.000 C 
ATOM     27  N   UNL     1       1.382   8.494  19.890  0.00  0.00    +0.000 N 
ATOM     28  C   UNL     1       1.043   9.748  19.243  0.00  0.00    +0.000 C 
ATOM     29  C   UNL     1       0.819  10.707  20.398  0.00  0.00    +0.000 C 
ATOM     30  C   UNL     1       0.214   9.809  21.471  0.00  0.00    +0.000 C 
ATOM     31  C   UNL     1       0.927   8.473  21.272  0.00  0.00    +0.000 C 
ENDBRANCH  24  26
ENDBRANCH   1  24
TORSDOF 7
ENDMDL
MODEL 3
REMARK VINA RESULT:      -8.3      2.464      7.738
REMARK  Name = 
REMARK  7 active torsions:
REMARK  status: ('A' for Active; 'I' for Inactive)
REMARK    1  A    between atoms: C_2  and  C_3
REMARK    2  A    between atoms: C_3  and  N_4
REMARK    3  A    between atoms: C_9  and  N_10
REMARK    4  A    between atoms: N_10  and  C_11
REMARK    5  A    between atoms: C_11  and  N_16
REMARK    6  A    between atoms: C_12  and  N_13
REMARK    7  A    between atoms: N_16  and  C_17
REMARK                            x       y       z     vdW  Elec       q    Type
REMARK                         _______ _______ _______ _____ _____    ______ ____
ROOT
ATOM      1  N   UNL     1       5.888   5.681  16.338  0.00  0.00    +0.000 N 
ATOM      2  C   UNL     1       6.295   6.951  16.944  0.00  0.00    +0.000 C 
ATOM      3  C   UNL     1       7.674   6.864  17.597  0.00  0.00    +0.000 C 
ATOM      4  C   UNL     1       7.692   6.248  19.000  0.00  0.00    +0.000 C 
ATOM      5  C   UNL     1       7.183   4.806  19.103  0.00  0.00    +0.000 C 
ATOM      6  C   UNL     1       5.746   4.666  18.601  0.00  0.00    +0.000 C 
ATOM      7  C   UNL     1       5.736   4.514  17.069  0.00  0.00    +0.000 C 
ATOM      8  O   UNL     1       5.618   3.412  16.529  0.00  0.00    +0.000 OA
ENDROOT
BRANCH   6   9
ATOM      9  N   UNL     1       5.077   3.510  19.222  0.00  0.00    +0.000 N 
ATOM     10  H   UNL     1       5.299   2.637  18.733  0.00  0.00    +0.000 HD
BRANCH   9  11
ATOM     11  C   UNL     1       3.735   3.458  19.621  0.00  0.00    +0.000 C 
ATOM     12  C   UNL     1       3.359   2.652  20.638  0.00  0.00    +0.000 C 
BRANCH  12  13
ATOM     13  N   UNL     1       2.002   2.510  21.084  0.00  0.00    +0.000 N 
ATOM     14  O   UNL     1       1.753   2.541  22.298  0.00  0.00    +0.000 OA
ATOM     15  O   UNL     1       1.153   2.412  20.190  0.00  0.00    +0.000 OA
ENDBRANCH  12  13
BRANCH  11  16
ATOM     16  N   UNL     1       2.865   4.205  18.835  0.00  0.00    +0.000 N 
ATOM     17  H   UNL     1       1.992   3.697  18.654  0.00  0.00    +0.000 HD
BRANCH  16  18
ATOM     18  C   UNL     1       2.487   5.553  19.117  0.00  0.00    +0.000 A 
ATOM     19  C   UNL     1       1.971   5.979  20.348  0.00  0.00    +0.000 A 
ATOM     20  C   UNL     1       1.658   7.326  20.567  0.00  0.00    +0.000 A 
ATOM     21  C   UNL     1       1.866   8.269  19.564  0.00  0.00    +0.000 A 
ATOM     22  C   UNL     1       2.368   7.860  18.327  0.00  0.00    +0.000 A 
ATOM     23  C   UNL     1       2.667   6.513  18.109  0.00  0.00    +0.000 A 
ENDBRANCH  16  18
ENDBRANCH  11  16
ENDBRANCH   9  11
ENDBRANCH   6   9
BRANCH   1  24
ATOM     24  C   UNL     1       5.570   5.664  14.903  0.00  0.00    +0.000 C 
BRANCH  24  26
ATOM     25  O   UNL     1       7.875   5.535  14.135  0.00  0.00    +0.000 OA
ATOM     26  C   UNL     1       6.722   5.110  14.038  0.00  0.00    +0.000 C 
ATOM     27  N   UNL     1       6.411   4.077  13.180  0.00  0.00    +0.000 N 
ATOM     28  C   UNL     1       7.442   3.398  12.418  0.00  0.00    +0.000 C 
ATOM     29  C   UNL     1       6.707   2.863  11.202  0.00  0.00    +0.000 C 
ATOM     30  C   UNL     1       5.330   2.523  11.763  0.00  0.00    +0.000 C 
ATOM     31  C   UNL     1       5.084   3.609  12.809  0.00  0.00    +0.000 C 
ENDBRANCH  24  26
ENDBRANCH   1  24
TORSDOF 7
ENDMDL
MODEL 4
REMARK VINA RESULT:      -8.2      2.491      7.786
REMARK  Name = 
REMARK  7 active torsions:
REMARK  status: ('A' for Active; 'I' for Inactive)
REMARK    1  A    between atoms: C_2  and  C_3
REMARK    2  A    between atoms: C_3  and  N_4
REMARK    3  A    between atoms: C_9  and  N_10
REMARK    4  A    between atoms: N_10  and  C_11
REMARK    5  A    between atoms: C_11  and  N_16
REMARK    6  A    between atoms: C_12  and  N_13
REMARK    7  A    between atoms: N_16  and  C_17
REMARK                            x       y       z     vdW  Elec       q    Type
REMARK                         _______ _______ _______ _____ _____    ______ ____
ROOT
ATOM      1  N   UNL     1       5.899   5.649  16.261  0.00  0.00    +0.000 N 
ATOM      2  C   UNL     1       6.312   6.922  16.853  0.00  0.00    +0.000 C 
ATOM      3  C   UNL     1       7.691   6.836  17.508  0.00  0.00    +0.000 C 
ATOM      4  C   UNL     1       7.707   6.235  18.916  0.00  0.00    +0.000 C 
ATOM      5  C   UNL     1       7.191   4.796  19.035  0.00  0.00    +0.000 C 
ATOM      6  C   UNL     1       5.753   4.658  18.535  0.00  0.00    +0.000 C 
ATOM      7  C   UNL     1       5.742   4.490  17.005  0.00  0.00    +0.000 C 
ATOM      8  O   UNL     1       5.618   3.383  16.476  0.00  0.00    +0.000 OA
ENDROOT
BRANCH   6   9
ATOM      9  N   UNL     1       5.078   3.513  19.169  0.00  0.00    +0.000 N 
ATOM     10  H   UNL     1       5.279   2.636  18.675  0.00  0.00    +0.000 HD
BRANCH   9  11
ATOM     11  C   UNL     1       3.744   3.480  19.593  0.00  0.00    +0.000 C 
ATOM     12  C   UNL     1       3.382   2.708  20.641  0.00  0.00    +0.000 C 
BRANCH  12  13
ATOM     13  N   UNL     1       2.032   2.587  21.115  0.00  0.00    +0.000 N 
ATOM     14  O   UNL     1       1.123   2.342  20.309  0.00  0.00    +0.000 OA
ATOM     15  O   UNL     1       1.884   2.691  22.339  0.00  0.00    +0.000 OA
ENDBRANCH  12  13
BRANCH  11  16
ATOM     16  N   UNL     1       2.863   4.208  18.800  0.00  0.00    +0.000 N 
ATOM     17  H   UNL     1       1.958   3.733  18.710  0.00  0.00    +0.000 HD
BRANCH  16  18
ATOM     18  C   UNL     1       2.568   5.591  18.994  0.00  0.00    +0.000 A 
ATOM     19  C   UNL     1       2.726   6.571  18.007  0.00  0.00    +0.000 A 
ATOM     20  C   UNL     1       2.379   7.905  18.257  0.00  0.00    +0.000 A 
ATOM     21  C   UNL     1       1.859   8.277  19.493  0.00  0.00    +0.000 A 
ATOM     22  C   UNL     1       1.706   7.315  20.494  0.00  0.00    +0.000 A 
ATOM     23  C   UNL     1       2.065   5.988  20.244  0.00  0.00    +0.000 A 
ENDBRANCH  16  18
ENDBRANCH  11  16
ENDBRANCH   9  11
ENDBRANCH   6   9
BRANCH   1  24
ATOM     24  C   UNL     1       5.580   5.618  14.827  0.00  0.00    +0.000 C 
BRANCH  24  26
ATOM     25  O   UNL     1       7.885   5.451  14.063  0.00  0.00    +0.000 OA
ATOM     26  C   UNL     1       6.725   5.041  13.968  0.00  0.00    +0.000 C 
ATOM     27  N   UNL     1       6.402   4.005  13.118  0.00  0.00    +0.000 N 
ATOM     28  C   UNL     1       7.424   3.305  12.363  0.00  0.00    +0.000 C 
ATOM     29  C   UNL     1       6.682   2.771  11.151  0.00  0.00    +0.000 C 
ATOM     30  C   UNL     1       5.300   2.454  11.713  0.00  0.00    +0.000 C 
ATOM     31  C   UNL     1       5.068   3.553  12.749  0.00  0.00    +0.000 C 
ENDBRANCH  24  26
ENDBRANCH   1  24
TORSDOF 7
ENDMDL
MODEL 5
REMARK VINA RESULT:      -8.2      1.874      3.482
REMARK  Name = 
REMARK  7 active torsions:
REMARK  status: ('A' for Active; 'I' for Inactive)
REMARK    1  A    between atoms: C_2  and  C_3
REMARK    2  A    between atoms: C_3  and  N_4
REMARK    3  A    between atoms: C_9  and  N_10
REMARK    4  A    between atoms: N_10  and  C_11
REMARK    5  A    between atoms: C_11  and  N_16
REMARK    6  A    between atoms: C_12  and  N_13
REMARK    7  A    between atoms: N_16  and  C_17
REMARK                            x       y       z     vdW  Elec       q    Type
REMARK                         _______ _______ _______ _____ _____    ______ ____
ROOT
ATOM      1  N   UNL     1       2.628   5.507  18.130  0.00  0.00    +0.000 N 
ATOM      2  C   UNL     1       1.424   4.831  17.642  0.00  0.00    +0.000 C 
ATOM      3  C   UNL     1       1.096   3.578  18.452  0.00  0.00    +0.000 C 
ATOM      4  C   UNL     1       1.892   2.327  18.068  0.00  0.00    +0.000 C 
ATOM      5  C   UNL     1       3.414   2.432  18.218  0.00  0.00    +0.000 C 
ATOM      6  C   UNL     1       3.997   3.573  17.385  0.00  0.00    +0.000 C 
ATOM      7  C   UNL     1       3.873   4.901  18.153  0.00  0.00    +0.000 C 
ATOM      8  O   UNL     1       4.827   5.384  18.767  0.00  0.00    +0.000 OA
ENDROOT
BRANCH   6   9
ATOM      9  N   UNL     1       5.408   3.319  17.049  0.00  0.00    +0.000 N 
ATOM     10  H   UNL     1       6.014   3.408  17.872  0.00  0.00    +0.000 HD
BRANCH   9  11
ATOM     11  C   UNL     1       6.094   3.838  15.943  0.00  0.00    +0.000 C 
ATOM     12  C   UNL     1       5.568   3.726  14.704  0.00  0.00    +0.000 C 
BRANCH  12  13
ATOM     13  N   UNL     1       6.222   4.194  13.514  0.00  0.00    +0.000 N 
ATOM     14  O   UNL     1       7.020   5.139  13.590  0.00  0.00    +0.000 OA
ATOM     15  O   UNL     1       5.964   3.566  12.481  0.00  0.00    +0.000 OA
ENDBRANCH  12  13
BRANCH  11  16
ATOM     16  N   UNL     1       7.351   4.359  16.230  0.00  0.00    +0.000 N 
ATOM     17  H   UNL     1       7.868   4.587  15.374  0.00  0.00    +0.000 HD
BRANCH  16  18
ATOM     18  C   UNL     1       7.581   5.442  17.131  0.00  0.00    +0.000 A 
ATOM     19  C   UNL     1       7.996   5.281  18.459  0.00  0.00    +0.000 A 
ATOM     20  C   UNL     1       8.239   6.393  19.275  0.00  0.00    +0.000 A 
ATOM     21  C   UNL     1       8.081   7.682  18.774  0.00  0.00    +0.000 A 
ATOM     22  C   UNL     1       7.656   7.861  17.456  0.00  0.00    +0.000 A 
ATOM     23  C   UNL     1       7.403   6.749  16.649  0.00  0.00    +0.000 A 
ENDBRANCH  16  18
ENDBRANCH  11  16
ENDBRANCH   9  11
ENDBRANCH   6   9
BRANCH   1  24
ATOM     24  C   UNL     1       2.515   6.909  18.556  0.00  0.00    +0.000 C 
BRANCH  24  26
ATOM     25  O   UNL     1       1.927   6.132  20.786  0.00  0.00    +0.000 OA
ATOM     26  C   UNL     1       1.930   7.062  19.976  0.00  0.00    +0.000 C 
ATOM     27  N   UNL     1       1.452   8.309  20.319  0.00  0.00    +0.000 N 
ATOM     28  C   UNL     1       1.002   8.597  21.667  0.00  0.00    +0.000 C 
ATOM     29  C   UNL     1       0.004   9.726  21.487  0.00  0.00    +0.000 C 
ATOM     30  C   UNL     1       0.590  10.511  20.318  0.00  0.00    +0.000 C 
ATOM     31  C   UNL     1       1.204   9.433  19.427  0.00  0.00    +0.000 C 
ENDBRANCH  24  26
ENDBRANCH   1  24
TORSDOF 7
ENDMDL
MODEL 6
REMARK VINA RESULT:      -8.1      2.086      3.400
REMARK  Name = 
REMARK  7 active torsions:
REMARK  status: ('A' for Active; 'I' for Inactive)
REMARK    1  A    between atoms: C_2  and  C_3
REMARK    2  A    between atoms: C_3  and  N_4
REMARK    3  A    between atoms: C_9  and  N_10
REMARK    4  A    between atoms: N_10  and  C_11
REMARK    5  A    between atoms: C_11  and  N_16
REMARK    6  A    between atoms: C_12  and  N_13
REMARK    7  A    between atoms: N_16  and  C_17
REMARK                            x       y       z     vdW  Elec       q    Type
REMARK                         _______ _______ _______ _____ _____    ______ ____
ROOT
ATOM      1  N   UNL     1       2.438   5.313  19.494  0.00  0.00    +0.000 N 
ATOM      2  C   UNL     1       1.194   4.634  19.123  0.00  0.00    +0.000 C 
ATOM      3  C   UNL     1       0.992   3.334  19.900  0.00  0.00    +0.000 C 
ATOM      4  C   UNL     1       1.755   2.123  19.354  0.00  0.00    +0.000 C 
ATOM      5  C   UNL     1       3.282   2.256  19.321  0.00  0.00    +0.000 C 
ATOM      6  C   UNL     1       3.737   3.452  18.483  0.00  0.00    +0.000 C 
ATOM      7  C   UNL     1       3.686   4.736  19.331  0.00  0.00    +0.000 C 
ATOM      8  O   UNL     1       4.701   5.210  19.847  0.00  0.00    +0.000 OA
ENDROOT
BRANCH   6   9
ATOM      9  N   UNL     1       5.099   3.248  17.963  0.00  0.00    +0.000 N 
ATOM     10  H   UNL     1       5.797   3.275  18.714  0.00  0.00    +0.000 HD
BRANCH   9  11
ATOM     11  C   UNL     1       5.646   3.872  16.834  0.00  0.00    +0.000 C 
ATOM     12  C   UNL     1       4.923   3.978  15.699  0.00  0.00    +0.000 C 
BRANCH  12  13
ATOM     13  N   UNL     1       5.421   4.566  14.487  0.00  0.00    +0.000 N 
ATOM     14  O   UNL     1       5.647   3.842  13.507  0.00  0.00    +0.000 OA
ATOM     15  O   UNL     1       5.544   5.797  14.501  0.00  0.00    +0.000 OA
ENDBRANCH  12  13
BRANCH  11  16
ATOM     16  N   UNL     1       6.976   4.255  16.969  0.00  0.00    +0.000 N 
ATOM     17  H   UNL     1       7.476   4.200  16.076  0.00  0.00    +0.000 HD
BRANCH  16  18
ATOM     18  C   UNL     1       7.399   5.472  17.585  0.00  0.00    +0.000 A 
ATOM     19  C   UNL     1       7.969   5.547  18.862  0.00  0.00    +0.000 A 
ATOM     20  C   UNL     1       8.396   6.773  19.387  0.00  0.00    +0.000 A 
ATOM     21  C   UNL     1       8.270   7.941  18.640  0.00  0.00    +0.000 A 
ATOM     22  C   UNL     1       7.693   7.887  17.369  0.00  0.00    +0.000 A 
ATOM     23  C   UNL     1       7.257   6.663  16.855  0.00  0.00    +0.000 A 
ENDBRANCH  16  18
ENDBRANCH  11  16
ENDBRANCH   9  11
ENDBRANCH   6   9
BRANCH   1  24
ATOM     24  C   UNL     1       2.355   6.688  20.005  0.00  0.00    +0.000 C 
BRANCH  24  26
ATOM     25  O   UNL     1       2.912   7.606  17.821  0.00  0.00    +0.000 OA
ATOM     26  C   UNL     1       2.300   7.746  18.882  0.00  0.00    +0.000 C 
ATOM     27  N   UNL     1       1.489   8.839  19.100  0.00  0.00    +0.000 N 
ATOM     28  C   UNL     1       1.262   9.826  18.061  0.00  0.00    +0.000 C 
ATOM     29  C   UNL     1       0.928  11.093  18.825  0.00  0.00    +0.000 C 
ATOM     30  C   UNL     1       0.175  10.565  20.042  0.00  0.00    +0.000 C 
ATOM     31  C   UNL     1       0.872   9.243  20.355  0.00  0.00    +0.000 C 
ENDBRANCH  24  26
ENDBRANCH   1  24
TORSDOF 7
ENDMDL
MODEL 7
REMARK VINA RESULT:      -8.0      2.096      3.516
REMARK  Name = 
REMARK  7 active torsions:
REMARK  status: ('A' for Active; 'I' for Inactive)
REMARK    1  A    between atoms: C_2  and  C_3
REMARK    2  A    between atoms: C_3  and  N_4
REMARK    3  A    between atoms: C_9  and  N_10
REMARK    4  A    between atoms: N_10  and  C_11
REMARK    5  A    between atoms: C_11  and  N_16
REMARK    6  A    between atoms: C_12  and  N_13
REMARK    7  A    between atoms: N_16  and  C_17
REMARK                            x       y       z     vdW  Elec       q    Type
REMARK                         _______ _______ _______ _____ _____    ______ ____
ROOT
ATOM      1  N   UNL     1       2.606   4.734  19.742  0.00  0.00    +0.000 N 
ATOM      2  C   UNL     1       1.256   4.443  19.258  0.00  0.00    +0.000 C 
ATOM      3  C   UNL     1       0.861   2.984  19.489  0.00  0.00    +0.000 C 
ATOM      4  C   UNL     1       1.392   1.994  18.448  0.00  0.00    +0.000 C 
ATOM      5  C   UNL     1       2.918   1.910  18.323  0.00  0.00    +0.000 C 
ATOM      6  C   UNL     1       3.541   3.261  17.973  0.00  0.00    +0.000 C 
ATOM      7  C   UNL     1       3.734   4.098  19.251  0.00  0.00    +0.000 C 
ATOM      8  O   UNL     1       4.830   4.179  19.811  0.00  0.00    +0.000 OA
ENDROOT
BRANCH   6   9
ATOM      9  N   UNL     1       4.832   3.089  17.287  0.00  0.00    +0.000 N 
ATOM     10  H   UNL     1       5.573   2.813  17.941  0.00  0.00    +0.000 HD
BRANCH   9  11
ATOM     11  C   UNL     1       5.385   3.969  16.348  0.00  0.00    +0.000 C 
ATOM     12  C   UNL     1       6.069   3.488  15.287  0.00  0.00    +0.000 C 
BRANCH  12  13
ATOM     13  N   UNL     1       6.699   4.319  14.300  0.00  0.00    +0.000 N 
ATOM     14  O   UNL     1       7.564   5.134  14.652  0.00  0.00    +0.000 OA
ATOM     15  O   UNL     1       6.353   4.116  13.130  0.00  0.00    +0.000 OA
ENDBRANCH  12  13
BRANCH  11  16
ATOM     16  N   UNL     1       5.249   5.316  16.662  0.00  0.00    +0.000 N 
ATOM     17  H   UNL     1       4.404   5.490  17.217  0.00  0.00    +0.000 HD
BRANCH  16  18
ATOM     18  C   UNL     1       6.280   6.107  17.255  0.00  0.00    +0.000 A 
ATOM     19  C   UNL     1       6.511   7.453  16.945  0.00  0.00    +0.000 A 
ATOM     20  C   UNL     1       7.517   8.178  17.595  0.00  0.00    +0.000 A 
ATOM     21  C   UNL     1       8.301   7.572  18.573  0.00  0.00    +0.000 A 
ATOM     22  C   UNL     1       8.092   6.227  18.887  0.00  0.00    +0.000 A 
ATOM     23  C   UNL     1       7.095   5.505  18.227  0.00  0.00    +0.000 A 
ENDBRANCH  16  18
ENDBRANCH  11  16
ENDBRANCH   9  11
ENDBRANCH   6   9
BRANCH   1  24
ATOM     24  C   UNL     1       2.773   5.791  20.750  0.00  0.00    +0.000 C 
BRANCH  24  26
ATOM     25  O   UNL     1       0.853   7.162  21.349  0.00  0.00    +0.000 OA
ATOM     26  C   UNL     1       1.784   6.962  20.565  0.00  0.00    +0.000 C 
ATOM     27  N   UNL     1       2.019   7.810  19.504  0.00  0.00    +0.000 N 
ATOM     28  C   UNL     1       1.231   9.013  19.315  0.00  0.00    +0.000 C 
ATOM     29  C   UNL     1       1.311   9.273  17.822  0.00  0.00    +0.000 C 
ATOM     30  C   UNL     1       2.717   8.796  17.471  0.00  0.00    +0.000 C 
ATOM     31  C   UNL     1       2.936   7.598  18.393  0.00  0.00    +0.000 C 
ENDBRANCH  24  26
ENDBRANCH   1  24
TORSDOF 7
ENDMDL
MODEL 8
REMARK VINA RESULT:      -7.8      2.212      7.735
REMARK  Name = 
REMARK  7 active torsions:
REMARK  status: ('A' for Active; 'I' for Inactive)
REMARK    1  A    between atoms: C_2  and  C_3
REMARK    2  A    between atoms: C_3  and  N_4
REMARK    3  A    between atoms: C_9  and  N_10
REMARK    4  A    between atoms: N_10  and  C_11
REMARK    5  A    between atoms: C_11  and  N_16
REMARK    6  A    between atoms: C_12  and  N_13
REMARK    7  A    between atoms: N_16  and  C_17
REMARK                            x       y       z     vdW  Elec       q    Type
REMARK                         _______ _______ _______ _____ _____    ______ ____
ROOT
ATOM      1  N   UNL     1       5.849   5.807  16.441  0.00  0.00    +0.000 N 
ATOM      2  C   UNL     1       6.416   7.087  16.873  0.00  0.00    +0.000 C 
ATOM      3  C   UNL     1       7.782   6.919  17.537  0.00  0.00    +0.000 C 
ATOM      4  C   UNL     1       7.744   6.499  19.009  0.00  0.00    +0.000 C 
ATOM      5  C   UNL     1       7.065   5.156  19.302  0.00  0.00    +0.000 C 
ATOM      6  C   UNL     1       5.615   5.128  18.820  0.00  0.00    +0.000 C 
ATOM      7  C   UNL     1       5.566   4.776  17.322  0.00  0.00    +0.000 C 
ATOM      8  O   UNL     1       5.307   3.634  16.933  0.00  0.00    +0.000 OA
ENDROOT
BRANCH   6   9
ATOM      9  N   UNL     1       4.818   4.156  19.588  0.00  0.00    +0.000 N 
ATOM     10  H   UNL     1       5.109   3.192  19.394  0.00  0.00    +0.000 HD
BRANCH   9  11
ATOM     11  C   UNL     1       3.425   4.171  19.732  0.00  0.00    +0.000 C 
ATOM     12  C   UNL     1       2.670   3.218  19.146  0.00  0.00    +0.000 C 
BRANCH  12  13
ATOM     13  N   UNL     1       1.236   3.182  19.211  0.00  0.00    +0.000 N 
ATOM     14  O   UNL     1       0.579   3.142  18.161  0.00  0.00    +0.000 OA
ATOM     15  O   UNL     1       0.753   3.143  20.350  0.00  0.00    +0.000 OA
ENDBRANCH  12  13
BRANCH  11  16
ATOM     16  N   UNL     1       2.924   5.271  20.421  0.00  0.00    +0.000 N 
ATOM     17  H   UNL     1       3.557   5.565  21.172  0.00  0.00    +0.000 HD
BRANCH  16  18
ATOM     18  C   UNL     1       2.474   6.471  19.791  0.00  0.00    +0.000 A 
ATOM     19  C   UNL     1       1.830   7.515  20.467  0.00  0.00    +0.000 A 
ATOM     20  C   UNL     1       1.450   8.682  19.791  0.00  0.00    +0.000 A 
ATOM     21  C   UNL     1       1.717   8.827  18.432  0.00  0.00    +0.000 A 
ATOM     22  C   UNL     1       2.348   7.791  17.740  0.00  0.00    +0.000 A 
ATOM     23  C   UNL     1       2.714   6.624  18.416  0.00  0.00    +0.000 A 
ENDBRANCH  16  18
ENDBRANCH  11  16
ENDBRANCH   9  11
ENDBRANCH   6   9
BRANCH   1  24
ATOM     24  C   UNL     1       5.513   5.638  15.021  0.00  0.00    +0.000 C 
BRANCH  24  26
ATOM     25  O   UNL     1       7.842   5.384  14.364  0.00  0.00    +0.000 OA
ATOM     26  C   UNL     1       6.670   5.038  14.195  0.00  0.00    +0.000 C 
ATOM     27  N   UNL     1       6.340   4.055  13.287  0.00  0.00    +0.000 N 
ATOM     28  C   UNL     1       7.364   3.335  12.554  0.00  0.00    +0.000 C 
ATOM     29  C   UNL     1       6.660   2.888  11.286  0.00  0.00    +0.000 C 
ATOM     30  C   UNL     1       5.237   2.620  11.765  0.00  0.00    +0.000 C 
ATOM     31  C   UNL     1       5.006   3.686  12.834  0.00  0.00    +0.000 C 
ENDBRANCH  24  26
ENDBRANCH   1  24
TORSDOF 7
ENDMDL
MODEL 9
REMARK VINA RESULT:      -7.8      1.262      1.762
REMARK  Name = 
REMARK  7 active torsions:
REMARK  status: ('A' for Active; 'I' for Inactive)
REMARK    1  A    between atoms: C_2  and  C_3
REMARK    2  A    between atoms: C_3  and  N_4
REMARK    3  A    between atoms: C_9  and  N_10
REMARK    4  A    between atoms: N_10  and  C_11
REMARK    5  A    between atoms: C_11  and  N_16
REMARK    6  A    between atoms: C_12  and  N_13
REMARK    7  A    between atoms: N_16  and  C_17
REMARK                            x       y       z     vdW  Elec       q    Type
REMARK                         _______ _______ _______ _____ _____    ______ ____
ROOT
ATOM      1  N   UNL     1       2.410   4.887  19.726  0.00  0.00    +0.000 N 
ATOM      2  C   UNL     1       1.114   4.298  19.383  0.00  0.00    +0.000 C 
ATOM      3  C   UNL     1       0.997   2.847  19.848  0.00  0.00    +0.000 C 
ATOM      4  C   UNL     1       1.652   1.813  18.928  0.00  0.00    +0.000 C 
ATOM      5  C   UNL     1       3.162   1.973  18.712  0.00  0.00    +0.000 C 
ATOM      6  C   UNL     1       3.517   3.340  18.128  0.00  0.00    +0.000 C 
ATOM      7  C   UNL     1       3.612   4.384  19.256  0.00  0.00    +0.000 C 
ATOM      8  O   UNL     1       4.697   4.736  19.722  0.00  0.00    +0.000 OA
ENDROOT
BRANCH   6   9
ATOM      9  N   UNL     1       4.789   3.287  17.388  0.00  0.00    +0.000 N 
ATOM     10  H   UNL     1       5.507   2.771  17.907  0.00  0.00    +0.000 HD
BRANCH   9  11
ATOM     11  C   UNL     1       5.407   4.366  16.742  0.00  0.00    +0.000 C 
ATOM     12  C   UNL     1       4.817   5.581  16.733  0.00  0.00    +0.000 C 
BRANCH  12  13
ATOM     13  N   UNL     1       5.362   6.728  16.063  0.00  0.00    +0.000 N 
ATOM     14  O   UNL     1       4.813   7.152  15.036  0.00  0.00    +0.000 OA
ATOM     15  O   UNL     1       6.341   7.251  16.610  0.00  0.00    +0.000 OA
ENDBRANCH  12  13
BRANCH  11  16
ATOM     16  N   UNL     1       6.577   4.044  16.063  0.00  0.00    +0.000 N 
ATOM     17  H   UNL     1       6.881   3.087  16.270  0.00  0.00    +0.000 HD
BRANCH  16  18
ATOM     18  C   UNL     1       6.761   4.223  14.658  0.00  0.00    +0.000 A 
ATOM     19  C   UNL     1       7.684   5.113  14.096  0.00  0.00    +0.000 A 
ATOM     20  C   UNL     1       7.837   5.208  12.707  0.00  0.00    +0.000 A 
ATOM     21  C   UNL     1       7.077   4.406  11.859  0.00  0.00    +0.000 A 
ATOM     22  C   UNL     1       6.143   3.522  12.402  0.00  0.00    +0.000 A 
ATOM     23  C   UNL     1       5.985   3.440  13.788  0.00  0.00    +0.000 A 
ENDBRANCH  16  18
ENDBRANCH  11  16
ENDBRANCH   9  11
ENDBRANCH   6   9
BRANCH   1  24
ATOM     24  C   UNL     1       2.426   6.099  20.556  0.00  0.00    +0.000 C 
BRANCH  24  26
ATOM     25  O   UNL     1       2.533   7.530  18.591  0.00  0.00    +0.000 OA
ATOM     26  C   UNL     1       2.142   7.385  19.752  0.00  0.00    +0.000 C 
ATOM     27  N   UNL     1       1.382   8.352  20.376  0.00  0.00    +0.000 N 
ATOM     28  C   UNL     1       0.947   9.540  19.666  0.00  0.00    +0.000 C 
ATOM     29  C   UNL     1       0.762  10.574  20.761  0.00  0.00    +0.000 C 
ATOM     30  C   UNL     1       0.270   9.736  21.937  0.00  0.00    +0.000 C 
ATOM     31  C   UNL     1       1.024   8.417  21.785  0.00  0.00    +0.000 C 
ENDBRANCH  24  26
ENDBRANCH   1  24
TORSDOF 7
ENDMDL
