MODEL 1
REMARK VINA RESULT:      -7.3      0.000      0.000
REMARK  Name = 
REMARK  2 active torsions:
REMARK  status: ('A' for Active; 'I' for Inactive)
REMARK    1  A    between atoms: C_2  and  C_4
REMARK    2  A    between atoms: C_10  and  C_11
REMARK                            x       y       z     vdW  Elec       q    Type
REMARK                         _______ _______ _______ _____ _____    ______ ____
ROOT
ATOM      1  C   UNL     1       6.688   5.469  17.795  0.00  0.00    +0.000 A 
ATOM      2  C   UNL     1       6.300   4.653  16.755  0.00  0.00    +0.000 A 
ATOM      3  N   UNL     1       6.933   5.159  15.640  0.00  0.00    +0.000 N 
ATOM      4  C   UNL     1       6.832   4.655  14.309  0.00  0.00    +0.000 A 
ATOM      5  N   UNL     1       7.550   5.163  13.299  0.00  0.00    +0.000 NA
ATOM      6  N   UNL     1       7.116   4.413  12.271  0.00  0.00    +0.000 N 
ATOM      7  C   UNL     1       6.155   3.529  12.669  0.00  0.00    +0.000 A 
ATOM      8  N   UNL     1       5.972   3.635  13.976  0.00  0.00    +0.000 NA
ATOM      9  N   UNL     1       7.675   6.243  16.005  0.00  0.00    +0.000 NA
ATOM     10  N   UNL     1       7.517   6.446  17.306  0.00  0.00    +0.000 NA
ATOM     11  H   UNL     1       7.487   4.559  11.337  0.00  0.00    +0.000 HD
ENDROOT
BRANCH   1  13
ATOM     12  N   UNL     1       4.977   5.281  19.425  0.00  0.00    +0.000 N 
ATOM     13  C   UNL     1       6.322   5.359  19.194  0.00  0.00    +0.000 C 
ATOM     14  O   UNL     1       7.132   5.333  20.112  0.00  0.00    +0.000 OA
ATOM     15  H   UNL     1       4.647   5.205  20.376  0.00  0.00    +0.000 HD
ATOM     16  H   UNL     1       4.316   5.284  18.658  0.00  0.00    +0.000 HD
ENDBRANCH   1  13
BRANCH   7  17
ATOM     17  C   UNL     1       5.447   2.660  11.765  0.00  0.00    +0.000 C 
ATOM     18  N   UNL     1       6.085   1.489  11.475  0.00  0.00    +0.000 N 
ATOM     19  O   UNL     1       4.346   2.919  11.291  0.00  0.00    +0.000 OA
ATOM     20  H   UNL     1       6.978   1.272  11.900  0.00  0.00    +0.000 HD
ATOM     21  H   UNL     1       5.622   0.807  10.892  0.00  0.00    +0.000 HD
ENDBRANCH   7  17
TORSDOF 2
ENDMDL
MODEL 2
REMARK VINA RESULT:      -7.2      3.200      6.755
REMARK  Name = 
REMARK  2 active torsions:
REMARK  status: ('A' for Active; 'I' for Inactive)
REMARK    1  A    between atoms: C_2  and  C_4
REMARK    2  A    between atoms: C_10  and  C_11
REMARK                            x       y       z     vdW  Elec       q    Type
REMARK                         _______ _______ _______ _____ _____    ______ ____
ROOT
ATOM      1  C   UNL     1       5.970   5.327  16.010  0.00  0.00    +0.000 A 
ATOM      2  C   UNL     1       5.177   4.627  16.892  0.00  0.00    +0.000 A 
ATOM      3  N   UNL     1       4.617   5.582  17.714  0.00  0.00    +0.000 N 
ATOM      4  C   UNL     1       3.724   5.343  18.801  0.00  0.00    +0.000 A 
ATOM      5  N   UNL     1       3.164   6.342  19.495  0.00  0.00    +0.000 NA
ATOM      6  N   UNL     1       2.446   5.656  20.401  0.00  0.00    +0.000 N 
ATOM      7  C   UNL     1       2.617   4.309  20.257  0.00  0.00    +0.000 A 
ATOM      8  N   UNL     1       3.403   4.072  19.219  0.00  0.00    +0.000 NA
ATOM      9  N   UNL     1       5.064   6.813  17.333  0.00  0.00    +0.000 NA
ATOM     10  N   UNL     1       5.898   6.663  16.313  0.00  0.00    +0.000 NA
ATOM     11  H   UNL     1       1.889   6.147  21.093  0.00  0.00    +0.000 HD
ENDROOT
BRANCH   1  13
ATOM     12  N   UNL     1       6.355   3.579  14.456  0.00  0.00    +0.000 N 
ATOM     13  C   UNL     1       6.765   4.798  14.919  0.00  0.00    +0.000 C 
ATOM     14  O   UNL     1       7.729   5.377  14.432  0.00  0.00    +0.000 OA
ATOM     15  H   UNL     1       6.863   3.147  13.698  0.00  0.00    +0.000 HD
ATOM     16  H   UNL     1       5.546   3.118  14.852  0.00  0.00    +0.000 HD
ENDBRANCH   1  13
BRANCH   7  17
ATOM     17  C   UNL     1       2.040   3.332  21.144  0.00  0.00    +0.000 C 
ATOM     18  N   UNL     1       0.762   2.962  20.840  0.00  0.00    +0.000 N 
ATOM     19  O   UNL     1       2.634   2.840  22.097  0.00  0.00    +0.000 OA
ATOM     20  H   UNL     1       0.295   3.350  20.029  0.00  0.00    +0.000 HD
ATOM     21  H   UNL     1       0.315   2.240  21.386  0.00  0.00    +0.000 HD
ENDBRANCH   7  17
TORSDOF 2
ENDMDL
MODEL 3
REMARK VINA RESULT:      -7.2      3.482      6.173
REMARK  Name = 
REMARK  2 active torsions:
REMARK  status: ('A' for Active; 'I' for Inactive)
REMARK    1  A    between atoms: C_2  and  C_4
REMARK    2  A    between atoms: C_10  and  C_11
REMARK                            x       y       z     vdW  Elec       q    Type
REMARK                         _______ _______ _______ _____ _____    ______ ____
ROOT
ATOM      1  C   UNL     1       6.595   4.501  15.500  0.00  0.00    +0.000 A 
ATOM      2  C   UNL     1       5.329   4.212  15.957  0.00  0.00    +0.000 A 
ATOM      3  N   UNL     1       5.423   4.244  17.332  0.00  0.00    +0.000 N 
ATOM      4  C   UNL     1       4.365   3.994  18.257  0.00  0.00    +0.000 A 
ATOM      5  N   UNL     1       4.530   4.129  19.580  0.00  0.00    +0.000 NA
ATOM      6  N   UNL     1       3.313   3.776  20.029  0.00  0.00    +0.000 N 
ATOM      7  C   UNL     1       2.488   3.415  19.003  0.00  0.00    +0.000 A 
ATOM      8  N   UNL     1       3.120   3.576  17.850  0.00  0.00    +0.000 NA
ATOM      9  N   UNL     1       6.706   4.543  17.683  0.00  0.00    +0.000 NA
ATOM     10  N   UNL     1       7.425   4.683  16.578  0.00  0.00    +0.000 NA
ATOM     11  H   UNL     1       3.112   3.778  21.024  0.00  0.00    +0.000 HD
ENDROOT
BRANCH   1  13
ATOM     12  N   UNL     1       6.506   3.686  13.276  0.00  0.00    +0.000 N 
ATOM     13  C   UNL     1       7.038   4.618  14.124  0.00  0.00    +0.000 C 
ATOM     14  O   UNL     1       7.821   5.472  13.727  0.00  0.00    +0.000 OA
ATOM     15  H   UNL     1       6.770   3.703  12.302  0.00  0.00    +0.000 HD
ATOM     16  H   UNL     1       5.845   2.996  13.610  0.00  0.00    +0.000 HD
ENDBRANCH   1  13
BRANCH   7  17
ATOM     17  C   UNL     1       1.153   2.908  19.192  0.00  0.00    +0.000 C 
ATOM     18  N   UNL     1       0.572   3.247  20.380  0.00  0.00    +0.000 N 
ATOM     19  O   UNL     1       0.554   2.236  18.360  0.00  0.00    +0.000 OA
ATOM     20  H   UNL     1       1.064   3.832  21.043  0.00  0.00    +0.000 HD
ATOM     21  H   UNL     1      -0.384   2.973  20.556  0.00  0.00    +0.000 HD
ENDBRANCH   7  17
TORSDOF 2
ENDMDL
MODEL 4
REMARK VINA RESULT:      -7.2      3.469      4.579
REMARK  Name = 
REMARK  2 active torsions:
REMARK  status: ('A' for Active; 'I' for Inactive)
REMARK    1  A    between atoms: C_2  and  C_4
REMARK    2  A    between atoms: C_10  and  C_11
REMARK                            x       y       z     vdW  Elec       q    Type
REMARK                         _______ _______ _______ _____ _____    ______ ____
ROOT
ATOM      1  C   UNL     1       2.493   3.379  19.065  0.00  0.00    +0.000 A 
ATOM      2  C   UNL     1       3.208   3.443  17.890  0.00  0.00    +0.000 A 
ATOM      3  N   UNL     1       4.441   3.949  18.242  0.00  0.00    +0.000 N 
ATOM      4  C   UNL     1       5.531   4.210  17.359  0.00  0.00    +0.000 A 
ATOM      5  N   UNL     1       6.724   4.626  17.803  0.00  0.00    +0.000 NA
ATOM      6  N   UNL     1       7.399   4.757  16.648  0.00  0.00    +0.000 N 
ATOM      7  C   UNL     1       6.610   4.462  15.573  0.00  0.00    +0.000 A 
ATOM      8  N   UNL     1       5.416   4.075  15.994  0.00  0.00    +0.000 NA
ATOM      9  N   UNL     1       4.460   4.179  19.586  0.00  0.00    +0.000 NA
ATOM     10  N   UNL     1       3.276   3.852  20.087  0.00  0.00    +0.000 NA
ATOM     11  H   UNL     1       8.366   5.066  16.651  0.00  0.00    +0.000 HD
ENDROOT
BRANCH   1  13
ATOM     12  N   UNL     1       0.601   3.181  20.479  0.00  0.00    +0.000 N 
ATOM     13  C   UNL     1       1.140   2.894  19.256  0.00  0.00    +0.000 C 
ATOM     14  O   UNL     1       0.508   2.277  18.407  0.00  0.00    +0.000 OA
ATOM     15  H   UNL     1      -0.338   2.873  20.685  0.00  0.00    +0.000 HD
ATOM     16  H   UNL     1       1.124   3.708  21.167  0.00  0.00    +0.000 HD
ENDBRANCH   1  13
BRANCH   7  17
ATOM     17  C   UNL     1       7.041   4.601  14.206  0.00  0.00    +0.000 C 
ATOM     18  N   UNL     1       6.504   3.694  13.339  0.00  0.00    +0.000 N 
ATOM     19  O   UNL     1       7.816   5.468  13.819  0.00  0.00    +0.000 OA
ATOM     20  H   UNL     1       5.837   3.005  13.665  0.00  0.00    +0.000 HD
ATOM     21  H   UNL     1       6.718   3.767  12.355  0.00  0.00    +0.000 HD
ENDBRANCH   7  17
TORSDOF 2
ENDMDL
MODEL 5
REMARK VINA RESULT:      -7.1      3.338      4.771
REMARK  Name = 
REMARK  2 active torsions:
REMARK  status: ('A' for Active; 'I' for Inactive)
REMARK    1  A    between atoms: C_2  and  C_4
REMARK    2  A    between atoms: C_10  and  C_11
REMARK                            x       y       z     vdW  Elec       q    Type
REMARK                         _______ _______ _______ _____ _____    ______ ____
ROOT
ATOM      1  C   UNL     1       2.485   4.447  20.260  0.00  0.00    +0.000 A 
ATOM      2  C   UNL     1       3.427   4.211  19.284  0.00  0.00    +0.000 A 
ATOM      3  N   UNL     1       3.658   5.438  18.698  0.00  0.00    +0.000 N 
ATOM      4  C   UNL     1       4.554   5.704  17.620  0.00  0.00    +0.000 A 
ATOM      5  N   UNL     1       4.776   6.945  17.169  0.00  0.00    +0.000 NA
ATOM      6  N   UNL     1       5.641   6.705  16.168  0.00  0.00    +0.000 N 
ATOM      7  C   UNL     1       5.880   5.369  16.024  0.00  0.00    +0.000 A 
ATOM      8  N   UNL     1       5.225   4.700  16.961  0.00  0.00    +0.000 NA
ATOM      9  N   UNL     1       2.878   6.375  19.308  0.00  0.00    +0.000 NA
ATOM     10  N   UNL     1       2.152   5.778  20.243  0.00  0.00    +0.000 NA
ATOM     11  H   UNL     1       6.011   7.472  15.614  0.00  0.00    +0.000 HD
ENDROOT
BRANCH   1  13
ATOM     12  N   UNL     1       0.708   2.972  20.795  0.00  0.00    +0.000 N 
ATOM     13  C   UNL     1       1.910   3.493  21.188  0.00  0.00    +0.000 C 
ATOM     14  O   UNL     1       2.437   3.161  22.243  0.00  0.00    +0.000 OA
ATOM     15  H   UNL     1       0.245   2.302  21.392  0.00  0.00    +0.000 HD
ATOM     16  H   UNL     1       0.289   3.239  19.912  0.00  0.00    +0.000 HD
ENDBRANCH   1  13
BRANCH   7  17
ATOM     17  C   UNL     1       6.697   4.812  14.977  0.00  0.00    +0.000 C 
ATOM     18  N   UNL     1       6.264   3.616  14.484  0.00  0.00    +0.000 N 
ATOM     19  O   UNL     1       7.701   5.359  14.532  0.00  0.00    +0.000 OA
ATOM     20  H   UNL     1       5.414   3.193  14.835  0.00  0.00    +0.000 HD
ATOM     21  H   UNL     1       6.758   3.196  13.709  0.00  0.00    +0.000 HD
ENDBRANCH   7  17
TORSDOF 2
ENDMDL
MODEL 6
REMARK VINA RESULT:      -7.1      0.697      6.249
REMARK  Name = 
REMARK  2 active torsions:
REMARK  status: ('A' for Active; 'I' for Inactive)
REMARK    1  A    between atoms: C_2  and  C_4
REMARK    2  A    between atoms: C_10  and  C_11
REMARK                            x       y       z     vdW  Elec       q    Type
REMARK                         _______ _______ _______ _____ _____    ______ ____
ROOT
ATOM      1  C   UNL     1       6.171   3.509  12.624  0.00  0.00    +0.000 A 
ATOM      2  C   UNL     1       5.918   3.675  13.967  0.00  0.00    +0.000 A 
ATOM      3  N   UNL     1       6.766   4.682  14.375  0.00  0.00    +0.000 N 
ATOM      4  C   UNL     1       6.882   5.206  15.697  0.00  0.00    +0.000 A 
ATOM      5  N   UNL     1       7.677   6.245  15.984  0.00  0.00    +0.000 NA
ATOM      6  N   UNL     1       7.484   6.359  17.310  0.00  0.00    +0.000 N 
ATOM      7  C   UNL     1       6.636   5.396  17.776  0.00  0.00    +0.000 A 
ATOM      8  N   UNL     1       6.204   4.660  16.763  0.00  0.00    +0.000 NA
ATOM      9  N   UNL     1       7.501   5.104  13.307  0.00  0.00    +0.000 NA
ATOM     10  N   UNL     1       7.157   4.384  12.247  0.00  0.00    +0.000 NA
ATOM     11  H   UNL     1       7.963   7.082  17.838  0.00  0.00    +0.000 HD
ENDROOT
BRANCH   1  13
ATOM     12  N   UNL     1       6.235   1.442  11.465  0.00  0.00    +0.000 N 
ATOM     13  C   UNL     1       5.529   2.587  11.706  0.00  0.00    +0.000 C 
ATOM     14  O   UNL     1       4.443   2.793  11.179  0.00  0.00    +0.000 OA
ATOM     15  H   UNL     1       5.851   0.753  10.834  0.00  0.00    +0.000 HD
ATOM     16  H   UNL     1       7.123   1.273  11.921  0.00  0.00    +0.000 HD
ENDBRANCH   1  13
BRANCH   7  17
ATOM     17  C   UNL     1       6.316   5.220  19.169  0.00  0.00    +0.000 C 
ATOM     18  N   UNL     1       5.037   4.813  19.418  0.00  0.00    +0.000 N 
ATOM     19  O   UNL     1       7.116   5.399  20.081  0.00  0.00    +0.000 OA
ATOM     20  H   UNL     1       4.397   4.635  18.655  0.00  0.00    +0.000 HD
ATOM     21  H   UNL     1       4.760   4.616  20.369  0.00  0.00    +0.000 HD
ENDBRANCH   7  17
TORSDOF 2
ENDMDL
MODEL 7
REMARK VINA RESULT:      -7.0      3.662      6.319
REMARK  Name = 
REMARK  2 active torsions:
REMARK  status: ('A' for Active; 'I' for Inactive)
REMARK    1  A    between atoms: C_2  and  C_4
REMARK    2  A    between atoms: C_10  and  C_11
REMARK                            x       y       z     vdW  Elec       q    Type
REMARK                         _______ _______ _______ _____ _____    ______ ____
ROOT
ATOM      1  C   UNL     1       5.990   5.219  15.558  0.00  0.00    +0.000 A 
ATOM      2  C   UNL     1       4.933   4.540  16.121  0.00  0.00    +0.000 A 
ATOM      3  N   UNL     1       4.472   5.358  17.130  0.00  0.00    +0.000 N 
ATOM      4  C   UNL     1       3.386   5.081  18.014  0.00  0.00    +0.000 A 
ATOM      5  N   UNL     1       2.955   5.974  18.914  0.00  0.00    +0.000 NA
ATOM      6  N   UNL     1       1.970   5.282  19.512  0.00  0.00    +0.000 N 
ATOM      7  C   UNL     1       1.862   4.022  18.999  0.00  0.00    +0.000 A 
ATOM      8  N   UNL     1       2.733   3.870  18.013  0.00  0.00    +0.000 NA
ATOM      9  N   UNL     1       5.232   6.490  17.166  0.00  0.00    +0.000 NA
ATOM     10  N   UNL     1       6.164   6.403  16.228  0.00  0.00    +0.000 NA
ATOM     11  H   UNL     1       1.430   5.702  20.263  0.00  0.00    +0.000 HD
ENDROOT
BRANCH   1  13
ATOM     12  N   UNL     1       6.410   3.651  13.831  0.00  0.00    +0.000 N 
ATOM     13  C   UNL     1       6.814   4.807  14.438  0.00  0.00    +0.000 C 
ATOM     14  O   UNL     1       7.795   5.427  14.046  0.00  0.00    +0.000 OA
ATOM     15  H   UNL     1       6.938   3.300  13.044  0.00  0.00    +0.000 HD
ATOM     16  H   UNL     1       5.587   3.156  14.150  0.00  0.00    +0.000 HD
ENDBRANCH   1  13
BRANCH   7  17
ATOM     17  C   UNL     1       0.951   3.029  19.507  0.00  0.00    +0.000 C 
ATOM     18  N   UNL     1       0.812   3.015  20.865  0.00  0.00    +0.000 N 
ATOM     19  O   UNL     1       0.321   2.253  18.795  0.00  0.00    +0.000 OA
ATOM     20  H   UNL     1       1.311   3.685  21.438  0.00  0.00    +0.000 HD
ATOM     21  H   UNL     1       0.148   2.382  21.285  0.00  0.00    +0.000 HD
ENDBRANCH   7  17
TORSDOF 2
ENDMDL
MODEL 8
REMARK VINA RESULT:      -7.0      2.216      6.061
REMARK  Name = 
REMARK  2 active torsions:
REMARK  status: ('A' for Active; 'I' for Inactive)
REMARK    1  A    between atoms: C_2  and  C_4
REMARK    2  A    between atoms: C_10  and  C_11
REMARK                            x       y       z     vdW  Elec       q    Type
REMARK                         _______ _______ _______ _____ _____    ______ ____
ROOT
ATOM      1  C   UNL     1       6.821   4.428  13.853  0.00  0.00    +0.000 A 
ATOM      2  C   UNL     1       6.083   3.926  14.902  0.00  0.00    +0.000 A 
ATOM      3  N   UNL     1       6.401   4.720  15.983  0.00  0.00    +0.000 N 
ATOM      4  C   UNL     1       5.894   4.584  17.310  0.00  0.00    +0.000 A 
ATOM      5  N   UNL     1       6.197   5.455  18.281  0.00  0.00    +0.000 NA
ATOM      6  N   UNL     1       5.534   4.923  19.322  0.00  0.00    +0.000 N 
ATOM      7  C   UNL     1       4.901   3.765  18.971  0.00  0.00    +0.000 A 
ATOM      8  N   UNL     1       5.083   3.536  17.680  0.00  0.00    +0.000 NA
ATOM      9  N   UNL     1       7.300   5.666  15.590  0.00  0.00    +0.000 NA
ATOM     10  N   UNL     1       7.572   5.483  14.304  0.00  0.00    +0.000 NA
ATOM     11  H   UNL     1       5.565   5.369  20.233  0.00  0.00    +0.000 HD
ENDROOT
BRANCH   1  13
ATOM     12  N   UNL     1       6.148   2.807  12.260  0.00  0.00    +0.000 N 
ATOM     13  C   UNL     1       6.837   3.968  12.478  0.00  0.00    +0.000 C 
ATOM     14  O   UNL     1       7.410   4.553  11.568  0.00  0.00    +0.000 OA
ATOM     15  H   UNL     1       6.118   2.424  11.326  0.00  0.00    +0.000 HD
ATOM     16  H   UNL     1       5.662   2.341  13.015  0.00  0.00    +0.000 HD
ENDBRANCH   1  13
BRANCH   7  17
ATOM     17  C   UNL     1       4.187   2.932  19.904  0.00  0.00    +0.000 C 
ATOM     18  N   UNL     1       4.895   1.869  20.385  0.00  0.00    +0.000 N 
ATOM     19  O   UNL     1       3.036   3.148  20.269  0.00  0.00    +0.000 OA
ATOM     20  H   UNL     1       5.856   1.722  20.103  0.00  0.00    +0.000 HD
ATOM     21  H   UNL     1       4.475   1.275  21.086  0.00  0.00    +0.000 HD
ENDBRANCH   7  17
TORSDOF 2
ENDMDL
MODEL 9
REMARK VINA RESULT:      -7.0      4.102      6.321
REMARK  Name = 
REMARK  2 active torsions:
REMARK  status: ('A' for Active; 'I' for Inactive)
REMARK    1  A    between atoms: C_2  and  C_4
REMARK    2  A    between atoms: C_10  and  C_11
REMARK                            x       y       z     vdW  Elec       q    Type
REMARK                         _______ _______ _______ _____ _____    ______ ____
ROOT
ATOM      1  C   UNL     1       6.754   5.942  17.733  0.00  0.00    +0.000 A 
ATOM      2  C   UNL     1       5.815   5.490  18.633  0.00  0.00    +0.000 A 
ATOM      3  N   UNL     1       5.272   4.362  18.057  0.00  0.00    +0.000 N 
ATOM      4  C   UNL     1       4.242   3.543  18.609  0.00  0.00    +0.000 A 
ATOM      5  N   UNL     1       3.834   2.415  18.013  0.00  0.00    +0.000 NA
ATOM      6  N   UNL     1       2.866   2.013  18.856  0.00  0.00    +0.000 N 
ATOM      7  C   UNL     1       2.699   2.898  19.881  0.00  0.00    +0.000 A 
ATOM      8  N   UNL     1       3.588   3.874  19.772  0.00  0.00    +0.000 NA
ATOM      9  N   UNL     1       5.870   4.148  16.851  0.00  0.00    +0.000 NA
ATOM     10  N   UNL     1       6.757   5.112  16.641  0.00  0.00    +0.000 NA
ATOM     11  H   UNL     1       2.350   1.158  18.675  0.00  0.00    +0.000 HD
ENDROOT
BRANCH   1  13
ATOM     12  N   UNL     1       8.418   7.078  18.982  0.00  0.00    +0.000 N 
ATOM     13  C   UNL     1       7.630   7.090  17.865  0.00  0.00    +0.000 C 
ATOM     14  O   UNL     1       7.681   8.008  17.055  0.00  0.00    +0.000 OA
ATOM     15  H   UNL     1       9.053   7.847  19.142  0.00  0.00    +0.000 HD
ATOM     16  H   UNL     1       8.383   6.305  19.635  0.00  0.00    +0.000 HD
ENDBRANCH   1  13
BRANCH   7  17
ATOM     17  C   UNL     1       1.675   2.771  20.886  0.00  0.00    +0.000 C 
ATOM     18  N   UNL     1       0.422   3.126  20.479  0.00  0.00    +0.000 N 
ATOM     19  O   UNL     1       1.882   2.362  22.024  0.00  0.00    +0.000 OA
ATOM     20  H   UNL     1       0.258   3.428  19.527  0.00  0.00    +0.000 HD
ATOM     21  H   UNL     1      -0.354   3.008  21.115  0.00  0.00    +0.000 HD
ENDBRANCH   7  17
TORSDOF 2
ENDMDL
