MODEL 1
REMARK VINA RESULT:      -8.3      0.000      0.000
REMARK  Name = 
REMARK  5 active torsions:
REMARK  status: ('A' for Active; 'I' for Inactive)
REMARK    1  A    between atoms: C_2  and  C_3
REMARK    2  A    between atoms: C_3  and  N_4
REMARK    3  A    between atoms: N_10  and  C_11
REMARK    4  A    between atoms: C_13  and  C_14
REMARK    5  A    between atoms: C_20  and  N_21
REMARK                            x       y       z     vdW  Elec       q    Type
REMARK                         _______ _______ _______ _____ _____    ______ ____
ROOT
ATOM      1  C   UNL     1       5.421   4.647  15.816  0.00  0.00    +0.000 A 
ATOM      2  C   UNL     1       5.060   4.028  14.604  0.00  0.00    +0.000 A 
ATOM      3  C   UNL     1       5.928   3.998  13.501  0.00  0.00    +0.000 A 
ATOM      4  C   UNL     1       7.183   4.604  13.618  0.00  0.00    +0.000 A 
ATOM      5  C   UNL     1       7.565   5.211  14.817  0.00  0.00    +0.000 A 
ATOM      6  C   UNL     1       6.705   5.218  15.930  0.00  0.00    +0.000 A 
ENDROOT
BRANCH   6   7
ATOM      7  N   UNL     1       7.226   5.686  17.174  0.00  0.00    +0.000 N 
ATOM      8  C   UNL     1       7.563   4.915  18.270  0.00  0.00    +0.000 A 
ATOM      9  C   UNL     1       8.078   5.726  19.260  0.00  0.00    +0.000 A 
ATOM     10  C   UNL     1       8.087   7.038  18.755  0.00  0.00    +0.000 A 
ATOM     11  C   UNL     1       7.585   6.989  17.473  0.00  0.00    +0.000 A 
ENDBRANCH   6   7
BRANCH   1  14
ATOM     12  O   UNL     1       4.180   7.086  16.677  0.00  0.00    +0.000 OA
ATOM     13  C   UNL     1       3.935   6.012  17.238  0.00  0.00    +0.000 C 
ATOM     14  N   UNL     1       4.435   4.793  16.820  0.00  0.00    +0.000 N 
ATOM     15  H   UNL     1       3.937   3.969  17.149  0.00  0.00    +0.000 HD
BRANCH  13  16
ATOM     16  C   UNL     1       2.935   5.966  18.395  0.00  0.00    +0.000 C 
BRANCH  16  17
ATOM     17  N   UNL     1       2.745   4.618  18.995  0.00  0.00    +0.000 NA
ATOM     18  C   UNL     1       2.674   4.692  20.468  0.00  0.00    +0.000 C 
ATOM     19  C   UNL     1       2.453   3.303  21.073  0.00  0.00    +0.000 C 
ATOM     20  C   UNL     1       1.165   2.680  20.555  0.00  0.00    +0.000 C 
ATOM     21  C   UNL     1       1.155   2.681  19.032  0.00  0.00    +0.000 C 
ATOM     22  C   UNL     1       1.474   4.068  18.469  0.00  0.00    +0.000 C 
ENDBRANCH  16  17
ENDBRANCH  13  16
ENDBRANCH   1  14
BRANCH   3  23
ATOM     23  C   UNL     1       5.528   3.344  12.201  0.00  0.00    +0.000 C 
ATOM     24  F   UNL     1       5.654   1.989  12.200  0.00  0.00    +0.000 F 
ATOM     25  F   UNL     1       4.227   3.593  11.878  0.00  0.00    +0.000 F 
ATOM     26  F   UNL     1       6.263   3.791  11.145  0.00  0.00    +0.000 F 
ENDBRANCH   3  23
TORSDOF 5
ENDMDL
MODEL 2
REMARK VINA RESULT:      -8.2      0.080      1.044
REMARK  Name = 
REMARK  5 active torsions:
REMARK  status: ('A' for Active; 'I' for Inactive)
REMARK    1  A    between atoms: C_2  and  C_3
REMARK    2  A    between atoms: C_3  and  N_4
REMARK    3  A    between atoms: N_10  and  C_11
REMARK    4  A    between atoms: C_13  and  C_14
REMARK    5  A    between atoms: C_20  and  N_21
REMARK                            x       y       z     vdW  Elec       q    Type
REMARK                         _______ _______ _______ _____ _____    ______ ____
ROOT
ATOM      1  C   UNL     1       5.442   4.637  15.793  0.00  0.00    +0.000 A 
ATOM      2  C   UNL     1       5.045   4.020  14.591  0.00  0.00    +0.000 A 
ATOM      3  C   UNL     1       5.884   3.982  13.466  0.00  0.00    +0.000 A 
ATOM      4  C   UNL     1       7.147   4.577  13.550  0.00  0.00    +0.000 A 
ATOM      5  C   UNL     1       7.565   5.181  14.738  0.00  0.00    +0.000 A 
ATOM      6  C   UNL     1       6.733   5.197  15.873  0.00  0.00    +0.000 A 
ENDROOT
BRANCH   6   7
ATOM      7  N   UNL     1       7.290   5.661  17.102  0.00  0.00    +0.000 N 
ATOM      8  C   UNL     1       7.583   6.969  17.435  0.00  0.00    +0.000 A 
ATOM      9  C   UNL     1       8.061   7.019  18.728  0.00  0.00    +0.000 A 
ATOM     10  C   UNL     1       8.038   5.704  19.226  0.00  0.00    +0.000 A 
ATOM     11  C   UNL     1       7.543   4.894  18.228  0.00  0.00    +0.000 A 
ENDBRANCH   6   7
BRANCH   1  14
ATOM     12  O   UNL     1       4.211   7.081  16.651  0.00  0.00    +0.000 OA
ATOM     13  C   UNL     1       3.987   6.014  17.235  0.00  0.00    +0.000 C 
ATOM     14  N   UNL     1       4.483   4.793  16.822  0.00  0.00    +0.000 N 
ATOM     15  H   UNL     1       3.999   3.971  17.176  0.00  0.00    +0.000 HD
BRANCH  13  16
ATOM     16  C   UNL     1       3.021   5.981  18.420  0.00  0.00    +0.000 C 
BRANCH  16  17
ATOM     17  N   UNL     1       2.787   4.626  18.988  0.00  0.00    +0.000 NA
ATOM     18  C   UNL     1       2.705   4.669  20.462  0.00  0.00    +0.000 C 
ATOM     19  C   UNL     1       2.439   3.274  21.034  0.00  0.00    +0.000 C 
ATOM     20  C   UNL     1       1.137   2.701  20.492  0.00  0.00    +0.000 C 
ATOM     21  C   UNL     1       1.140   2.736  18.969  0.00  0.00    +0.000 C 
ATOM     22  C   UNL     1       1.504   4.124  18.440  0.00  0.00    +0.000 C 
ENDBRANCH  16  17
ENDBRANCH  13  16
ENDBRANCH   1  14
BRANCH   3  23
ATOM     23  C   UNL     1       5.445   3.330  12.178  0.00  0.00    +0.000 C 
ATOM     24  F   UNL     1       4.115   3.459  11.915  0.00  0.00    +0.000 F 
ATOM     25  F   UNL     1       6.087   3.849  11.093  0.00  0.00    +0.000 F 
ATOM     26  F   UNL     1       5.704   1.993  12.156  0.00  0.00    +0.000 F 
ENDBRANCH   3  23
TORSDOF 5
ENDMDL
MODEL 3
REMARK VINA RESULT:      -7.7      4.539      6.092
REMARK  Name = 
REMARK  5 active torsions:
REMARK  status: ('A' for Active; 'I' for Inactive)
REMARK    1  A    between atoms: C_2  and  C_3
REMARK    2  A    between atoms: C_3  and  N_4
REMARK    3  A    between atoms: N_10  and  C_11
REMARK    4  A    between atoms: C_13  and  C_14
REMARK    5  A    between atoms: C_20  and  N_21
REMARK                            x       y       z     vdW  Elec       q    Type
REMARK                         _______ _______ _______ _____ _____    ______ ____
ROOT
ATOM      1  C   UNL     1       3.365   5.566  18.367  0.00  0.00    +0.000 A 
ATOM      2  C   UNL     1       2.268   4.752  18.710  0.00  0.00    +0.000 A 
ATOM      3  C   UNL     1       2.424   3.393  19.022  0.00  0.00    +0.000 A 
ATOM      4  C   UNL     1       3.708   2.839  18.987  0.00  0.00    +0.000 A 
ATOM      5  C   UNL     1       4.811   3.633  18.664  0.00  0.00    +0.000 A 
ATOM      6  C   UNL     1       4.657   5.002  18.376  0.00  0.00    +0.000 A 
ENDROOT
BRANCH   6   7
ATOM      7  N   UNL     1       5.837   5.793  18.239  0.00  0.00    +0.000 N 
ATOM      8  C   UNL     1       6.957   5.752  19.047  0.00  0.00    +0.000 A 
ATOM      9  C   UNL     1       7.904   6.630  18.563  0.00  0.00    +0.000 A 
ATOM     10  C   UNL     1       7.370   7.214  17.401  0.00  0.00    +0.000 A 
ATOM     11  C   UNL     1       6.117   6.674  17.208  0.00  0.00    +0.000 A 
ENDBRANCH   6   7
BRANCH   1  14
ATOM     12  O   UNL     1       2.063   7.693  19.784  0.00  0.00    +0.000 OA
ATOM     13  C   UNL     1       2.410   7.830  18.605  0.00  0.00    +0.000 C 
ATOM     14  N   UNL     1       3.113   6.876  17.894  0.00  0.00    +0.000 N 
ATOM     15  H   UNL     1       3.602   7.206  17.066  0.00  0.00    +0.000 HD
BRANCH  13  16
ATOM     16  C   UNL     1       2.170   9.160  17.887  0.00  0.00    +0.000 C 
BRANCH  16  17
ATOM     17  N   UNL     1       1.345  10.134  18.652  0.00  0.00    +0.000 NA
ATOM     18  C   UNL     1       1.824  11.516  18.449  0.00  0.00    +0.000 C 
ATOM     19  C   UNL     1       0.953  12.512  19.219  0.00  0.00    +0.000 C 
ATOM     20  C   UNL     1      -0.499  12.430  18.772  0.00  0.00    +0.000 C 
ATOM     21  C   UNL     1      -0.999  10.994  18.868  0.00  0.00    +0.000 C 
ATOM     22  C   UNL     1      -0.050  10.021  18.166  0.00  0.00    +0.000 C 
ENDBRANCH  16  17
ENDBRANCH  13  16
ENDBRANCH   1  14
BRANCH   3  23
ATOM     23  C   UNL     1       1.241   2.525  19.375  0.00  0.00    +0.000 C 
ATOM     24  F   UNL     1       0.245   2.539  18.447  0.00  0.00    +0.000 F 
ATOM     25  F   UNL     1       1.589   1.215  19.521  0.00  0.00    +0.000 F 
ATOM     26  F   UNL     1       0.662   2.887  20.553  0.00  0.00    +0.000 F 
ENDBRANCH   3  23
TORSDOF 5
ENDMDL
MODEL 4
REMARK VINA RESULT:      -7.7      0.821      1.628
REMARK  Name = 
REMARK  5 active torsions:
REMARK  status: ('A' for Active; 'I' for Inactive)
REMARK    1  A    between atoms: C_2  and  C_3
REMARK    2  A    between atoms: C_3  and  N_4
REMARK    3  A    between atoms: N_10  and  C_11
REMARK    4  A    between atoms: C_13  and  C_14
REMARK    5  A    between atoms: C_20  and  N_21
REMARK                            x       y       z     vdW  Elec       q    Type
REMARK                         _______ _______ _______ _____ _____    ______ ____
ROOT
ATOM      1  C   UNL     1       5.363   5.134  15.609  0.00  0.00    +0.000 A 
ATOM      2  C   UNL     1       4.914   4.482  14.443  0.00  0.00    +0.000 A 
ATOM      3  C   UNL     1       5.803   4.052  13.446  0.00  0.00    +0.000 A 
ATOM      4  C   UNL     1       7.171   4.282  13.622  0.00  0.00    +0.000 A 
ATOM      5  C   UNL     1       7.638   4.914  14.777  0.00  0.00    +0.000 A 
ATOM      6  C   UNL     1       6.748   5.322  15.788  0.00  0.00    +0.000 A 
ENDROOT
BRANCH   6   7
ATOM      7  N   UNL     1       7.303   5.788  17.018  0.00  0.00    +0.000 N 
ATOM      8  C   UNL     1       7.558   7.101  17.364  0.00  0.00    +0.000 A 
ATOM      9  C   UNL     1       8.048   7.150  18.652  0.00  0.00    +0.000 A 
ATOM     10  C   UNL     1       8.071   5.829  19.134  0.00  0.00    +0.000 A 
ATOM     11  C   UNL     1       7.592   5.017  18.131  0.00  0.00    +0.000 A 
ENDBRANCH   6   7
BRANCH   1  14
ATOM     12  O   UNL     1       4.448   4.044  18.099  0.00  0.00    +0.000 OA
ATOM     13  C   UNL     1       3.951   5.075  17.632  0.00  0.00    +0.000 C 
ATOM     14  N   UNL     1       4.402   5.695  16.483  0.00  0.00    +0.000 N 
ATOM     15  H   UNL     1       4.138   6.670  16.367  0.00  0.00    +0.000 HD
BRANCH  13  16
ATOM     16  C   UNL     1       2.847   5.805  18.400  0.00  0.00    +0.000 C 
BRANCH  16  17
ATOM     17  N   UNL     1       1.918   4.912  19.143  0.00  0.00    +0.000 NA
ATOM     18  C   UNL     1       1.653   3.669  18.390  0.00  0.00    +0.000 C 
ATOM     19  C   UNL     1       0.716   2.747  19.175  0.00  0.00    +0.000 C 
ATOM     20  C   UNL     1       1.316   2.379  20.525  0.00  0.00    +0.000 C 
ATOM     21  C   UNL     1       1.700   3.638  21.290  0.00  0.00    +0.000 C 
ATOM     22  C   UNL     1       2.557   4.575  20.437  0.00  0.00    +0.000 C 
ENDBRANCH  16  17
ENDBRANCH  13  16
ENDBRANCH   1  14
BRANCH   3  23
ATOM     23  C   UNL     1       5.311   3.367  12.195  0.00  0.00    +0.000 C 
ATOM     24  F   UNL     1       3.957   3.359  12.062  0.00  0.00    +0.000 F 
ATOM     25  F   UNL     1       5.789   3.957  11.063  0.00  0.00    +0.000 F 
ATOM     26  F   UNL     1       5.703   2.064  12.126  0.00  0.00    +0.000 F 
ENDBRANCH   3  23
TORSDOF 5
ENDMDL
MODEL 5
REMARK VINA RESULT:      -7.6      1.274      1.461
REMARK  Name = 
REMARK  5 active torsions:
REMARK  status: ('A' for Active; 'I' for Inactive)
REMARK    1  A    between atoms: C_2  and  C_3
REMARK    2  A    between atoms: C_3  and  N_4
REMARK    3  A    between atoms: N_10  and  C_11
REMARK    4  A    between atoms: C_13  and  C_14
REMARK    5  A    between atoms: C_20  and  N_21
REMARK                            x       y       z     vdW  Elec       q    Type
REMARK                         _______ _______ _______ _____ _____    ______ ____
ROOT
ATOM      1  C   UNL     1       5.505   4.662  15.427  0.00  0.00    +0.000 A 
ATOM      2  C   UNL     1       5.239   3.980  14.224  0.00  0.00    +0.000 A 
ATOM      3  C   UNL     1       6.193   3.889  13.198  0.00  0.00    +0.000 A 
ATOM      4  C   UNL     1       7.439   4.496  13.384  0.00  0.00    +0.000 A 
ATOM      5  C   UNL     1       7.728   5.165  14.577  0.00  0.00    +0.000 A 
ATOM      6  C   UNL     1       6.780   5.234  15.615  0.00  0.00    +0.000 A 
ENDROOT
BRANCH   6   7
ATOM      7  N   UNL     1       7.203   5.764  16.870  0.00  0.00    +0.000 N 
ATOM      8  C   UNL     1       7.509   5.045  18.010  0.00  0.00    +0.000 A 
ATOM      9  C   UNL     1       7.924   5.911  19.001  0.00  0.00    +0.000 A 
ATOM     10  C   UNL     1       7.903   7.205  18.453  0.00  0.00    +0.000 A 
ATOM     11  C   UNL     1       7.482   7.092  17.146  0.00  0.00    +0.000 A 
ENDBRANCH   6   7
BRANCH   1  14
ATOM     12  O   UNL     1       4.288   2.697  17.126  0.00  0.00    +0.000 OA
ATOM     13  C   UNL     1       3.852   3.853  17.072  0.00  0.00    +0.000 C 
ATOM     14  N   UNL     1       4.442   4.865  16.339  0.00  0.00    +0.000 N 
ATOM     15  H   UNL     1       4.193   5.814  16.605  0.00  0.00    +0.000 HD
BRANCH  13  16
ATOM     16  C   UNL     1       2.660   4.260  17.940  0.00  0.00    +0.000 C 
BRANCH  16  17
ATOM     17  N   UNL     1       2.387   3.347  19.083  0.00  0.00    +0.000 NA
ATOM     18  C   UNL     1       3.479   3.393  20.077  0.00  0.00    +0.000 C 
ATOM     19  C   UNL     1       3.176   2.470  21.260  0.00  0.00    +0.000 C 
ATOM     20  C   UNL     1       1.877   2.868  21.946  0.00  0.00    +0.000 C 
ATOM     21  C   UNL     1       0.744   2.934  20.929  0.00  0.00    +0.000 C 
ATOM     22  C   UNL     1       1.125   3.790  19.720  0.00  0.00    +0.000 C 
ENDBRANCH  16  17
ENDBRANCH  13  16
ENDBRANCH   1  14
BRANCH   3  23
ATOM     23  C   UNL     1       5.894   3.169  11.906  0.00  0.00    +0.000 C 
ATOM     24  F   UNL     1       6.959   3.074  11.064  0.00  0.00    +0.000 F 
ATOM     25  F   UNL     1       5.474   1.889  12.116  0.00  0.00    +0.000 F 
ATOM     26  F   UNL     1       4.902   3.771  11.192  0.00  0.00    +0.000 F 
ENDBRANCH   3  23
TORSDOF 5
ENDMDL
MODEL 6
REMARK VINA RESULT:      -7.6      4.549      6.084
REMARK  Name = 
REMARK  5 active torsions:
REMARK  status: ('A' for Active; 'I' for Inactive)
REMARK    1  A    between atoms: C_2  and  C_3
REMARK    2  A    between atoms: C_3  and  N_4
REMARK    3  A    between atoms: N_10  and  C_11
REMARK    4  A    between atoms: C_13  and  C_14
REMARK    5  A    between atoms: C_20  and  N_21
REMARK                            x       y       z     vdW  Elec       q    Type
REMARK                         _______ _______ _______ _____ _____    ______ ____
ROOT
ATOM      1  C   UNL     1       3.287   5.610  18.298  0.00  0.00    +0.000 A 
ATOM      2  C   UNL     1       2.212   4.786  18.687  0.00  0.00    +0.000 A 
ATOM      3  C   UNL     1       2.390   3.423  18.969  0.00  0.00    +0.000 A 
ATOM      4  C   UNL     1       3.672   2.875  18.858  0.00  0.00    +0.000 A 
ATOM      5  C   UNL     1       4.753   3.679  18.488  0.00  0.00    +0.000 A 
ATOM      6  C   UNL     1       4.579   5.051  18.230  0.00  0.00    +0.000 A 
ENDROOT
BRANCH   6   7
ATOM      7  N   UNL     1       5.747   5.849  18.042  0.00  0.00    +0.000 N 
ATOM      8  C   UNL     1       5.915   6.864  17.120  0.00  0.00    +0.000 A 
ATOM      9  C   UNL     1       7.163   7.429  17.281  0.00  0.00    +0.000 A 
ATOM     10  C   UNL     1       7.781   6.765  18.354  0.00  0.00    +0.000 A 
ATOM     11  C   UNL     1       6.893   5.820  18.819  0.00  0.00    +0.000 A 
ENDBRANCH   6   7
BRANCH   1  14
ATOM     12  O   UNL     1       2.157   7.743  19.848  0.00  0.00    +0.000 OA
ATOM     13  C   UNL     1       2.388   7.883  18.642  0.00  0.00    +0.000 C 
ATOM     14  N   UNL     1       3.005   6.926  17.860  0.00  0.00    +0.000 N 
ATOM     15  H   UNL     1       3.415   7.255  16.989  0.00  0.00    +0.000 HD
BRANCH  13  16
ATOM     16  C   UNL     1       2.094   9.220  17.959  0.00  0.00    +0.000 C 
BRANCH  16  17
ATOM     17  N   UNL     1       1.092  10.066  18.662  0.00  0.00    +0.000 NA
ATOM     18  C   UNL     1       1.488  11.489  18.649  0.00  0.00    +0.000 C 
ATOM     19  C   UNL     1       0.438  12.352  19.353  0.00  0.00    +0.000 C 
ATOM     20  C   UNL     1      -0.920  12.220  18.677  0.00  0.00    +0.000 C 
ATOM     21  C   UNL     1      -1.317  10.753  18.576  0.00  0.00    +0.000 C 
ATOM     22  C   UNL     1      -0.202   9.911  17.954  0.00  0.00    +0.000 C 
ENDBRANCH  16  17
ENDBRANCH  13  16
ENDBRANCH   1  14
BRANCH   3  23
ATOM     23  C   UNL     1       1.230   2.545  19.371  0.00  0.00    +0.000 C 
ATOM     24  F   UNL     1       0.568   2.973  20.481  0.00  0.00    +0.000 F 
ATOM     25  F   UNL     1       0.287   2.455  18.391  0.00  0.00    +0.000 F 
ATOM     26  F   UNL     1       1.613   1.264  19.633  0.00  0.00    +0.000 F 
ENDBRANCH   3  23
TORSDOF 5
ENDMDL
MODEL 7
REMARK VINA RESULT:      -7.6      0.833      1.500
REMARK  Name = 
REMARK  5 active torsions:
REMARK  status: ('A' for Active; 'I' for Inactive)
REMARK    1  A    between atoms: C_2  and  C_3
REMARK    2  A    between atoms: C_3  and  N_4
REMARK    3  A    between atoms: N_10  and  C_11
REMARK    4  A    between atoms: C_13  and  C_14
REMARK    5  A    between atoms: C_20  and  N_21
REMARK                            x       y       z     vdW  Elec       q    Type
REMARK                         _______ _______ _______ _____ _____    ______ ____
ROOT
ATOM      1  C   UNL     1       5.362   5.142  15.636  0.00  0.00    +0.000 A 
ATOM      2  C   UNL     1       4.953   4.476  14.464  0.00  0.00    +0.000 A 
ATOM      3  C   UNL     1       5.872   4.074  13.483  0.00  0.00    +0.000 A 
ATOM      4  C   UNL     1       7.229   4.347  13.681  0.00  0.00    +0.000 A 
ATOM      5  C   UNL     1       7.657   4.993  14.843  0.00  0.00    +0.000 A 
ATOM      6  C   UNL     1       6.738   5.374  15.839  0.00  0.00    +0.000 A 
ENDROOT
BRANCH   6   7
ATOM      7  N   UNL     1       7.257   5.857  17.077  0.00  0.00    +0.000 N 
ATOM      8  C   UNL     1       7.636   5.097  18.167  0.00  0.00    +0.000 A 
ATOM      9  C   UNL     1       8.133   5.924  19.153  0.00  0.00    +0.000 A 
ATOM     10  C   UNL     1       8.089   7.237  18.651  0.00  0.00    +0.000 A 
ATOM     11  C   UNL     1       7.573   7.172  17.375  0.00  0.00    +0.000 A 
ENDBRANCH   6   7
BRANCH   1  14
ATOM     12  O   UNL     1       4.524   4.090  18.169  0.00  0.00    +0.000 OA
ATOM     13  C   UNL     1       3.962   5.070  17.667  0.00  0.00    +0.000 C 
ATOM     14  N   UNL     1       4.370   5.674  16.493  0.00  0.00    +0.000 N 
ATOM     15  H   UNL     1       4.044   6.625  16.343  0.00  0.00    +0.000 HD
BRANCH  13  16
ATOM     16  C   UNL     1       2.815   5.756  18.412  0.00  0.00    +0.000 C 
BRANCH  16  17
ATOM     17  N   UNL     1       1.851   4.824  19.056  0.00  0.00    +0.000 NA
ATOM     18  C   UNL     1       1.713   3.575  18.279  0.00  0.00    +0.000 C 
ATOM     19  C   UNL     1       0.738   2.614  18.964  0.00  0.00    +0.000 C 
ATOM     20  C   UNL     1       1.212   2.262  20.367  0.00  0.00    +0.000 C 
ATOM     21  C   UNL     1       1.468   3.532  21.169  0.00  0.00    +0.000 C 
ATOM     22  C   UNL     1       2.369   4.505  20.408  0.00  0.00    +0.000 C 
ENDBRANCH  16  17
ENDBRANCH  13  16
ENDBRANCH   1  14
BRANCH   3  23
ATOM     23  C   UNL     1       5.423   3.373  12.224  0.00  0.00    +0.000 C 
ATOM     24  F   UNL     1       5.899   3.932  11.078  0.00  0.00    +0.000 F 
ATOM     25  F   UNL     1       5.819   2.069  12.191  0.00  0.00    +0.000 F 
ATOM     26  F   UNL     1       4.067   3.350  12.096  0.00  0.00    +0.000 F 
ENDBRANCH   3  23
TORSDOF 5
ENDMDL
MODEL 8
REMARK VINA RESULT:      -7.4      1.165      1.652
REMARK  Name = 
REMARK  5 active torsions:
REMARK  status: ('A' for Active; 'I' for Inactive)
REMARK    1  A    between atoms: C_2  and  C_3
REMARK    2  A    between atoms: C_3  and  N_4
REMARK    3  A    between atoms: N_10  and  C_11
REMARK    4  A    between atoms: C_13  and  C_14
REMARK    5  A    between atoms: C_20  and  N_21
REMARK                            x       y       z     vdW  Elec       q    Type
REMARK                         _______ _______ _______ _____ _____    ______ ____
ROOT
ATOM      1  C   UNL     1       5.498   4.697  15.378  0.00  0.00    +0.000 A 
ATOM      2  C   UNL     1       5.176   4.029  14.180  0.00  0.00    +0.000 A 
ATOM      3  C   UNL     1       6.102   3.899  13.134  0.00  0.00    +0.000 A 
ATOM      4  C   UNL     1       7.376   4.452  13.291  0.00  0.00    +0.000 A 
ATOM      5  C   UNL     1       7.719   5.107  14.477  0.00  0.00    +0.000 A 
ATOM      6  C   UNL     1       6.799   5.215  15.536  0.00  0.00    +0.000 A 
ENDROOT
BRANCH   6   7
ATOM      7  N   UNL     1       7.272   5.727  16.782  0.00  0.00    +0.000 N 
ATOM      8  C   UNL     1       7.444   7.056  17.117  0.00  0.00    +0.000 A 
ATOM      9  C   UNL     1       7.870   7.148  18.426  0.00  0.00    +0.000 A 
ATOM     10  C   UNL     1       7.937   5.838  18.931  0.00  0.00    +0.000 A 
ATOM     11  C   UNL     1       7.547   4.987  17.920  0.00  0.00    +0.000 A 
ENDBRANCH   6   7
BRANCH   1  14
ATOM     12  O   UNL     1       4.357   2.823  17.225  0.00  0.00    +0.000 OA
ATOM     13  C   UNL     1       3.909   3.971  17.122  0.00  0.00    +0.000 C 
ATOM     14  N   UNL     1       4.465   4.944  16.313  0.00  0.00    +0.000 N 
ATOM     15  H   UNL     1       4.217   5.905  16.535  0.00  0.00    +0.000 HD
BRANCH  13  16
ATOM     16  C   UNL     1       2.744   4.419  18.006  0.00  0.00    +0.000 C 
BRANCH  16  17
ATOM     17  N   UNL     1       2.695   3.764  19.341  0.00  0.00    +0.000 NA
ATOM     18  C   UNL     1       2.326   4.728  20.398  0.00  0.00    +0.000 C 
ATOM     19  C   UNL     1       2.254   4.037  21.763  0.00  0.00    +0.000 C 
ATOM     20  C   UNL     1       1.230   2.912  21.753  0.00  0.00    +0.000 C 
ATOM     21  C   UNL     1       1.516   1.950  20.607  0.00  0.00    +0.000 C 
ATOM     22  C   UNL     1       1.674   2.691  19.278  0.00  0.00    +0.000 C 
ENDBRANCH  16  17
ENDBRANCH  13  16
ENDBRANCH   1  14
BRANCH   3  23
ATOM     23  C   UNL     1       5.743   3.192  11.849  0.00  0.00    +0.000 C 
ATOM     24  F   UNL     1       4.679   3.734  11.196  0.00  0.00    +0.000 F 
ATOM     25  F   UNL     1       6.770   3.202  10.952  0.00  0.00    +0.000 F 
ATOM     26  F   UNL     1       5.437   1.880  12.045  0.00  0.00    +0.000 F 
ENDBRANCH   3  23
TORSDOF 5
ENDMDL
MODEL 9
REMARK VINA RESULT:      -7.3      1.497      2.410
REMARK  Name = 
REMARK  5 active torsions:
REMARK  status: ('A' for Active; 'I' for Inactive)
REMARK    1  A    between atoms: C_2  and  C_3
REMARK    2  A    between atoms: C_3  and  N_4
REMARK    3  A    between atoms: N_10  and  C_11
REMARK    4  A    between atoms: C_13  and  C_14
REMARK    5  A    between atoms: C_20  and  N_21
REMARK                            x       y       z     vdW  Elec       q    Type
REMARK                         _______ _______ _______ _____ _____    ______ ____
ROOT
ATOM      1  C   UNL     1       5.333   4.793  15.693  0.00  0.00    +0.000 A 
ATOM      2  C   UNL     1       4.967   4.152  14.493  0.00  0.00    +0.000 A 
ATOM      3  C   UNL     1       5.876   3.985  13.437  0.00  0.00    +0.000 A 
ATOM      4  C   UNL     1       7.178   4.473  13.587  0.00  0.00    +0.000 A 
ATOM      5  C   UNL     1       7.564   5.099  14.775  0.00  0.00    +0.000 A 
ATOM      6  C   UNL     1       6.660   5.244  15.844  0.00  0.00    +0.000 A 
ENDROOT
BRANCH   6   7
ATOM      7  N   UNL     1       7.168   5.720  17.089  0.00  0.00    +0.000 N 
ATOM      8  C   UNL     1       7.499   4.957  18.192  0.00  0.00    +0.000 A 
ATOM      9  C   UNL     1       8.002   5.775  19.183  0.00  0.00    +0.000 A 
ATOM     10  C   UNL     1       8.011   7.084  18.670  0.00  0.00    +0.000 A 
ATOM     11  C   UNL     1       7.520   7.027  17.385  0.00  0.00    +0.000 A 
ENDBRANCH   6   7
BRANCH   1  14
ATOM     12  O   UNL     1       4.461   3.122  17.855  0.00  0.00    +0.000 OA
ATOM     13  C   UNL     1       3.899   4.196  17.611  0.00  0.00    +0.000 C 
ATOM     14  N   UNL     1       4.321   5.082  16.639  0.00  0.00    +0.000 N 
ATOM     15  H   UNL     1       3.990   6.039  16.733  0.00  0.00    +0.000 HD
BRANCH  13  16
ATOM     16  C   UNL     1       2.735   4.663  18.487  0.00  0.00    +0.000 C 
BRANCH  16  17
ATOM     17  N   UNL     1       2.791   6.099  18.873  0.00  0.00    +0.000 NA
ATOM     18  C   UNL     1       2.262   6.964  17.798  0.00  0.00    +0.000 C 
ATOM     19  C   UNL     1       2.300   8.436  18.217  0.00  0.00    +0.000 C 
ATOM     20  C   UNL     1       1.478   8.668  19.476  0.00  0.00    +0.000 C 
ATOM     21  C   UNL     1       1.925   7.718  20.579  0.00  0.00    +0.000 C 
ATOM     22  C   UNL     1       1.963   6.269  20.091  0.00  0.00    +0.000 C 
ENDBRANCH  16  17
ENDBRANCH  13  16
ENDBRANCH   1  14
BRANCH   3  23
ATOM     23  C   UNL     1       5.472   3.309  12.150  0.00  0.00    +0.000 C 
ATOM     24  F   UNL     1       5.707   1.968  12.129  0.00  0.00    +0.000 F 
ATOM     25  F   UNL     1       4.142   3.454  11.887  0.00  0.00    +0.000 F 
ATOM     26  F   UNL     1       6.121   3.820  11.067  0.00  0.00    +0.000 F 
ENDBRANCH   3  23
TORSDOF 5
ENDMDL
