MODEL 1
REMARK VINA RESULT:      -7.6      0.000      0.000
REMARK  Name = 
REMARK  2 active torsions:
REMARK  status: ('A' for Active; 'I' for Inactive)
REMARK    1  A    between atoms: C_1  and  C_2
REMARK    2  A    between atoms: C_4  and  O_5
REMARK                            x       y       z     vdW  Elec       q    Type
REMARK                         _______ _______ _______ _____ _____    ______ ____
ROOT
ATOM      1  C   UNL     1       1.440   2.642  21.651  0.00  0.00    +0.000 C 
ATOM      2  C   UNL     1       2.235   3.081  20.463  0.00  0.00    +0.000 A 
ATOM      3  N   UNL     1       2.817   2.134  19.721  0.00  0.00    +0.000 NA
ATOM      4  C   UNL     1       3.514   2.581  18.668  0.00  0.00    +0.000 A 
ATOM      5  C   UNL     1       3.690   3.916  18.280  0.00  0.00    +0.000 A 
ATOM      6  C   UNL     1       3.027   4.794  19.147  0.00  0.00    +0.000 A 
ATOM      7  C   UNL     1       3.100   6.154  18.903  0.00  0.00    +0.000 A 
ATOM      8  C   UNL     1       3.810   6.676  17.823  0.00  0.00    +0.000 A 
ATOM      9  C   UNL     1       4.482   5.830  16.938  0.00  0.00    +0.000 A 
ATOM     10  C   UNL     1       5.191   6.374  15.853  0.00  0.00    +0.000 A 
ATOM     11  C   UNL     1       5.870   5.555  14.955  0.00  0.00    +0.000 A 
ATOM     12  C   UNL     1       5.846   4.181  15.133  0.00  0.00    +0.000 A 
ATOM     13  C   UNL     1       5.144   3.633  16.209  0.00  0.00    +0.000 A 
ATOM     14  C   UNL     1       4.439   4.429  17.146  0.00  0.00    +0.000 A 
ATOM     15  N   UNL     1       2.316   4.396  20.213  0.00  0.00    +0.000 NA
ENDROOT
BRANCH   4  16
ATOM     16  O   UNL     1       4.060   1.541  17.986  0.00  0.00    +0.000 OA
ATOM     17  H   UNL     1       3.501   1.552  17.188  0.00  0.00    +0.000 HD
ENDBRANCH   4  16
TORSDOF 1
ENDMDL
MODEL 2
REMARK VINA RESULT:      -7.2      1.304      1.304
REMARK  Name = 
REMARK  2 active torsions:
REMARK  status: ('A' for Active; 'I' for Inactive)
REMARK    1  A    between atoms: C_1  and  C_2
REMARK    2  A    between atoms: C_4  and  O_5
REMARK                            x       y       z     vdW  Elec       q    Type
REMARK                         _______ _______ _______ _____ _____    ______ ____
ROOT
ATOM      1  C   UNL     1       1.162   2.731  21.711  0.00  0.00    +0.000 C 
ATOM      2  C   UNL     1       2.211   3.275  20.794  0.00  0.00    +0.000 A 
ATOM      3  N   UNL     1       3.316   2.546  20.612  0.00  0.00    +0.000 NA
ATOM      4  C   UNL     1       4.221   3.079  19.780  0.00  0.00    +0.000 A 
ATOM      5  C   UNL     1       4.123   4.300  19.099  0.00  0.00    +0.000 A 
ATOM      6  C   UNL     1       2.917   4.952  19.386  0.00  0.00    +0.000 A 
ATOM      7  C   UNL     1       2.663   6.175  18.790  0.00  0.00    +0.000 A 
ATOM      8  C   UNL     1       3.567   6.776  17.916  0.00  0.00    +0.000 A 
ATOM      9  C   UNL     1       4.779   6.154  17.609  0.00  0.00    +0.000 A 
ATOM     10  C   UNL     1       5.678   6.774  16.724  0.00  0.00    +0.000 A 
ATOM     11  C   UNL     1       6.893   6.177  16.398  0.00  0.00    +0.000 A 
ATOM     12  C   UNL     1       7.221   4.952  16.955  0.00  0.00    +0.000 A 
ATOM     13  C   UNL     1       6.334   4.330  17.836  0.00  0.00    +0.000 A 
ATOM     14  C   UNL     1       5.087   4.901  18.194  0.00  0.00    +0.000 A 
ATOM     15  N   UNL     1       1.980   4.460  20.209  0.00  0.00    +0.000 NA
ENDROOT
BRANCH   4  16
ATOM     16  O   UNL     1       5.298   2.260  19.667  0.00  0.00    +0.000 OA
ATOM     17  H   UNL     1       5.632   2.541  18.796  0.00  0.00    +0.000 HD
ENDBRANCH   4  16
TORSDOF 1
ENDMDL
MODEL 3
REMARK VINA RESULT:      -7.1      1.997      2.186
REMARK  Name = 
REMARK  2 active torsions:
REMARK  status: ('A' for Active; 'I' for Inactive)
REMARK    1  A    between atoms: C_1  and  C_2
REMARK    2  A    between atoms: C_4  and  O_5
REMARK                            x       y       z     vdW  Elec       q    Type
REMARK                         _______ _______ _______ _____ _____    ______ ____
ROOT
ATOM      1  C   UNL     1       0.626   2.346  19.123  0.00  0.00    +0.000 C 
ATOM      2  C   UNL     1       1.903   3.103  18.940  0.00  0.00    +0.000 A 
ATOM      3  N   UNL     1       3.032   2.528  19.365  0.00  0.00    +0.000 NA
ATOM      4  C   UNL     1       4.146   3.248  19.175  0.00  0.00    +0.000 A 
ATOM      5  C   UNL     1       4.239   4.517  18.588  0.00  0.00    +0.000 A 
ATOM      6  C   UNL     1       2.982   4.993  18.194  0.00  0.00    +0.000 A 
ATOM      7  C   UNL     1       2.898   6.238  17.594  0.00  0.00    +0.000 A 
ATOM      8  C   UNL     1       4.023   7.029  17.371  0.00  0.00    +0.000 A 
ATOM      9  C   UNL     1       5.292   6.586  17.751  0.00  0.00    +0.000 A 
ATOM     10  C   UNL     1       6.416   7.397  17.516  0.00  0.00    +0.000 A 
ATOM     11  C   UNL     1       7.692   6.981  17.883  0.00  0.00    +0.000 A 
ATOM     12  C   UNL     1       7.858   5.747  18.492  0.00  0.00    +0.000 A 
ATOM     13  C   UNL     1       6.747   4.936  18.730  0.00  0.00    +0.000 A 
ATOM     14  C   UNL     1       5.430   5.319  18.370  0.00  0.00    +0.000 A 
ATOM     15  N   UNL     1       1.839   4.311  18.361  0.00  0.00    +0.000 NA
ENDROOT
BRANCH   4  16
ATOM     16  O   UNL     1       5.229   2.574  19.640  0.00  0.00    +0.000 OA
ATOM     17  H   UNL     1       5.486   3.157  20.377  0.00  0.00    +0.000 HD
ENDBRANCH   4  16
TORSDOF 1
ENDMDL
MODEL 4
REMARK VINA RESULT:      -7.0      2.181      4.795
REMARK  Name = 
REMARK  2 active torsions:
REMARK  status: ('A' for Active; 'I' for Inactive)
REMARK    1  A    between atoms: C_1  and  C_2
REMARK    2  A    between atoms: C_4  and  O_5
REMARK                            x       y       z     vdW  Elec       q    Type
REMARK                         _______ _______ _______ _____ _____    ______ ____
ROOT
ATOM      1  C   UNL     1       6.925   4.802  14.160  0.00  0.00    +0.000 C 
ATOM      2  C   UNL     1       5.979   4.836  15.318  0.00  0.00    +0.000 A 
ATOM      3  N   UNL     1       5.668   3.673  15.899  0.00  0.00    +0.000 NA
ATOM      4  C   UNL     1       4.819   3.761  16.932  0.00  0.00    +0.000 A 
ATOM      5  C   UNL     1       4.238   4.927  17.449  0.00  0.00    +0.000 A 
ATOM      6  C   UNL     1       4.653   6.063  16.743  0.00  0.00    +0.000 A 
ATOM      7  C   UNL     1       4.170   7.301  17.128  0.00  0.00    +0.000 A 
ATOM      8  C   UNL     1       3.286   7.452  18.195  0.00  0.00    +0.000 A 
ATOM      9  C   UNL     1       2.852   6.341  18.921  0.00  0.00    +0.000 A 
ATOM     10  C   UNL     1       1.962   6.512  19.996  0.00  0.00    +0.000 A 
ATOM     11  C   UNL     1       1.513   5.423  20.738  0.00  0.00    +0.000 A 
ATOM     12  C   UNL     1       1.950   4.150  20.412  0.00  0.00    +0.000 A 
ATOM     13  C   UNL     1       2.834   3.971  19.346  0.00  0.00    +0.000 A 
ATOM     14  C   UNL     1       3.317   5.051  18.565  0.00  0.00    +0.000 A 
ATOM     15  N   UNL     1       5.501   6.028  15.704  0.00  0.00    +0.000 NA
ENDROOT
BRANCH   4  16
ATOM     16  O   UNL     1       4.573   2.528  17.447  0.00  0.00    +0.000 OA
ATOM     17  H   UNL     1       4.768   1.979  16.667  0.00  0.00    +0.000 HD
ENDBRANCH   4  16
TORSDOF 1
ENDMDL
MODEL 5
REMARK VINA RESULT:      -6.8      2.846      4.672
REMARK  Name = 
REMARK  2 active torsions:
REMARK  status: ('A' for Active; 'I' for Inactive)
REMARK    1  A    between atoms: C_1  and  C_2
REMARK    2  A    between atoms: C_4  and  O_5
REMARK                            x       y       z     vdW  Elec       q    Type
REMARK                         _______ _______ _______ _____ _____    ______ ____
ROOT
ATOM      1  C   UNL     1       7.876   8.286  17.468  0.00  0.00    +0.000 C 
ATOM      2  C   UNL     1       6.842   7.218  17.639  0.00  0.00    +0.000 A 
ATOM      3  N   UNL     1       7.268   5.969  17.841  0.00  0.00    +0.000 NA
ATOM      4  C   UNL     1       6.301   5.053  17.989  0.00  0.00    +0.000 A 
ATOM      5  C   UNL     1       4.918   5.274  17.952  0.00  0.00    +0.000 A 
ATOM      6  C   UNL     1       4.621   6.625  17.733  0.00  0.00    +0.000 A 
ATOM      7  C   UNL     1       3.294   7.015  17.669  0.00  0.00    +0.000 A 
ATOM      8  C   UNL     1       2.248   6.106  17.817  0.00  0.00    +0.000 A 
ATOM      9  C   UNL     1       2.508   4.752  18.038  0.00  0.00    +0.000 A 
ATOM     10  C   UNL     1       1.439   3.850  18.186  0.00  0.00    +0.000 A 
ATOM     11  C   UNL     1       1.668   2.495  18.408  0.00  0.00    +0.000 A 
ATOM     12  C   UNL     1       2.970   2.027  18.482  0.00  0.00    +0.000 A 
ATOM     13  C   UNL     1       4.037   2.916  18.334  0.00  0.00    +0.000 A 
ATOM     14  C   UNL     1       3.849   4.303  18.109  0.00  0.00    +0.000 A 
ATOM     15  N   UNL     1       5.551   7.580  17.579  0.00  0.00    +0.000 NA
ENDROOT
BRANCH   4  16
ATOM     16  O   UNL     1       6.842   3.823  18.189  0.00  0.00    +0.000 OA
ATOM     17  H   UNL     1       6.988   3.552  17.265  0.00  0.00    +0.000 HD
ENDBRANCH   4  16
TORSDOF 1
ENDMDL
MODEL 6
REMARK VINA RESULT:      -6.8      1.593      1.740
REMARK  Name = 
REMARK  2 active torsions:
REMARK  status: ('A' for Active; 'I' for Inactive)
REMARK    1  A    between atoms: C_1  and  C_2
REMARK    2  A    between atoms: C_4  and  O_5
REMARK                            x       y       z     vdW  Elec       q    Type
REMARK                         _______ _______ _______ _____ _____    ______ ____
ROOT
ATOM      1  C   UNL     1       1.460   3.568  21.124  0.00  0.00    +0.000 C 
ATOM      2  C   UNL     1       2.380   3.765  19.960  0.00  0.00    +0.000 A 
ATOM      3  N   UNL     1       1.966   3.340  18.763  0.00  0.00    +0.000 NA
ATOM      4  C   UNL     1       2.827   3.543  17.757  0.00  0.00    +0.000 A 
ATOM      5  C   UNL     1       4.091   4.142  17.837  0.00  0.00    +0.000 A 
ATOM      6  C   UNL     1       4.390   4.534  19.148  0.00  0.00    +0.000 A 
ATOM      7  C   UNL     1       5.606   5.146  19.401  0.00  0.00    +0.000 A 
ATOM      8  C   UNL     1       6.539   5.382  18.393  0.00  0.00    +0.000 A 
ATOM      9  C   UNL     1       6.274   5.005  17.075  0.00  0.00    +0.000 A 
ATOM     10  C   UNL     1       7.226   5.253  16.071  0.00  0.00    +0.000 A 
ATOM     11  C   UNL     1       6.989   4.889  14.748  0.00  0.00    +0.000 A 
ATOM     12  C   UNL     1       5.795   4.270  14.416  0.00  0.00    +0.000 A 
ATOM     13  C   UNL     1       4.844   4.018  15.408  0.00  0.00    +0.000 A 
ATOM     14  C   UNL     1       5.043   4.375  16.765  0.00  0.00    +0.000 A 
ATOM     15  N   UNL     1       3.562   4.355  20.189  0.00  0.00    +0.000 NA
ENDROOT
BRANCH   4  16
ATOM     16  O   UNL     1       2.309   3.078  16.591  0.00  0.00    +0.000 OA
ATOM     17  H   UNL     1       3.124   2.772  16.155  0.00  0.00    +0.000 HD
ENDBRANCH   4  16
TORSDOF 1
ENDMDL
MODEL 7
REMARK VINA RESULT:      -6.8      1.588      2.687
REMARK  Name = 
REMARK  2 active torsions:
REMARK  status: ('A' for Active; 'I' for Inactive)
REMARK    1  A    between atoms: C_1  and  C_2
REMARK    2  A    between atoms: C_4  and  O_5
REMARK                            x       y       z     vdW  Elec       q    Type
REMARK                         _______ _______ _______ _____ _____    ______ ____
ROOT
ATOM      1  C   UNL     1       1.201   2.540  22.057  0.00  0.00    +0.000 C 
ATOM      2  C   UNL     1       1.933   3.220  20.944  0.00  0.00    +0.000 A 
ATOM      3  N   UNL     1       2.085   4.545  21.019  0.00  0.00    +0.000 NA
ATOM      4  C   UNL     1       2.749   5.103  19.998  0.00  0.00    +0.000 A 
ATOM      5  C   UNL     1       3.287   4.445  18.883  0.00  0.00    +0.000 A 
ATOM      6  C   UNL     1       3.051   3.066  18.938  0.00  0.00    +0.000 A 
ATOM      7  C   UNL     1       3.519   2.267  17.909  0.00  0.00    +0.000 A 
ATOM      8  C   UNL     1       4.216   2.792  16.823  0.00  0.00    +0.000 A 
ATOM      9  C   UNL     1       4.469   4.163  16.736  0.00  0.00    +0.000 A 
ATOM     10  C   UNL     1       5.176   4.675  15.633  0.00  0.00    +0.000 A 
ATOM     11  C   UNL     1       5.443   6.036  15.520  0.00  0.00    +0.000 A 
ATOM     12  C   UNL     1       5.005   6.901  16.509  0.00  0.00    +0.000 A 
ATOM     13  C   UNL     1       4.302   6.401  17.607  0.00  0.00    +0.000 A 
ATOM     14  C   UNL     1       4.009   5.023  17.763  0.00  0.00    +0.000 A 
ATOM     15  N   UNL     1       2.393   2.460  19.938  0.00  0.00    +0.000 NA
ENDROOT
BRANCH   4  16
ATOM     16  O   UNL     1       2.848   6.446  20.175  0.00  0.00    +0.000 OA
ATOM     17  H   UNL     1       2.278   6.554  20.957  0.00  0.00    +0.000 HD
ENDBRANCH   4  16
TORSDOF 1
ENDMDL
MODEL 8
REMARK VINA RESULT:      -6.8      2.627      5.422
REMARK  Name = 
REMARK  2 active torsions:
REMARK  status: ('A' for Active; 'I' for Inactive)
REMARK    1  A    between atoms: C_1  and  C_2
REMARK    2  A    between atoms: C_4  and  O_5
REMARK                            x       y       z     vdW  Elec       q    Type
REMARK                         _______ _______ _______ _____ _____    ______ ____
ROOT
ATOM      1  C   UNL     1       6.910   4.807  14.262  0.00  0.00    +0.000 C 
ATOM      2  C   UNL     1       5.942   4.917  15.397  0.00  0.00    +0.000 A 
ATOM      3  N   UNL     1       5.702   6.135  15.891  0.00  0.00    +0.000 NA
ATOM      4  C   UNL     1       4.826   6.177  16.905  0.00  0.00    +0.000 A 
ATOM      5  C   UNL     1       4.155   5.091  17.483  0.00  0.00    +0.000 A 
ATOM      6  C   UNL     1       4.504   3.884  16.866  0.00  0.00    +0.000 A 
ATOM      7  C   UNL     1       3.926   2.711  17.320  0.00  0.00    +0.000 A 
ATOM      8  C   UNL     1       3.009   2.694  18.369  0.00  0.00    +0.000 A 
ATOM      9  C   UNL     1       2.638   3.880  19.007  0.00  0.00    +0.000 A 
ATOM     10  C   UNL     1       1.710   3.844  20.063  0.00  0.00    +0.000 A 
ATOM     11  C   UNL     1       1.320   5.010  20.717  0.00  0.00    +0.000 A 
ATOM     12  C   UNL     1       1.856   6.225  20.321  0.00  0.00    +0.000 A 
ATOM     13  C   UNL     1       2.780   6.268  19.274  0.00  0.00    +0.000 A 
ATOM     14  C   UNL     1       3.202   5.107  18.580  0.00  0.00    +0.000 A 
ATOM     15  N   UNL     1       5.374   3.789  15.849  0.00  0.00    +0.000 NA
ENDROOT
BRANCH   4  16
ATOM     16  O   UNL     1       4.656   7.455  17.330  0.00  0.00    +0.000 OA
ATOM     17  H   UNL     1       5.178   7.430  18.151  0.00  0.00    +0.000 HD
ENDBRANCH   4  16
TORSDOF 1
ENDMDL
MODEL 9
REMARK VINA RESULT:      -6.7      2.493      5.245
REMARK  Name = 
REMARK  2 active torsions:
REMARK  status: ('A' for Active; 'I' for Inactive)
REMARK    1  A    between atoms: C_1  and  C_2
REMARK    2  A    between atoms: C_4  and  O_5
REMARK                            x       y       z     vdW  Elec       q    Type
REMARK                         _______ _______ _______ _____ _____    ______ ____
ROOT
ATOM      1  C   UNL     1       7.171   4.809  15.400  0.00  0.00    +0.000 C 
ATOM      2  C   UNL     1       6.167   4.531  16.473  0.00  0.00    +0.000 A 
ATOM      3  N   UNL     1       6.519   4.795  17.735  0.00  0.00    +0.000 NA
ATOM      4  C   UNL     1       5.582   4.530  18.656  0.00  0.00    +0.000 A 
ATOM      5  C   UNL     1       4.300   4.013  18.428  0.00  0.00    +0.000 A 
ATOM      6  C   UNL     1       4.073   3.785  17.065  0.00  0.00    +0.000 A 
ATOM      7  C   UNL     1       2.849   3.274  16.669  0.00  0.00    +0.000 A 
ATOM      8  C   UNL     1       1.838   2.981  17.582  0.00  0.00    +0.000 A 
ATOM      9  C   UNL     1       2.030   3.195  18.949  0.00  0.00    +0.000 A 
ATOM     10  C   UNL     1       0.998   2.895  19.855  0.00  0.00    +0.000 A 
ATOM     11  C   UNL     1       1.161   3.099  21.223  0.00  0.00    +0.000 A 
ATOM     12  C   UNL     1       2.359   3.606  21.698  0.00  0.00    +0.000 A 
ATOM     13  C   UNL     1       3.390   3.906  20.804  0.00  0.00    +0.000 A 
ATOM     14  C   UNL     1       3.266   3.716  19.405  0.00  0.00    +0.000 A 
ATOM     15  N   UNL     1       4.976   4.035  16.106  0.00  0.00    +0.000 NA
ENDROOT
BRANCH   4  16
ATOM     16  O   UNL     1       6.041   4.834  19.897  0.00  0.00    +0.000 OA
ATOM     17  H   UNL     1       6.667   4.100  20.029  0.00  0.00    +0.000 HD
ENDBRANCH   4  16
TORSDOF 1
ENDMDL
