MODEL 1
REMARK VINA RESULT:      -7.4      0.000      0.000
REMARK  Name = 
REMARK  3 active torsions:
REMARK  status: ('A' for Active; 'I' for Inactive)
REMARK    1  A    between atoms: N_3  and  C_4
REMARK    2  A    between atoms: C_4  and  C_5
REMARK    3  A    between atoms: N_11  and  C_12
REMARK                            x       y       z     vdW  Elec       q    Type
REMARK                         _______ _______ _______ _____ _____    ______ ____
ROOT
ATOM      1  O   UNL     1       4.719   5.220  18.170  0.00  0.00    +0.000 OA
ATOM      2  C   UNL     1       4.865   4.079  17.748  0.00  0.00    +0.000 C 
ATOM      3  N   UNL     1       5.622   3.822  16.629  0.00  0.00    +0.000 N 
ATOM      4  N   UNL     1       4.276   2.948  18.256  0.00  0.00    +0.000 N 
ATOM      5  H   UNL     1       5.989   2.893  16.499  0.00  0.00    +0.000 HD
ATOM      6  H   UNL     1       4.627   2.051  17.947  0.00  0.00    +0.000 HD
ENDROOT
BRANCH   4   7
ATOM      7  C   UNL     1       3.274   2.903  19.254  0.00  0.00    +0.000 A 
ATOM      8  C   UNL     1       3.535   2.652  20.603  0.00  0.00    +0.000 A 
ATOM      9  C   UNL     1       2.501   2.659  21.544  0.00  0.00    +0.000 A 
ATOM     10  C   UNL     1       1.189   2.914  21.147  0.00  0.00    +0.000 A 
ATOM     11  C   UNL     1       0.911   3.165  19.804  0.00  0.00    +0.000 A 
ATOM     12  C   UNL     1       1.952   3.165  18.875  0.00  0.00    +0.000 A 
ATOM     13  F   UNL     1       1.667   3.415  17.587  0.00  0.00    +0.000 F 
ENDBRANCH   4   7
BRANCH   3  14
ATOM     14  C   UNL     1       6.283   4.910  15.939  0.00  0.00    +0.000 C 
BRANCH  14  15
ATOM     15  C   UNL     1       6.537   4.578  14.500  0.00  0.00    +0.000 A 
ATOM     16  C   UNL     1       5.730   3.669  13.809  0.00  0.00    +0.000 A 
ATOM     17  C   UNL     1       5.968   3.413  12.462  0.00  0.00    +0.000 A 
ATOM     18  C   UNL     1       7.011   4.082  11.846  0.00  0.00    +0.000 A 
ATOM     19  N   UNL     1       7.811   4.970  12.475  0.00  0.00    +0.000 NA
ATOM     20  C   UNL     1       7.552   5.202  13.782  0.00  0.00    +0.000 A 
ENDBRANCH  14  15
ENDBRANCH   3  14
TORSDOF 3
ENDMDL
MODEL 2
REMARK VINA RESULT:      -7.4      1.094      1.571
REMARK  Name = 
REMARK  3 active torsions:
REMARK  status: ('A' for Active; 'I' for Inactive)
REMARK    1  A    between atoms: N_3  and  C_4
REMARK    2  A    between atoms: C_4  and  C_5
REMARK    3  A    between atoms: N_11  and  C_12
REMARK                            x       y       z     vdW  Elec       q    Type
REMARK                         _______ _______ _______ _____ _____    ______ ____
ROOT
ATOM      1  O   UNL     1       4.854   5.247  18.136  0.00  0.00    +0.000 OA
ATOM      2  C   UNL     1       4.959   4.094  17.735  0.00  0.00    +0.000 C 
ATOM      3  N   UNL     1       5.761   3.779  16.664  0.00  0.00    +0.000 N 
ATOM      4  N   UNL     1       4.281   3.005  18.223  0.00  0.00    +0.000 N 
ATOM      5  H   UNL     1       6.082   2.829  16.565  0.00  0.00    +0.000 HD
ATOM      6  H   UNL     1       4.597   2.085  17.944  0.00  0.00    +0.000 HD
ENDROOT
BRANCH   4   7
ATOM      7  C   UNL     1       3.224   3.030  19.164  0.00  0.00    +0.000 A 
ATOM      8  C   UNL     1       1.922   3.428  18.854  0.00  0.00    +0.000 A 
ATOM      9  C   UNL     1       0.914   3.392  19.824  0.00  0.00    +0.000 A 
ATOM     10  C   UNL     1       1.199   2.961  21.119  0.00  0.00    +0.000 A 
ATOM     11  C   UNL     1       2.494   2.562  21.445  0.00  0.00    +0.000 A 
ATOM     12  C   UNL     1       3.489   2.592  20.467  0.00  0.00    +0.000 A 
ATOM     13  F   UNL     1       4.729   2.198  20.797  0.00  0.00    +0.000 F 
ENDBRANCH   4   7
BRANCH   3  14
ATOM     14  C   UNL     1       6.519   4.818  15.999  0.00  0.00    +0.000 C 
BRANCH  14  15
ATOM     15  C   UNL     1       6.676   4.538  14.535  0.00  0.00    +0.000 A 
ATOM     16  C   UNL     1       5.841   3.631  13.874  0.00  0.00    +0.000 A 
ATOM     17  C   UNL     1       5.987   3.424  12.506  0.00  0.00    +0.000 A 
ATOM     18  C   UNL     1       6.968   4.137  11.839  0.00  0.00    +0.000 A 
ATOM     19  N   UNL     1       7.791   5.024  12.439  0.00  0.00    +0.000 NA
ATOM     20  C   UNL     1       7.622   5.208  13.768  0.00  0.00    +0.000 A 
ENDBRANCH  14  15
ENDBRANCH   3  14
TORSDOF 3
ENDMDL
MODEL 3
REMARK VINA RESULT:      -7.3      1.289      1.944
REMARK  Name = 
REMARK  3 active torsions:
REMARK  status: ('A' for Active; 'I' for Inactive)
REMARK    1  A    between atoms: N_3  and  C_4
REMARK    2  A    between atoms: C_4  and  C_5
REMARK    3  A    between atoms: N_11  and  C_12
REMARK                            x       y       z     vdW  Elec       q    Type
REMARK                         _______ _______ _______ _____ _____    ______ ____
ROOT
ATOM      1  O   UNL     1       5.107   5.301  18.198  0.00  0.00    +0.000 OA
ATOM      2  C   UNL     1       5.139   4.154  17.771  0.00  0.00    +0.000 C 
ATOM      3  N   UNL     1       5.937   3.809  16.706  0.00  0.00    +0.000 N 
ATOM      4  N   UNL     1       4.377   3.103  18.219  0.00  0.00    +0.000 N 
ATOM      5  H   UNL     1       6.193   2.841  16.588  0.00  0.00    +0.000 HD
ATOM      6  H   UNL     1       4.634   2.170  17.922  0.00  0.00    +0.000 HD
ENDROOT
BRANCH   4   7
ATOM      7  C   UNL     1       3.307   3.180  19.141  0.00  0.00    +0.000 A 
ATOM      8  C   UNL     1       2.055   3.715  18.831  0.00  0.00    +0.000 A 
ATOM      9  C   UNL     1       1.028   3.725  19.780  0.00  0.00    +0.000 A 
ATOM     10  C   UNL     1       1.241   3.202  21.055  0.00  0.00    +0.000 A 
ATOM     11  C   UNL     1       2.485   2.665  21.381  0.00  0.00    +0.000 A 
ATOM     12  C   UNL     1       3.501   2.651  20.423  0.00  0.00    +0.000 A 
ATOM     13  F   UNL     1       4.691   2.125  20.753  0.00  0.00    +0.000 F 
ENDBRANCH   4   7
BRANCH   3  14
ATOM     14  C   UNL     1       6.779   4.808  16.081  0.00  0.00    +0.000 C 
BRANCH  14  15
ATOM     15  C   UNL     1       6.841   4.627  14.594  0.00  0.00    +0.000 A 
ATOM     16  C   UNL     1       7.727   5.371  13.808  0.00  0.00    +0.000 A 
ATOM     17  C   UNL     1       7.787   5.151  12.435  0.00  0.00    +0.000 A 
ATOM     18  C   UNL     1       6.957   4.187  11.891  0.00  0.00    +0.000 A 
ATOM     19  N   UNL     1       6.092   3.444  12.616  0.00  0.00    +0.000 NA
ATOM     20  C   UNL     1       6.059   3.677  13.948  0.00  0.00    +0.000 A 
ENDBRANCH  14  15
ENDBRANCH   3  14
TORSDOF 3
ENDMDL
MODEL 4
REMARK VINA RESULT:      -7.1      1.087      1.442
REMARK  Name = 
REMARK  3 active torsions:
REMARK  status: ('A' for Active; 'I' for Inactive)
REMARK    1  A    between atoms: N_3  and  C_4
REMARK    2  A    between atoms: C_4  and  C_5
REMARK    3  A    between atoms: N_11  and  C_12
REMARK                            x       y       z     vdW  Elec       q    Type
REMARK                         _______ _______ _______ _____ _____    ______ ____
ROOT
ATOM      1  O   UNL     1       4.528   5.571  17.440  0.00  0.00    +0.000 OA
ATOM      2  C   UNL     1       5.081   4.485  17.574  0.00  0.00    +0.000 C 
ATOM      3  N   UNL     1       6.240   4.185  16.898  0.00  0.00    +0.000 N 
ATOM      4  N   UNL     1       4.622   3.433  18.327  0.00  0.00    +0.000 N 
ATOM      5  H   UNL     1       6.832   3.454  17.259  0.00  0.00    +0.000 HD
ATOM      6  H   UNL     1       5.260   2.670  18.513  0.00  0.00    +0.000 HD
ENDROOT
BRANCH   4   7
ATOM      7  C   UNL     1       3.359   3.342  18.956  0.00  0.00    +0.000 A 
ATOM      8  C   UNL     1       3.043   3.986  20.155  0.00  0.00    +0.000 A 
ATOM      9  C   UNL     1       1.761   3.886  20.704  0.00  0.00    +0.000 A 
ATOM     10  C   UNL     1       0.777   3.135  20.061  0.00  0.00    +0.000 A 
ATOM     11  C   UNL     1       1.075   2.486  18.865  0.00  0.00    +0.000 A 
ATOM     12  C   UNL     1       2.355   2.600  18.321  0.00  0.00    +0.000 A 
ATOM     13  F   UNL     1       2.623   1.973  17.165  0.00  0.00    +0.000 F 
ENDBRANCH   4   7
BRANCH   3  14
ATOM     14  C   UNL     1       6.842   5.169  16.023  0.00  0.00    +0.000 C 
BRANCH  14  15
ATOM     15  C   UNL     1       6.788   4.741  14.588  0.00  0.00    +0.000 A 
ATOM     16  C   UNL     1       7.681   5.254  13.642  0.00  0.00    +0.000 A 
ATOM     17  C   UNL     1       7.629   4.805  12.325  0.00  0.00    +0.000 A 
ATOM     18  C   UNL     1       6.682   3.851  11.997  0.00  0.00    +0.000 A 
ATOM     19  N   UNL     1       5.805   3.327  12.882  0.00  0.00    +0.000 NA
ATOM     20  C   UNL     1       5.883   3.778  14.154  0.00  0.00    +0.000 A 
ENDBRANCH  14  15
ENDBRANCH   3  14
TORSDOF 3
ENDMDL
MODEL 5
REMARK VINA RESULT:      -7.1      1.268      1.522
REMARK  Name = 
REMARK  3 active torsions:
REMARK  status: ('A' for Active; 'I' for Inactive)
REMARK    1  A    between atoms: N_3  and  C_4
REMARK    2  A    between atoms: C_4  and  C_5
REMARK    3  A    between atoms: N_11  and  C_12
REMARK                            x       y       z     vdW  Elec       q    Type
REMARK                         _______ _______ _______ _____ _____    ______ ____
ROOT
ATOM      1  O   UNL     1       4.512   5.462  17.087  0.00  0.00    +0.000 OA
ATOM      2  C   UNL     1       5.118   4.433  17.360  0.00  0.00    +0.000 C 
ATOM      3  N   UNL     1       6.361   4.174  16.832  0.00  0.00    +0.000 N 
ATOM      4  N   UNL     1       4.653   3.404  18.140  0.00  0.00    +0.000 N 
ATOM      5  H   UNL     1       6.959   3.517  17.307  0.00  0.00    +0.000 HD
ATOM      6  H   UNL     1       5.317   2.706  18.450  0.00  0.00    +0.000 HD
ENDROOT
BRANCH   4   7
ATOM      7  C   UNL     1       3.338   3.263  18.642  0.00  0.00    +0.000 A 
ATOM      8  C   UNL     1       2.418   2.334  18.151  0.00  0.00    +0.000 A 
ATOM      9  C   UNL     1       1.145   2.221  18.719  0.00  0.00    +0.000 A 
ATOM     10  C   UNL     1       0.773   3.040  19.784  0.00  0.00    +0.000 A 
ATOM     11  C   UNL     1       1.679   3.974  20.285  0.00  0.00    +0.000 A 
ATOM     12  C   UNL     1       2.950   4.072  19.717  0.00  0.00    +0.000 A 
ATOM     13  F   UNL     1       3.812   4.972  20.216  0.00  0.00    +0.000 F 
ENDBRANCH   4   7
BRANCH   3  14
ATOM     14  C   UNL     1       6.986   5.138  15.950  0.00  0.00    +0.000 C 
BRANCH  14  15
ATOM     15  C   UNL     1       6.913   4.706  14.517  0.00  0.00    +0.000 A 
ATOM     16  C   UNL     1       5.972   3.765  14.088  0.00  0.00    +0.000 A 
ATOM     17  C   UNL     1       5.905   3.415  12.742  0.00  0.00    +0.000 A 
ATOM     18  C   UNL     1       6.785   4.024  11.865  0.00  0.00    +0.000 A 
ATOM     19  N   UNL     1       7.705   4.940  12.238  0.00  0.00    +0.000 NA
ATOM     20  C   UNL     1       7.743   5.264  13.551  0.00  0.00    +0.000 A 
ENDBRANCH  14  15
ENDBRANCH   3  14
TORSDOF 3
ENDMDL
MODEL 6
REMARK VINA RESULT:      -7.0      1.427      1.888
REMARK  Name = 
REMARK  3 active torsions:
REMARK  status: ('A' for Active; 'I' for Inactive)
REMARK    1  A    between atoms: N_3  and  C_4
REMARK    2  A    between atoms: C_4  and  C_5
REMARK    3  A    between atoms: N_11  and  C_12
REMARK                            x       y       z     vdW  Elec       q    Type
REMARK                         _______ _______ _______ _____ _____    ______ ____
ROOT
ATOM      1  O   UNL     1       4.545   5.480  17.123  0.00  0.00    +0.000 OA
ATOM      2  C   UNL     1       5.140   4.442  17.385  0.00  0.00    +0.000 C 
ATOM      3  N   UNL     1       6.379   4.174  16.852  0.00  0.00    +0.000 N 
ATOM      4  N   UNL     1       4.666   3.412  18.158  0.00  0.00    +0.000 N 
ATOM      5  H   UNL     1       6.971   3.506  17.320  0.00  0.00    +0.000 HD
ATOM      6  H   UNL     1       5.322   2.704  18.460  0.00  0.00    +0.000 HD
ENDROOT
BRANCH   4   7
ATOM      7  C   UNL     1       3.350   3.281  18.661  0.00  0.00    +0.000 A 
ATOM      8  C   UNL     1       2.426   2.351  18.180  0.00  0.00    +0.000 A 
ATOM      9  C   UNL     1       1.152   2.249  18.749  0.00  0.00    +0.000 A 
ATOM     10  C   UNL     1       0.785   3.080  19.807  0.00  0.00    +0.000 A 
ATOM     11  C   UNL     1       1.695   4.014  20.298  0.00  0.00    +0.000 A 
ATOM     12  C   UNL     1       2.966   4.101  19.729  0.00  0.00    +0.000 A 
ATOM     13  F   UNL     1       3.832   5.003  20.220  0.00  0.00    +0.000 F 
ENDBRANCH   4   7
BRANCH   3  14
ATOM     14  C   UNL     1       7.013   5.138  15.977  0.00  0.00    +0.000 C 
BRANCH  14  15
ATOM     15  C   UNL     1       6.906   4.734  14.538  0.00  0.00    +0.000 A 
ATOM     16  C   UNL     1       7.718   5.313  13.558  0.00  0.00    +0.000 A 
ATOM     17  C   UNL     1       7.620   4.887  12.236  0.00  0.00    +0.000 A 
ATOM     18  C   UNL     1       6.710   3.888  11.938  0.00  0.00    +0.000 A 
ATOM     19  N   UNL     1       5.911   3.301  12.856  0.00  0.00    +0.000 NA
ATOM     20  C   UNL     1       6.032   3.732  14.132  0.00  0.00    +0.000 A 
ENDBRANCH  14  15
ENDBRANCH   3  14
TORSDOF 3
ENDMDL
MODEL 7
REMARK VINA RESULT:      -7.0      5.860      7.290
REMARK  Name = 
REMARK  3 active torsions:
REMARK  status: ('A' for Active; 'I' for Inactive)
REMARK    1  A    between atoms: N_3  and  C_4
REMARK    2  A    between atoms: C_4  and  C_5
REMARK    3  A    between atoms: N_11  and  C_12
REMARK                            x       y       z     vdW  Elec       q    Type
REMARK                         _______ _______ _______ _____ _____    ______ ____
ROOT
ATOM      1  O   UNL     1       8.119   7.042  18.689  0.00  0.00    +0.000 OA
ATOM      2  C   UNL     1       7.680   7.792  17.824  0.00  0.00    +0.000 C 
ATOM      3  N   UNL     1       8.064   9.110  17.759  0.00  0.00    +0.000 N 
ATOM      4  N   UNL     1       6.741   7.469  16.877  0.00  0.00    +0.000 N 
ATOM      5  H   UNL     1       7.959   9.600  16.885  0.00  0.00    +0.000 HD
ATOM      6  H   UNL     1       6.609   8.108  16.103  0.00  0.00    +0.000 HD
ENDROOT
BRANCH   4   7
ATOM      7  C   UNL     1       5.989   6.272  16.817  0.00  0.00    +0.000 A 
ATOM      8  C   UNL     1       4.814   6.060  17.542  0.00  0.00    +0.000 A 
ATOM      9  C   UNL     1       4.098   4.866  17.407  0.00  0.00    +0.000 A 
ATOM     10  C   UNL     1       4.552   3.866  16.548  0.00  0.00    +0.000 A 
ATOM     11  C   UNL     1       5.723   4.062  15.818  0.00  0.00    +0.000 A 
ATOM     12  C   UNL     1       6.425   5.260  15.953  0.00  0.00    +0.000 A 
ATOM     13  F   UNL     1       7.548   5.434  15.238  0.00  0.00    +0.000 F 
ENDBRANCH   4   7
BRANCH   3  14
ATOM     14  C   UNL     1       9.020   9.633  18.713  0.00  0.00    +0.000 C 
BRANCH  14  15
ATOM     15  C   UNL     1       9.548  10.970  18.290  0.00  0.00    +0.000 A 
ATOM     16  C   UNL     1      10.922  11.205  18.170  0.00  0.00    +0.000 A 
ATOM     17  C   UNL     1      11.378  12.447  17.737  0.00  0.00    +0.000 A 
ATOM     18  C   UNL     1      10.439  13.418  17.435  0.00  0.00    +0.000 A 
ATOM     19  N   UNL     1       9.105  13.230  17.534  0.00  0.00    +0.000 NA
ATOM     20  C   UNL     1       8.692  12.012  17.952  0.00  0.00    +0.000 A 
ENDBRANCH  14  15
ENDBRANCH   3  14
TORSDOF 3
ENDMDL
MODEL 8
REMARK VINA RESULT:      -7.0      1.200      1.282
REMARK  Name = 
REMARK  3 active torsions:
REMARK  status: ('A' for Active; 'I' for Inactive)
REMARK    1  A    between atoms: N_3  and  C_4
REMARK    2  A    between atoms: C_4  and  C_5
REMARK    3  A    between atoms: N_11  and  C_12
REMARK                            x       y       z     vdW  Elec       q    Type
REMARK                         _______ _______ _______ _____ _____    ______ ____
ROOT
ATOM      1  O   UNL     1       5.336   3.878  17.864  0.00  0.00    +0.000 OA
ATOM      2  C   UNL     1       4.573   4.607  17.241  0.00  0.00    +0.000 C 
ATOM      3  N   UNL     1       5.024   5.407  16.217  0.00  0.00    +0.000 N 
ATOM      4  N   UNL     1       3.235   4.780  17.493  0.00  0.00    +0.000 N 
ATOM      5  H   UNL     1       4.362   5.729  15.530  0.00  0.00    +0.000 HD
ATOM      6  H   UNL     1       2.677   5.251  16.793  0.00  0.00    +0.000 HD
ENDROOT
BRANCH   4   7
ATOM      7  C   UNL     1       2.522   4.279  18.608  0.00  0.00    +0.000 A 
ATOM      8  C   UNL     1       2.293   5.013  19.773  0.00  0.00    +0.000 A 
ATOM      9  C   UNL     1       1.547   4.471  20.824  0.00  0.00    +0.000 A 
ATOM     10  C   UNL     1       1.022   3.183  20.724  0.00  0.00    +0.000 A 
ATOM     11  C   UNL     1       1.243   2.436  19.568  0.00  0.00    +0.000 A 
ATOM     12  C   UNL     1       1.981   2.991  18.521  0.00  0.00    +0.000 A 
ATOM     13  F   UNL     1       2.178   2.259  17.413  0.00  0.00    +0.000 F 
ENDBRANCH   4   7
BRANCH   3  14
ATOM     14  C   UNL     1       6.423   5.382  15.844  0.00  0.00    +0.000 C 
BRANCH  14  15
ATOM     15  C   UNL     1       6.616   4.841  14.459  0.00  0.00    +0.000 A 
ATOM     16  C   UNL     1       5.774   3.853  13.940  0.00  0.00    +0.000 A 
ATOM     17  C   UNL     1       5.956   3.401  12.636  0.00  0.00    +0.000 A 
ATOM     18  C   UNL     1       6.980   3.958  11.890  0.00  0.00    +0.000 A 
ATOM     19  N   UNL     1       7.812   4.916  12.352  0.00  0.00    +0.000 NA
ATOM     20  C   UNL     1       7.607   5.339  13.621  0.00  0.00    +0.000 A 
ENDBRANCH  14  15
ENDBRANCH   3  14
TORSDOF 3
ENDMDL
MODEL 9
REMARK VINA RESULT:      -6.9      5.993      7.496
REMARK  Name = 
REMARK  3 active torsions:
REMARK  status: ('A' for Active; 'I' for Inactive)
REMARK    1  A    between atoms: N_3  and  C_4
REMARK    2  A    between atoms: C_4  and  C_5
REMARK    3  A    between atoms: N_11  and  C_12
REMARK                            x       y       z     vdW  Elec       q    Type
REMARK                         _______ _______ _______ _____ _____    ______ ____
ROOT
ATOM      1  O   UNL     1       8.295   7.140  18.743  0.00  0.00    +0.000 OA
ATOM      2  C   UNL     1       7.882   7.918  17.891  0.00  0.00    +0.000 C 
ATOM      3  N   UNL     1       8.202   9.254  17.928  0.00  0.00    +0.000 N 
ATOM      4  N   UNL     1       7.031   7.608  16.860  0.00  0.00    +0.000 N 
ATOM      5  H   UNL     1       8.137   9.789  17.076  0.00  0.00    +0.000 HD
ATOM      6  H   UNL     1       6.922   8.285  16.115  0.00  0.00    +0.000 HD
ENDROOT
BRANCH   4   7
ATOM      7  C   UNL     1       6.347   6.383  16.678  0.00  0.00    +0.000 A 
ATOM      8  C   UNL     1       6.932   5.245  16.119  0.00  0.00    +0.000 A 
ATOM      9  C   UNL     1       6.209   4.054  16.004  0.00  0.00    +0.000 A 
ATOM     10  C   UNL     1       4.888   3.986  16.444  0.00  0.00    +0.000 A 
ATOM     11  C   UNL     1       4.289   5.113  17.004  0.00  0.00    +0.000 A 
ATOM     12  C   UNL     1       5.022   6.294  17.122  0.00  0.00    +0.000 A 
ATOM     13  F   UNL     1       4.431   7.368  17.669  0.00  0.00    +0.000 F 
ENDBRANCH   4   7
BRANCH   3  14
ATOM     14  C   UNL     1       9.061   9.763  18.977  0.00  0.00    +0.000 C 
BRANCH  14  15
ATOM     15  C   UNL     1       9.586  11.128  18.648  0.00  0.00    +0.000 A 
ATOM     16  C   UNL     1      10.630  11.305  17.734  0.00  0.00    +0.000 A 
ATOM     17  C   UNL     1      11.068  12.589  17.422  0.00  0.00    +0.000 A 
ATOM     18  C   UNL     1      10.442  13.659  18.036  0.00  0.00    +0.000 A 
ATOM     19  N   UNL     1       9.428  13.531  18.920  0.00  0.00    +0.000 NA
ATOM     20  C   UNL     1       9.021  12.272  19.200  0.00  0.00    +0.000 A 
ENDBRANCH  14  15
ENDBRANCH   3  14
TORSDOF 3
ENDMDL
