MODEL 1
REMARK VINA RESULT:      -8.3      0.000      0.000
REMARK  Name = 
REMARK  7 active torsions:
REMARK  status: ('A' for Active; 'I' for Inactive)
REMARK    1  A    between atoms: C_1  and  O_2
REMARK    2  A    between atoms: O_2  and  C_3
REMARK    3  A    between atoms: C_6  and  C_7
REMARK    4  A    between atoms: C_10  and  C_11
REMARK    5  A    between atoms: N_13  and  C_14
REMARK    6  A    between atoms: C_27  and  O_28
REMARK    7  A    between atoms: O_28  and  C_29
REMARK                            x       y       z     vdW  Elec       q    Type
REMARK                         _______ _______ _______ _____ _____    ______ ____
ROOT
ATOM      1  C   UNL     1       4.543   3.677  17.915  0.00  0.00    +0.000 A 
ATOM      2  N   UNL     1       3.624   4.469  18.426  0.00  0.00    +0.000 NA
ATOM      3  C   UNL     1       3.199   3.863  19.585  0.00  0.00    +0.000 A 
ATOM      4  C   UNL     1       2.312   4.339  20.561  0.00  0.00    +0.000 A 
ATOM      5  C   UNL     1       2.118   3.560  21.714  0.00  0.00    +0.000 A 
ATOM      6  C   UNL     1       2.749   2.318  21.852  0.00  0.00    +0.000 A 
ATOM      7  C   UNL     1       3.588   1.808  20.851  0.00  0.00    +0.000 A 
ATOM      8  C   UNL     1       3.798   2.623  19.739  0.00  0.00    +0.000 A 
ATOM      9  N   UNL     1       4.563   2.484  18.608  0.00  0.00    +0.000 N 
ATOM     10  H   UNL     1       5.144   1.689  18.389  0.00  0.00    +0.000 HD
ENDROOT
BRANCH   1  14
ATOM     11  C   UNL     1       6.969   5.084  14.696  0.00  0.00    +0.000 A 
ATOM     12  C   UNL     1       6.213   3.910  14.562  0.00  0.00    +0.000 A 
ATOM     13  C   UNL     1       5.466   3.420  15.634  0.00  0.00    +0.000 A 
ATOM     14  C   UNL     1       5.493   4.067  16.874  0.00  0.00    +0.000 A 
ATOM     15  C   UNL     1       6.348   5.157  17.032  0.00  0.00    +0.000 A 
ATOM     16  C   UNL     1       7.084   5.677  15.960  0.00  0.00    +0.000 A 
BRANCH  11  18
ATOM     17  C   UNL     1       7.578   4.849  12.425  0.00  0.00    +0.000 C 
ATOM     18  O   UNL     1       7.598   5.643  13.615  0.00  0.00    +0.000 OA
ENDBRANCH  11  18
BRANCH  16  19
ATOM     19  O   UNL     1       7.801   6.775  16.351  0.00  0.00    +0.000 OA
ATOM     20  C   UNL     1       7.507   7.390  17.589  0.00  0.00    +0.000 C 
ENDBRANCH  16  19
ENDBRANCH   1  14
BRANCH   4  21
ATOM     21  C   UNL     1       1.585   5.619  20.358  0.00  0.00    +0.000 C 
ATOM     22  O   UNL     1       0.362   5.620  20.488  0.00  0.00    +0.000 OA
ATOM     23  N   UNL     1       2.376   6.694  19.995  0.00  0.00    +0.000 N 
ATOM     24  H   UNL     1       3.387   6.540  19.983  0.00  0.00    +0.000 HD
BRANCH  23  25
ATOM     25  C   UNL     1       1.973   7.980  19.599  0.00  0.00    +0.000 A 
ATOM     26  C   UNL     1       1.261   8.852  20.416  0.00  0.00    +0.000 A 
ATOM     27  C   UNL     1       0.873  10.108  19.940  0.00  0.00    +0.000 A 
ATOM     28  C   UNL     1       1.196  10.503  18.639  0.00  0.00    +0.000 A 
ATOM     29  C   UNL     1       1.907   9.638  17.812  0.00  0.00    +0.000 A 
ATOM     30  C   UNL     1       2.291   8.389  18.295  0.00  0.00    +0.000 A 
ATOM     31  F   UNL     1       2.966   7.565  17.479  0.00  0.00    +0.000 F 
ENDBRANCH  23  25
ENDBRANCH   4  21
TORSDOF 5
ENDMDL
MODEL 2
REMARK VINA RESULT:      -8.3      2.421      7.108
REMARK  Name = 
REMARK  7 active torsions:
REMARK  status: ('A' for Active; 'I' for Inactive)
REMARK    1  A    between atoms: C_1  and  O_2
REMARK    2  A    between atoms: O_2  and  C_3
REMARK    3  A    between atoms: C_6  and  C_7
REMARK    4  A    between atoms: C_10  and  C_11
REMARK    5  A    between atoms: N_13  and  C_14
REMARK    6  A    between atoms: C_27  and  O_28
REMARK    7  A    between atoms: O_28  and  C_29
REMARK                            x       y       z     vdW  Elec       q    Type
REMARK                         _______ _______ _______ _____ _____    ______ ____
ROOT
ATOM      1  C   UNL     1       2.031   6.819  20.114  0.00  0.00    +0.000 A 
ATOM      2  N   UNL     1       2.481   6.094  19.112  0.00  0.00    +0.000 NA
ATOM      3  C   UNL     1       2.337   4.781  19.493  0.00  0.00    +0.000 A 
ATOM      4  C   UNL     1       2.564   3.612  18.753  0.00  0.00    +0.000 A 
ATOM      5  C   UNL     1       2.243   2.381  19.347  0.00  0.00    +0.000 A 
ATOM      6  C   UNL     1       1.766   2.325  20.662  0.00  0.00    +0.000 A 
ATOM      7  C   UNL     1       1.598   3.486  21.430  0.00  0.00    +0.000 A 
ATOM      8  C   UNL     1       1.881   4.697  20.798  0.00  0.00    +0.000 A 
ATOM      9  N   UNL     1       1.799   6.005  21.205  0.00  0.00    +0.000 N 
ATOM     10  H   UNL     1       1.495   6.317  22.114  0.00  0.00    +0.000 HD
ENDROOT
BRANCH   1  14
ATOM     11  C   UNL     1       0.588  10.821  19.766  0.00  0.00    +0.000 A 
ATOM     12  C   UNL     1       1.116  10.152  18.652  0.00  0.00    +0.000 A 
ATOM     13  C   UNL     1       1.640   8.865  18.780  0.00  0.00    +0.000 A 
ATOM     14  C   UNL     1       1.688   8.237  20.029  0.00  0.00    +0.000 A 
ATOM     15  C   UNL     1       1.280   8.961  21.148  0.00  0.00    +0.000 A 
ATOM     16  C   UNL     1       0.727  10.243  21.034  0.00  0.00    +0.000 A 
BRANCH  11  18
ATOM     17  C   UNL     1      -0.857  12.153  18.455  0.00  0.00    +0.000 C 
ATOM     18  O   UNL     1      -0.047  12.027  19.627  0.00  0.00    +0.000 OA
ENDBRANCH  11  18
BRANCH  16  19
ATOM     19  O   UNL     1       0.353  10.721  22.261  0.00  0.00    +0.000 OA
ATOM     20  C   UNL     1      -0.522   9.956  23.067  0.00  0.00    +0.000 C 
ENDBRANCH  16  19
ENDBRANCH   1  14
BRANCH   4  21
ATOM     21  C   UNL     1       3.150   3.686  17.389  0.00  0.00    +0.000 C 
ATOM     22  O   UNL     1       2.540   3.153  16.464  0.00  0.00    +0.000 OA
ATOM     23  N   UNL     1       4.373   4.327  17.307  0.00  0.00    +0.000 N 
ATOM     24  H   UNL     1       4.721   4.767  18.163  0.00  0.00    +0.000 HD
BRANCH  23  25
ATOM     25  C   UNL     1       5.232   4.431  16.202  0.00  0.00    +0.000 A 
ATOM     26  C   UNL     1       4.889   4.028  14.915  0.00  0.00    +0.000 A 
ATOM     27  C   UNL     1       5.810   4.139  13.870  0.00  0.00    +0.000 A 
ATOM     28  C   UNL     1       7.087   4.656  14.104  0.00  0.00    +0.000 A 
ATOM     29  C   UNL     1       7.443   5.061  15.387  0.00  0.00    +0.000 A 
ATOM     30  C   UNL     1       6.518   4.949  16.422  0.00  0.00    +0.000 A 
ATOM     31  F   UNL     1       6.883   5.334  17.655  0.00  0.00    +0.000 F 
ENDBRANCH  23  25
ENDBRANCH   4  21
TORSDOF 5
ENDMDL
MODEL 3
REMARK VINA RESULT:      -8.2      3.651      5.830
REMARK  Name = 
REMARK  7 active torsions:
REMARK  status: ('A' for Active; 'I' for Inactive)
REMARK    1  A    between atoms: C_1  and  O_2
REMARK    2  A    between atoms: O_2  and  C_3
REMARK    3  A    between atoms: C_6  and  C_7
REMARK    4  A    between atoms: C_10  and  C_11
REMARK    5  A    between atoms: N_13  and  C_14
REMARK    6  A    between atoms: C_27  and  O_28
REMARK    7  A    between atoms: O_28  and  C_29
REMARK                            x       y       z     vdW  Elec       q    Type
REMARK                         _______ _______ _______ _____ _____    ______ ____
ROOT
ATOM      1  C   UNL     1       2.024   7.549  19.734  0.00  0.00    +0.000 A 
ATOM      2  N   UNL     1       1.198   8.451  19.246  0.00  0.00    +0.000 NA
ATOM      3  C   UNL     1       0.701   9.140  20.327  0.00  0.00    +0.000 A 
ATOM      4  C   UNL     1      -0.130  10.268  20.353  0.00  0.00    +0.000 A 
ATOM      5  C   UNL     1      -0.417  10.849  21.600  0.00  0.00    +0.000 A 
ATOM      6  C   UNL     1       0.068  10.278  22.782  0.00  0.00    +0.000 A 
ATOM      7  C   UNL     1       0.849   9.113  22.767  0.00  0.00    +0.000 A 
ATOM      8  C   UNL     1       1.155   8.586  21.513  0.00  0.00    +0.000 A 
ATOM      9  N   UNL     1       1.905   7.510  21.109  0.00  0.00    +0.000 N 
ATOM     10  H   UNL     1       2.393   6.874  21.721  0.00  0.00    +0.000 HD
ENDROOT
BRANCH   1  14
ATOM     11  C   UNL     1       5.248   5.700  17.635  0.00  0.00    +0.000 A 
ATOM     12  C   UNL     1       4.545   6.771  17.065  0.00  0.00    +0.000 A 
ATOM     13  C   UNL     1       3.454   7.337  17.727  0.00  0.00    +0.000 A 
ATOM     14  C   UNL     1       3.017   6.817  18.950  0.00  0.00    +0.000 A 
ATOM     15  C   UNL     1       3.641   5.672  19.443  0.00  0.00    +0.000 A 
ATOM     16  C   UNL     1       4.753   5.108  18.804  0.00  0.00    +0.000 A 
BRANCH  11  18
ATOM     17  C   UNL     1       6.198   4.384  15.918  0.00  0.00    +0.000 C 
ATOM     18  O   UNL     1       6.396   5.225  17.058  0.00  0.00    +0.000 OA
ENDBRANCH  11  18
BRANCH  16  19
ATOM     19  O   UNL     1       5.221   4.030  19.507  0.00  0.00    +0.000 OA
ATOM     20  C   UNL     1       4.421   2.869  19.610  0.00  0.00    +0.000 C 
ENDBRANCH  16  19
ENDBRANCH   1  14
BRANCH   4  21
ATOM     21  C   UNL     1      -0.706  10.809  19.095  0.00  0.00    +0.000 C 
ATOM     22  O   UNL     1      -0.352  11.929  18.728  0.00  0.00    +0.000 OA
ATOM     23  N   UNL     1      -1.634   9.994  18.473  0.00  0.00    +0.000 N 
ATOM     24  H   UNL     1      -1.777   9.066  18.878  0.00  0.00    +0.000 HD
BRANCH  23  25
ATOM     25  C   UNL     1      -2.446  10.283  17.364  0.00  0.00    +0.000 A 
ATOM     26  C   UNL     1      -2.199   9.805  16.081  0.00  0.00    +0.000 A 
ATOM     27  C   UNL     1      -3.041  10.159  15.022  0.00  0.00    +0.000 A 
ATOM     28  C   UNL     1      -4.138  10.995  15.238  0.00  0.00    +0.000 A 
ATOM     29  C   UNL     1      -4.395  11.480  16.518  0.00  0.00    +0.000 A 
ATOM     30  C   UNL     1      -3.552  11.122  17.567  0.00  0.00    +0.000 A 
ATOM     31  F   UNL     1      -3.809  11.609  18.791  0.00  0.00    +0.000 F 
ENDBRANCH  23  25
ENDBRANCH   4  21
TORSDOF 5
ENDMDL
MODEL 4
REMARK VINA RESULT:      -8.2      1.048      1.058
REMARK  Name = 
REMARK  7 active torsions:
REMARK  status: ('A' for Active; 'I' for Inactive)
REMARK    1  A    between atoms: C_1  and  O_2
REMARK    2  A    between atoms: O_2  and  C_3
REMARK    3  A    between atoms: C_6  and  C_7
REMARK    4  A    between atoms: C_10  and  C_11
REMARK    5  A    between atoms: N_13  and  C_14
REMARK    6  A    between atoms: C_27  and  O_28
REMARK    7  A    between atoms: O_28  and  C_29
REMARK                            x       y       z     vdW  Elec       q    Type
REMARK                         _______ _______ _______ _____ _____    ______ ____
ROOT
ATOM      1  C   UNL     1       3.957   4.155  17.310  0.00  0.00    +0.000 A 
ATOM      2  N   UNL     1       3.401   5.062  18.085  0.00  0.00    +0.000 NA
ATOM      3  C   UNL     1       2.573   4.377  18.943  0.00  0.00    +0.000 A 
ATOM      4  C   UNL     1       1.833   4.857  20.033  0.00  0.00    +0.000 A 
ATOM      5  C   UNL     1       1.137   3.925  20.819  0.00  0.00    +0.000 A 
ATOM      6  C   UNL     1       1.137   2.566  20.485  0.00  0.00    +0.000 A 
ATOM      7  C   UNL     1       1.823   2.088  19.360  0.00  0.00    +0.000 A 
ATOM      8  C   UNL     1       2.543   3.029  18.624  0.00  0.00    +0.000 A 
ATOM      9  N   UNL     1       3.346   2.934  17.515  0.00  0.00    +0.000 N 
ATOM     10  H   UNL     1       3.553   2.084  17.014  0.00  0.00    +0.000 HD
ENDROOT
BRANCH   1  14
ATOM     11  C   UNL     1       7.138   5.115  14.630  0.00  0.00    +0.000 A 
ATOM     12  C   UNL     1       6.276   4.043  14.361  0.00  0.00    +0.000 A 
ATOM     13  C   UNL     1       5.273   3.694  15.266  0.00  0.00    +0.000 A 
ATOM     14  C   UNL     1       5.138   4.380  16.478  0.00  0.00    +0.000 A 
ATOM     15  C   UNL     1       6.081   5.358  16.792  0.00  0.00    +0.000 A 
ATOM     16  C   UNL     1       7.077   5.738  15.883  0.00  0.00    +0.000 A 
BRANCH  11  18
ATOM     17  C   UNL     1       7.729   5.182  12.344  0.00  0.00    +0.000 C 
ATOM     18  O   UNL     1       8.038   5.548  13.691  0.00  0.00    +0.000 OA
ENDBRANCH  11  18
BRANCH  16  19
ATOM     19  O   UNL     1       7.841   6.751  16.397  0.00  0.00    +0.000 OA
ATOM     20  C   UNL     1       7.391   7.447  17.542  0.00  0.00    +0.000 C 
ENDBRANCH  16  19
ENDBRANCH   1  14
BRANCH   4  21
ATOM     21  C   UNL     1       1.776   6.313  20.322  0.00  0.00    +0.000 C 
ATOM     22  O   UNL     1       1.670   6.670  21.494  0.00  0.00    +0.000 OA
ATOM     23  N   UNL     1       1.808   7.136  19.211  0.00  0.00    +0.000 N 
ATOM     24  H   UNL     1       1.955   6.683  18.305  0.00  0.00    +0.000 HD
BRANCH  23  25
ATOM     25  C   UNL     1       1.628   8.528  19.149  0.00  0.00    +0.000 A 
ATOM     26  C   UNL     1       0.943   9.262  20.112  0.00  0.00    +0.000 A 
ATOM     27  C   UNL     1       0.783  10.643  19.966  0.00  0.00    +0.000 A 
ATOM     28  C   UNL     1       1.310  11.303  18.854  0.00  0.00    +0.000 A 
ATOM     29  C   UNL     1       1.997  10.579  17.883  0.00  0.00    +0.000 A 
ATOM     30  C   UNL     1       2.153   9.204  18.037  0.00  0.00    +0.000 A 
ATOM     31  F   UNL     1       2.808   8.522  17.085  0.00  0.00    +0.000 F 
ENDBRANCH  23  25
ENDBRANCH   4  21
TORSDOF 5
ENDMDL
MODEL 5
REMARK VINA RESULT:      -8.1      0.881      1.252
REMARK  Name = 
REMARK  7 active torsions:
REMARK  status: ('A' for Active; 'I' for Inactive)
REMARK    1  A    between atoms: C_1  and  O_2
REMARK    2  A    between atoms: O_2  and  C_3
REMARK    3  A    between atoms: C_6  and  C_7
REMARK    4  A    between atoms: C_10  and  C_11
REMARK    5  A    between atoms: N_13  and  C_14
REMARK    6  A    between atoms: C_27  and  O_28
REMARK    7  A    between atoms: O_28  and  C_29
REMARK                            x       y       z     vdW  Elec       q    Type
REMARK                         _______ _______ _______ _____ _____    ______ ____
ROOT
ATOM      1  C   UNL     1       4.585   3.667  17.955  0.00  0.00    +0.000 A 
ATOM      2  N   UNL     1       3.652   4.455  18.444  0.00  0.00    +0.000 NA
ATOM      3  C   UNL     1       3.209   3.854  19.599  0.00  0.00    +0.000 A 
ATOM      4  C   UNL     1       2.301   4.330  20.555  0.00  0.00    +0.000 A 
ATOM      5  C   UNL     1       2.091   3.558  21.709  0.00  0.00    +0.000 A 
ATOM      6  C   UNL     1       2.728   2.322  21.867  0.00  0.00    +0.000 A 
ATOM      7  C   UNL     1       3.589   1.810  20.886  0.00  0.00    +0.000 A 
ATOM      8  C   UNL     1       3.814   2.620  19.773  0.00  0.00    +0.000 A 
ATOM      9  N   UNL     1       4.602   2.479  18.657  0.00  0.00    +0.000 N 
ATOM     10  H   UNL     1       5.192   1.687  18.455  0.00  0.00    +0.000 HD
ENDROOT
BRANCH   1  14
ATOM     11  C   UNL     1       7.063   5.077  14.778  0.00  0.00    +0.000 A 
ATOM     12  C   UNL     1       6.303   3.909  14.627  0.00  0.00    +0.000 A 
ATOM     13  C   UNL     1       5.538   3.417  15.686  0.00  0.00    +0.000 A 
ATOM     14  C   UNL     1       5.552   4.057  16.930  0.00  0.00    +0.000 A 
ATOM     15  C   UNL     1       6.411   5.141  17.106  0.00  0.00    +0.000 A 
ATOM     16  C   UNL     1       7.165   5.662  16.047  0.00  0.00    +0.000 A 
BRANCH  11  18
ATOM     17  C   UNL     1       7.617   4.899  12.488  0.00  0.00    +0.000 C 
ATOM     18  O   UNL     1       7.711   5.638  13.709  0.00  0.00    +0.000 OA
ENDBRANCH  11  18
BRANCH  16  19
ATOM     19  O   UNL     1       7.883   6.754  16.453  0.00  0.00    +0.000 OA
ATOM     20  C   UNL     1       7.378   7.568  17.493  0.00  0.00    +0.000 C 
ENDBRANCH  16  19
ENDBRANCH   1  14
BRANCH   4  21
ATOM     21  C   UNL     1       1.569   5.604  20.330  0.00  0.00    +0.000 C 
ATOM     22  O   UNL     1       0.345   5.601  20.455  0.00  0.00    +0.000 OA
ATOM     23  N   UNL     1       2.356   6.677  19.954  0.00  0.00    +0.000 N 
ATOM     24  H   UNL     1       3.368   6.527  19.948  0.00  0.00    +0.000 HD
BRANCH  23  25
ATOM     25  C   UNL     1       1.948   7.955  19.537  0.00  0.00    +0.000 A 
ATOM     26  C   UNL     1       2.127   8.439  18.245  0.00  0.00    +0.000 A 
ATOM     27  C   UNL     1       1.717   9.734  17.913  0.00  0.00    +0.000 A 
ATOM     28  C   UNL     1       1.124  10.557  18.873  0.00  0.00    +0.000 A 
ATOM     29  C   UNL     1       0.942  10.084  20.170  0.00  0.00    +0.000 A 
ATOM     30  C   UNL     1       1.351   8.792  20.492  0.00  0.00    +0.000 A 
ATOM     31  F   UNL     1       1.177   8.357  21.749  0.00  0.00    +0.000 F 
ENDBRANCH  23  25
ENDBRANCH   4  21
TORSDOF 5
ENDMDL
MODEL 6
REMARK VINA RESULT:      -8.1      2.138      6.922
REMARK  Name = 
REMARK  7 active torsions:
REMARK  status: ('A' for Active; 'I' for Inactive)
REMARK    1  A    between atoms: C_1  and  O_2
REMARK    2  A    between atoms: O_2  and  C_3
REMARK    3  A    between atoms: C_6  and  C_7
REMARK    4  A    between atoms: C_10  and  C_11
REMARK    5  A    between atoms: N_13  and  C_14
REMARK    6  A    between atoms: C_27  and  O_28
REMARK    7  A    between atoms: O_28  and  C_29
REMARK                            x       y       z     vdW  Elec       q    Type
REMARK                         _______ _______ _______ _____ _____    ______ ____
ROOT
ATOM      1  C   UNL     1       2.141   6.837  20.128  0.00  0.00    +0.000 A 
ATOM      2  N   UNL     1       3.087   6.143  19.532  0.00  0.00    +0.000 NA
ATOM      3  C   UNL     1       2.889   4.832  19.898  0.00  0.00    +0.000 A 
ATOM      4  C   UNL     1       3.551   3.678  19.457  0.00  0.00    +0.000 A 
ATOM      5  C   UNL     1       3.087   2.434  19.915  0.00  0.00    +0.000 A 
ATOM      6  C   UNL     1       2.032   2.359  20.832  0.00  0.00    +0.000 A 
ATOM      7  C   UNL     1       1.407   3.512  21.326  0.00  0.00    +0.000 A 
ATOM      8  C   UNL     1       1.858   4.730  20.818  0.00  0.00    +0.000 A 
ATOM      9  N   UNL     1       1.473   6.032  21.028  0.00  0.00    +0.000 N 
ATOM     10  H   UNL     1       0.735   6.330  21.647  0.00  0.00    +0.000 HD
ENDROOT
BRANCH   1  14
ATOM     11  C   UNL     1       0.626  10.647  18.942  0.00  0.00    +0.000 A 
ATOM     12  C   UNL     1       1.379   9.869  18.051  0.00  0.00    +0.000 A 
ATOM     13  C   UNL     1       1.923   8.650  18.459  0.00  0.00    +0.000 A 
ATOM     14  C   UNL     1       1.762   8.204  19.775  0.00  0.00    +0.000 A 
ATOM     15  C   UNL     1       1.123   9.046  20.684  0.00  0.00    +0.000 A 
ATOM     16  C   UNL     1       0.549  10.260  20.285  0.00  0.00    +0.000 A 
BRANCH  11  18
ATOM     17  C   UNL     1       0.752  12.980  18.587  0.00  0.00    +0.000 C 
ATOM     18  O   UNL     1      -0.020  11.778  18.515  0.00  0.00    +0.000 OA
ENDBRANCH  11  18
BRANCH  16  19
ATOM     19  O   UNL     1      -0.067  10.876  21.341  0.00  0.00    +0.000 OA
ATOM     20  C   UNL     1      -0.380  10.123  22.497  0.00  0.00    +0.000 C 
ENDBRANCH  16  19
ENDBRANCH   1  14
BRANCH   4  21
ATOM     21  C   UNL     1       4.724   3.783  18.550  0.00  0.00    +0.000 C 
ATOM     22  O   UNL     1       5.847   3.663  19.036  0.00  0.00    +0.000 OA
ATOM     23  N   UNL     1       4.424   4.053  17.227  0.00  0.00    +0.000 N 
ATOM     24  H   UNL     1       3.433   4.069  16.973  0.00  0.00    +0.000 HD
BRANCH  23  25
ATOM     25  C   UNL     1       5.305   4.348  16.174  0.00  0.00    +0.000 A 
ATOM     26  C   UNL     1       5.468   3.539  15.054  0.00  0.00    +0.000 A 
ATOM     27  C   UNL     1       6.386   3.887  14.059  0.00  0.00    +0.000 A 
ATOM     28  C   UNL     1       7.150   5.050  14.176  0.00  0.00    +0.000 A 
ATOM     29  C   UNL     1       6.996   5.867  15.293  0.00  0.00    +0.000 A 
ATOM     30  C   UNL     1       6.079   5.514  16.279  0.00  0.00    +0.000 A 
ATOM     31  F   UNL     1       5.953   6.308  17.353  0.00  0.00    +0.000 F 
ENDBRANCH  23  25
ENDBRANCH   4  21
TORSDOF 5
ENDMDL
MODEL 7
REMARK VINA RESULT:      -8.1      2.252      7.596
REMARK  Name = 
REMARK  7 active torsions:
REMARK  status: ('A' for Active; 'I' for Inactive)
REMARK    1  A    between atoms: C_1  and  O_2
REMARK    2  A    between atoms: O_2  and  C_3
REMARK    3  A    between atoms: C_6  and  C_7
REMARK    4  A    between atoms: C_10  and  C_11
REMARK    5  A    between atoms: N_13  and  C_14
REMARK    6  A    between atoms: C_27  and  O_28
REMARK    7  A    between atoms: O_28  and  C_29
REMARK                            x       y       z     vdW  Elec       q    Type
REMARK                         _______ _______ _______ _____ _____    ______ ____
ROOT
ATOM      1  C   UNL     1       2.487   6.923  19.576  0.00  0.00    +0.000 A 
ATOM      2  N   UNL     1       3.230   6.584  18.544  0.00  0.00    +0.000 NA
ATOM      3  C   UNL     1       3.476   5.237  18.676  0.00  0.00    +0.000 A 
ATOM      4  C   UNL     1       4.125   4.363  17.793  0.00  0.00    +0.000 A 
ATOM      5  C   UNL     1       4.160   2.998  18.120  0.00  0.00    +0.000 A 
ATOM      6  C   UNL     1       3.612   2.538  19.323  0.00  0.00    +0.000 A 
ATOM      7  C   UNL     1       3.017   3.415  20.241  0.00  0.00    +0.000 A 
ATOM      8  C   UNL     1       2.957   4.758  19.868  0.00  0.00    +0.000 A 
ATOM      9  N   UNL     1       2.430   5.874  20.470  0.00  0.00    +0.000 N 
ATOM     10  H   UNL     1       1.964   5.890  21.364  0.00  0.00    +0.000 HD
ENDROOT
BRANCH   1  14
ATOM     11  C   UNL     1      -0.107  10.312  19.675  0.00  0.00    +0.000 A 
ATOM     12  C   UNL     1       0.737  10.090  18.578  0.00  0.00    +0.000 A 
ATOM     13  C   UNL     1       1.626   9.014  18.573  0.00  0.00    +0.000 A 
ATOM     14  C   UNL     1       1.721   8.164  19.679  0.00  0.00    +0.000 A 
ATOM     15  C   UNL     1       0.971   8.471  20.814  0.00  0.00    +0.000 A 
ATOM     16  C   UNL     1       0.055   9.531  20.826  0.00  0.00    +0.000 A 
BRANCH  11  18
ATOM     17  C   UNL     1      -1.442  11.716  18.323  0.00  0.00    +0.000 C 
ATOM     18  O   UNL     1      -1.073  11.283  19.635  0.00  0.00    +0.000 OA
ENDBRANCH  11  18
BRANCH  16  19
ATOM     19  O   UNL     1      -0.597   9.594  22.028  0.00  0.00    +0.000 OA
ATOM     20  C   UNL     1       0.144   9.484  23.227  0.00  0.00    +0.000 C 
ENDBRANCH  16  19
ENDBRANCH   1  14
BRANCH   4  21
ATOM     21  C   UNL     1       4.775   4.883  16.562  0.00  0.00    +0.000 C 
ATOM     22  O   UNL     1       4.675   6.083  16.314  0.00  0.00    +0.000 OA
ATOM     23  N   UNL     1       5.406   3.931  15.781  0.00  0.00    +0.000 N 
ATOM     24  H   UNL     1       5.447   2.980  16.157  0.00  0.00    +0.000 HD
BRANCH  23  25
ATOM     25  C   UNL     1       5.977   4.084  14.508  0.00  0.00    +0.000 A 
ATOM     26  C   UNL     1       5.475   3.482  13.358  0.00  0.00    +0.000 A 
ATOM     27  C   UNL     1       6.115   3.662  12.129  0.00  0.00    +0.000 A 
ATOM     28  C   UNL     1       7.266   4.448  12.039  0.00  0.00    +0.000 A 
ATOM     29  C   UNL     1       7.779   5.055  13.182  0.00  0.00    +0.000 A 
ATOM     30  C   UNL     1       7.133   4.872  14.403  0.00  0.00    +0.000 A 
ATOM     31  F   UNL     1       7.648   5.456  15.495  0.00  0.00    +0.000 F 
ENDBRANCH  23  25
ENDBRANCH   4  21
TORSDOF 5
ENDMDL
MODEL 8
REMARK VINA RESULT:      -7.8      1.602      1.946
REMARK  Name = 
REMARK  7 active torsions:
REMARK  status: ('A' for Active; 'I' for Inactive)
REMARK    1  A    between atoms: C_1  and  O_2
REMARK    2  A    between atoms: O_2  and  C_3
REMARK    3  A    between atoms: C_6  and  C_7
REMARK    4  A    between atoms: C_10  and  C_11
REMARK    5  A    between atoms: N_13  and  C_14
REMARK    6  A    between atoms: C_27  and  O_28
REMARK    7  A    between atoms: O_28  and  C_29
REMARK                            x       y       z     vdW  Elec       q    Type
REMARK                         _______ _______ _______ _____ _____    ______ ____
ROOT
ATOM      1  C   UNL     1       3.907   4.355  17.427  0.00  0.00    +0.000 A 
ATOM      2  N   UNL     1       3.359   5.311  18.147  0.00  0.00    +0.000 NA
ATOM      3  C   UNL     1       2.513   4.686  19.033  0.00  0.00    +0.000 A 
ATOM      4  C   UNL     1       1.771   5.235  20.088  0.00  0.00    +0.000 A 
ATOM      5  C   UNL     1       1.053   4.357  20.917  0.00  0.00    +0.000 A 
ATOM      6  C   UNL     1       1.034   2.982  20.656  0.00  0.00    +0.000 A 
ATOM      7  C   UNL     1       1.722   2.434  19.564  0.00  0.00    +0.000 A 
ATOM      8  C   UNL     1       2.464   3.323  18.786  0.00  0.00    +0.000 A 
ATOM      9  N   UNL     1       3.275   3.157  17.691  0.00  0.00    +0.000 N 
ATOM     10  H   UNL     1       3.472   2.277  17.239  0.00  0.00    +0.000 HD
ENDROOT
BRANCH   1  14
ATOM     11  C   UNL     1       7.124   5.118  14.728  0.00  0.00    +0.000 A 
ATOM     12  C   UNL     1       6.253   4.041  14.514  0.00  0.00    +0.000 A 
ATOM     13  C   UNL     1       5.237   3.758  15.429  0.00  0.00    +0.000 A 
ATOM     14  C   UNL     1       5.098   4.517  16.595  0.00  0.00    +0.000 A 
ATOM     15  C   UNL     1       6.048   5.502  16.859  0.00  0.00    +0.000 A 
ATOM     16  C   UNL     1       7.058   5.816  15.940  0.00  0.00    +0.000 A 
BRANCH  11  18
ATOM     17  C   UNL     1       7.685   5.135  12.432  0.00  0.00    +0.000 C 
ATOM     18  O   UNL     1       8.038   5.484  13.774  0.00  0.00    +0.000 OA
ENDBRANCH  11  18
BRANCH  16  19
ATOM     19  O   UNL     1       7.828   6.850  16.400  0.00  0.00    +0.000 OA
ATOM     20  C   UNL     1       7.553   7.409  17.669  0.00  0.00    +0.000 C 
ENDBRANCH  16  19
ENDBRANCH   1  14
BRANCH   4  21
ATOM     21  C   UNL     1       1.734   6.705  20.298  0.00  0.00    +0.000 C 
ATOM     22  O   UNL     1       2.739   7.357  20.019  0.00  0.00    +0.000 OA
ATOM     23  N   UNL     1       0.559   7.195  20.837  0.00  0.00    +0.000 N 
ATOM     24  H   UNL     1      -0.205   6.526  20.961  0.00  0.00    +0.000 HD
BRANCH  23  25
ATOM     25  C   UNL     1       0.276   8.498  21.279  0.00  0.00    +0.000 A 
ATOM     26  C   UNL     1      -0.035   8.817  22.596  0.00  0.00    +0.000 A 
ATOM     27  C   UNL     1      -0.330  10.136  22.953  0.00  0.00    +0.000 A 
ATOM     28  C   UNL     1      -0.317  11.149  21.992  0.00  0.00    +0.000 A 
ATOM     29  C   UNL     1      -0.009  10.842  20.669  0.00  0.00    +0.000 A 
ATOM     30  C   UNL     1       0.286   9.525  20.323  0.00  0.00    +0.000 A 
ATOM     31  F   UNL     1       0.570   9.247  19.042  0.00  0.00    +0.000 F 
ENDBRANCH  23  25
ENDBRANCH   4  21
TORSDOF 5
ENDMDL
MODEL 9
REMARK VINA RESULT:      -7.7      3.538      5.834
REMARK  Name = 
REMARK  7 active torsions:
REMARK  status: ('A' for Active; 'I' for Inactive)
REMARK    1  A    between atoms: C_1  and  O_2
REMARK    2  A    between atoms: O_2  and  C_3
REMARK    3  A    between atoms: C_6  and  C_7
REMARK    4  A    between atoms: C_10  and  C_11
REMARK    5  A    between atoms: N_13  and  C_14
REMARK    6  A    between atoms: C_27  and  O_28
REMARK    7  A    between atoms: O_28  and  C_29
REMARK                            x       y       z     vdW  Elec       q    Type
REMARK                         _______ _______ _______ _____ _____    ______ ____
ROOT
ATOM      1  C   UNL     1       1.797   7.738  19.891  0.00  0.00    +0.000 A 
ATOM      2  N   UNL     1       0.968   8.663  19.457  0.00  0.00    +0.000 NA
ATOM      3  C   UNL     1       0.479   9.294  20.577  0.00  0.00    +0.000 A 
ATOM      4  C   UNL     1      -0.354  10.418  20.669  0.00  0.00    +0.000 A 
ATOM      5  C   UNL     1      -0.631  10.931  21.946  0.00  0.00    +0.000 A 
ATOM      6  C   UNL     1      -0.136  10.300  23.093  0.00  0.00    +0.000 A 
ATOM      7  C   UNL     1       0.645   9.139  23.011  0.00  0.00    +0.000 A 
ATOM      8  C   UNL     1       0.942   8.678  21.728  0.00  0.00    +0.000 A 
ATOM      9  N   UNL     1       1.690   7.626  21.262  0.00  0.00    +0.000 N 
ATOM     10  H   UNL     1       2.183   6.959  21.836  0.00  0.00    +0.000 HD
ENDROOT
BRANCH   1  14
ATOM     11  C   UNL     1       5.005   6.013  17.665  0.00  0.00    +0.000 A 
ATOM     12  C   UNL     1       4.279   7.095  17.149  0.00  0.00    +0.000 A 
ATOM     13  C   UNL     1       3.193   7.621  17.852  0.00  0.00    +0.000 A 
ATOM     14  C   UNL     1       2.785   7.049  19.061  0.00  0.00    +0.000 A 
ATOM     15  C   UNL     1       3.433   5.895  19.499  0.00  0.00    +0.000 A 
ATOM     16  C   UNL     1       4.540   5.370  18.819  0.00  0.00    +0.000 A 
BRANCH  11  18
ATOM     17  C   UNL     1       7.288   6.424  17.214  0.00  0.00    +0.000 C 
ATOM     18  O   UNL     1       6.149   5.575  17.049  0.00  0.00    +0.000 OA
ENDBRANCH  11  18
BRANCH  16  19
ATOM     19  O   UNL     1       5.035   4.273  19.472  0.00  0.00    +0.000 OA
ATOM     20  C   UNL     1       4.263   3.090  19.524  0.00  0.00    +0.000 C 
ENDBRANCH  16  19
ENDBRANCH   1  14
BRANCH   4  21
ATOM     21  C   UNL     1      -0.939  11.024  19.445  0.00  0.00    +0.000 C 
ATOM     22  O   UNL     1      -0.601  12.167  19.144  0.00  0.00    +0.000 OA
ATOM     23  N   UNL     1      -1.858  10.234  18.778  0.00  0.00    +0.000 N 
ATOM     24  H   UNL     1      -1.988   9.282  19.129  0.00  0.00    +0.000 HD
BRANCH  23  25
ATOM     25  C   UNL     1      -2.677  10.576  17.689  0.00  0.00    +0.000 A 
ATOM     26  C   UNL     1      -3.807  11.381  17.795  0.00  0.00    +0.000 A 
ATOM     27  C   UNL     1      -4.587  11.656  16.668  0.00  0.00    +0.000 A 
ATOM     28  C   UNL     1      -4.241  11.127  15.422  0.00  0.00    +0.000 A 
ATOM     29  C   UNL     1      -3.113  10.320  15.304  0.00  0.00    +0.000 A 
ATOM     30  C   UNL     1      -2.341  10.052  16.432  0.00  0.00    +0.000 A 
ATOM     31  F   UNL     1      -1.264   9.263  16.300  0.00  0.00    +0.000 F 
ENDBRANCH  23  25
ENDBRANCH   4  21
TORSDOF 5
ENDMDL
