MODEL 1
REMARK VINA RESULT:      -8.2      0.000      0.000
REMARK  Name = 
REMARK  2 active torsions:
REMARK  status: ('A' for Active; 'I' for Inactive)
REMARK    1  A    between atoms: C_2  and  C_3
REMARK    2  A    between atoms: C_16  and  C_17
REMARK                            x       y       z     vdW  Elec       q    Type
REMARK                         _______ _______ _______ _____ _____    ______ ____
ROOT
ATOM      1  O   UNL     1       6.231   5.021  19.070  0.00  0.00    +0.000 OA
ATOM      2  C   UNL     1       5.614   4.451  18.169  0.00  0.00    +0.000 C 
ATOM      3  N   UNL     1       4.338   3.885  18.412  0.00  0.00    +0.000 N 
ATOM      4  C   UNL     1       3.537   3.142  17.435  0.00  0.00    +0.000 C 
ATOM      5  C   UNL     1       2.057   3.501  17.492  0.00  0.00    +0.000 C 
ATOM      6  C   UNL     1       1.523   3.491  18.923  0.00  0.00    +0.000 C 
ATOM      7  C   UNL     1       2.357   4.425  19.840  0.00  0.00    +0.000 C 
ATOM      8  C   UNL     1       3.811   3.880  19.782  0.00  0.00    +0.000 C 
ENDROOT
BRANCH   2   9
ATOM      9  C   UNL     1       6.145   4.369  16.803  0.00  0.00    +0.000 A 
ATOM     10  N   UNL     1       5.696   3.532  15.891  0.00  0.00    +0.000 NA
ATOM     11  C   UNL     1       6.197   3.879  14.655  0.00  0.00    +0.000 A 
ATOM     12  C   UNL     1       5.787   3.318  13.431  0.00  0.00    +0.000 A 
ATOM     13  C   UNL     1       6.350   3.775  12.239  0.00  0.00    +0.000 A 
ATOM     14  C   UNL     1       7.333   4.762  12.261  0.00  0.00    +0.000 A 
ATOM     15  C   UNL     1       7.757   5.332  13.469  0.00  0.00    +0.000 A 
ATOM     16  C   UNL     1       7.160   4.886  14.658  0.00  0.00    +0.000 A 
ATOM     17  S   UNL     1       7.393   5.425  16.282  0.00  0.00    +0.000 S 
ENDBRANCH   2   9
BRANCH   7  18
ATOM     18  C   UNL     1       2.206   5.915  19.502  0.00  0.00    +0.000 A 
ATOM     19  C   UNL     1       2.615   6.433  18.257  0.00  0.00    +0.000 A 
ATOM     20  C   UNL     1       2.579   7.804  18.000  0.00  0.00    +0.000 A 
ATOM     21  F   UNL     1       3.016   8.259  16.819  0.00  0.00    +0.000 F 
ATOM     22  C   UNL     1       2.112   8.701  18.948  0.00  0.00    +0.000 A 
ATOM     23  C   UNL     1       1.618   8.208  20.148  0.00  0.00    +0.000 A 
ATOM     24  C   UNL     1       1.639   6.834  20.400  0.00  0.00    +0.000 A 
ATOM     25  F   UNL     1       1.061   6.420  21.533  0.00  0.00    +0.000 F 
ENDBRANCH   7  18
TORSDOF 2
ENDMDL
MODEL 2
REMARK VINA RESULT:      -8.1      3.563      7.599
REMARK  Name = 
REMARK  2 active torsions:
REMARK  status: ('A' for Active; 'I' for Inactive)
REMARK    1  A    between atoms: C_2  and  C_3
REMARK    2  A    between atoms: C_16  and  C_17
REMARK                            x       y       z     vdW  Elec       q    Type
REMARK                         _______ _______ _______ _____ _____    ______ ____
ROOT
ATOM      1  O   UNL     1       2.556   8.139  17.143  0.00  0.00    +0.000 OA
ATOM      2  C   UNL     1       2.314   7.607  18.227  0.00  0.00    +0.000 C 
ATOM      3  N   UNL     1       2.555   6.225  18.423  0.00  0.00    +0.000 N 
ATOM      4  C   UNL     1       2.260   5.476  19.648  0.00  0.00    +0.000 C 
ATOM      5  C   UNL     1       3.363   4.491  20.017  0.00  0.00    +0.000 C 
ATOM      6  C   UNL     1       3.799   3.648  18.821  0.00  0.00    +0.000 C 
ATOM      7  C   UNL     1       4.230   4.545  17.629  0.00  0.00    +0.000 C 
ATOM      8  C   UNL     1       2.984   5.407  17.282  0.00  0.00    +0.000 C 
ENDROOT
BRANCH   2   9
ATOM      9  C   UNL     1       1.810   8.378  19.370  0.00  0.00    +0.000 A 
ATOM     10  N   UNL     1       1.353   9.609  19.279  0.00  0.00    +0.000 NA
ATOM     11  C   UNL     1       0.709   9.954  20.448  0.00  0.00    +0.000 A 
ATOM     12  C   UNL     1      -0.052  11.121  20.638  0.00  0.00    +0.000 A 
ATOM     13  C   UNL     1      -0.682  11.345  21.863  0.00  0.00    +0.000 A 
ATOM     14  C   UNL     1      -0.534  10.431  22.903  0.00  0.00    +0.000 A 
ATOM     15  C   UNL     1       0.222   9.263  22.737  0.00  0.00    +0.000 A 
ATOM     16  C   UNL     1       0.824   9.035  21.489  0.00  0.00    +0.000 A 
ATOM     17  S   UNL     1       1.742   7.681  20.937  0.00  0.00    +0.000 S 
ENDBRANCH   2   9
BRANCH   7  18
ATOM     18  C   UNL     1       5.518   5.337  17.889  0.00  0.00    +0.000 A 
ATOM     19  C   UNL     1       6.382   5.010  18.954  0.00  0.00    +0.000 A 
ATOM     20  C   UNL     1       7.491   5.803  19.252  0.00  0.00    +0.000 A 
ATOM     21  F   UNL     1       8.262   5.481  20.298  0.00  0.00    +0.000 F 
ATOM     22  C   UNL     1       7.799   6.921  18.494  0.00  0.00    +0.000 A 
ATOM     23  C   UNL     1       7.016   7.214  17.385  0.00  0.00    +0.000 A 
ATOM     24  C   UNL     1       5.915   6.411  17.077  0.00  0.00    +0.000 A 
ATOM     25  F   UNL     1       5.264   6.692  15.943  0.00  0.00    +0.000 F 
ENDBRANCH   7  18
TORSDOF 2
ENDMDL
MODEL 3
REMARK VINA RESULT:      -7.9      4.467      7.219
REMARK  Name = 
REMARK  2 active torsions:
REMARK  status: ('A' for Active; 'I' for Inactive)
REMARK    1  A    between atoms: C_2  and  C_3
REMARK    2  A    between atoms: C_16  and  C_17
REMARK                            x       y       z     vdW  Elec       q    Type
REMARK                         _______ _______ _______ _____ _____    ______ ____
ROOT
ATOM      1  O   UNL     1       1.981  10.042  17.494  0.00  0.00    +0.000 OA
ATOM      2  C   UNL     1       1.785   9.558  18.610  0.00  0.00    +0.000 C 
ATOM      3  N   UNL     1       1.178  10.325  19.634  0.00  0.00    +0.000 N 
ATOM      4  C   UNL     1       0.942   9.873  21.008  0.00  0.00    +0.000 C 
ATOM      5  C   UNL     1      -0.422  10.295  21.542  0.00  0.00    +0.000 C 
ATOM      6  C   UNL     1      -0.704  11.773  21.279  0.00  0.00    +0.000 C 
ATOM      7  C   UNL     1      -0.568  12.111  19.770  0.00  0.00    +0.000 C 
ATOM      8  C   UNL     1       0.893  11.744  19.389  0.00  0.00    +0.000 C 
ENDROOT
BRANCH   2   9
ATOM      9  C   UNL     1       2.128   8.164  18.916  0.00  0.00    +0.000 A 
ATOM     10  N   UNL     1       1.779   7.550  20.027  0.00  0.00    +0.000 NA
ATOM     11  C   UNL     1       2.005   6.197  19.902  0.00  0.00    +0.000 A 
ATOM     12  C   UNL     1       1.584   5.218  20.821  0.00  0.00    +0.000 A 
ATOM     13  C   UNL     1       1.848   3.872  20.568  0.00  0.00    +0.000 A 
ATOM     14  C   UNL     1       2.551   3.500  19.424  0.00  0.00    +0.000 A 
ATOM     15  C   UNL     1       2.982   4.457  18.497  0.00  0.00    +0.000 A 
ATOM     16  C   UNL     1       2.682   5.806  18.748  0.00  0.00    +0.000 A 
ATOM     17  S   UNL     1       2.994   7.205  17.786  0.00  0.00    +0.000 S 
ENDBRANCH   2   9
BRANCH   7  18
ATOM     18  C   UNL     1      -1.651  11.466  18.895  0.00  0.00    +0.000 A 
ATOM     19  C   UNL     1      -1.332  10.503  17.917  0.00  0.00    +0.000 A 
ATOM     20  C   UNL     1      -2.306  10.006  17.051  0.00  0.00    +0.000 A 
ATOM     21  F   UNL     1      -1.953   9.123  16.108  0.00  0.00    +0.000 F 
ATOM     22  C   UNL     1      -3.626  10.418  17.140  0.00  0.00    +0.000 A 
ATOM     23  C   UNL     1      -3.984  11.298  18.153  0.00  0.00    +0.000 A 
ATOM     24  C   UNL     1      -3.013  11.784  19.031  0.00  0.00    +0.000 A 
ATOM     25  F   UNL     1      -3.441  12.550  20.040  0.00  0.00    +0.000 F 
ENDBRANCH   7  18
TORSDOF 2
ENDMDL
MODEL 4
REMARK VINA RESULT:      -7.8      3.960      6.223
REMARK  Name = 
REMARK  2 active torsions:
REMARK  status: ('A' for Active; 'I' for Inactive)
REMARK    1  A    between atoms: C_2  and  C_3
REMARK    2  A    between atoms: C_16  and  C_17
REMARK                            x       y       z     vdW  Elec       q    Type
REMARK                         _______ _______ _______ _____ _____    ______ ____
ROOT
ATOM      1  O   UNL     1       2.287   9.815  17.195  0.00  0.00    +0.000 OA
ATOM      2  C   UNL     1       2.090   9.097  18.176  0.00  0.00    +0.000 C 
ATOM      3  N   UNL     1       1.489   9.621  19.347  0.00  0.00    +0.000 N 
ATOM      4  C   UNL     1       1.253   8.877  20.587  0.00  0.00    +0.000 C 
ATOM      5  C   UNL     1      -0.108   9.179  21.205  0.00  0.00    +0.000 C 
ATOM      6  C   UNL     1      -0.381  10.679  21.277  0.00  0.00    +0.000 C 
ATOM      7  C   UNL     1      -0.246  11.342  19.880  0.00  0.00    +0.000 C 
ATOM      8  C   UNL     1       1.212  11.060  19.422  0.00  0.00    +0.000 C 
ENDROOT
BRANCH   2   9
ATOM      9  C   UNL     1       2.425   7.667  18.166  0.00  0.00    +0.000 A 
ATOM     10  N   UNL     1       1.569   6.711  18.459  0.00  0.00    +0.000 NA
ATOM     11  C   UNL     1       2.095   5.489  18.098  0.00  0.00    +0.000 A 
ATOM     12  C   UNL     1       1.387   4.273  18.100  0.00  0.00    +0.000 A 
ATOM     13  C   UNL     1       2.023   3.103  17.684  0.00  0.00    +0.000 A 
ATOM     14  C   UNL     1       3.360   3.133  17.294  0.00  0.00    +0.000 A 
ATOM     15  C   UNL     1       4.084   4.332  17.288  0.00  0.00    +0.000 A 
ATOM     16  C   UNL     1       3.423   5.508  17.679  0.00  0.00    +0.000 A 
ATOM     17  S   UNL     1       3.993   7.137  17.710  0.00  0.00    +0.000 S 
ENDBRANCH   2   9
BRANCH   7  18
ATOM     18  C   UNL     1      -1.335  10.913  18.888  0.00  0.00    +0.000 A 
ATOM     19  C   UNL     1      -1.054  10.037  17.820  0.00  0.00    +0.000 A 
ATOM     20  C   UNL     1      -2.021   9.742  16.858  0.00  0.00    +0.000 A 
ATOM     21  F   UNL     1      -1.701   8.938  15.836  0.00  0.00    +0.000 F 
ATOM     22  C   UNL     1      -3.298  10.274  16.934  0.00  0.00    +0.000 A 
ATOM     23  C   UNL     1      -3.627  11.068  18.025  0.00  0.00    +0.000 A 
ATOM     24  C   UNL     1      -2.664  11.351  18.997  0.00  0.00    +0.000 A 
ATOM     25  F   UNL     1      -3.074  12.040  20.068  0.00  0.00    +0.000 F 
ENDBRANCH   7  18
TORSDOF 2
ENDMDL
MODEL 5
REMARK VINA RESULT:      -7.7     10.038     13.081
REMARK  Name = 
REMARK  2 active torsions:
REMARK  status: ('A' for Active; 'I' for Inactive)
REMARK    1  A    between atoms: C_2  and  C_3
REMARK    2  A    between atoms: C_16  and  C_17
REMARK                            x       y       z     vdW  Elec       q    Type
REMARK                         _______ _______ _______ _____ _____    ______ ____
ROOT
ATOM      1  O   UNL     1      -7.086  11.515  20.618  0.00  0.00    +0.000 OA
ATOM      2  C   UNL     1      -6.429  12.389  20.051  0.00  0.00    +0.000 C 
ATOM      3  N   UNL     1      -6.547  13.747  20.437  0.00  0.00    +0.000 N 
ATOM      4  C   UNL     1      -5.857  14.874  19.802  0.00  0.00    +0.000 C 
ATOM      5  C   UNL     1      -5.327  15.884  20.813  0.00  0.00    +0.000 C 
ATOM      6  C   UNL     1      -6.383  16.260  21.851  0.00  0.00    +0.000 C 
ATOM      7  C   UNL     1      -6.941  15.000  22.565  0.00  0.00    +0.000 C 
ATOM      8  C   UNL     1      -7.551  14.118  21.441  0.00  0.00    +0.000 C 
ENDROOT
BRANCH   2   9
ATOM      9  C   UNL     1      -5.470  12.066  18.987  0.00  0.00    +0.000 A 
ATOM     10  N   UNL     1      -4.221  11.717  19.208  0.00  0.00    +0.000 NA
ATOM     11  C   UNL     1      -3.665  11.218  18.049  0.00  0.00    +0.000 A 
ATOM     12  C   UNL     1      -2.410  10.587  17.961  0.00  0.00    +0.000 A 
ATOM     13  C   UNL     1      -1.968  10.097  16.732  0.00  0.00    +0.000 A 
ATOM     14  C   UNL     1      -2.753  10.254  15.592  0.00  0.00    +0.000 A 
ATOM     15  C   UNL     1      -4.004  10.882  15.657  0.00  0.00    +0.000 A 
ATOM     16  C   UNL     1      -4.450  11.343  16.905  0.00  0.00    +0.000 A 
ATOM     17  S   UNL     1      -5.951  12.078  17.339  0.00  0.00    +0.000 S 
ENDBRANCH   2   9
BRANCH   7  18
ATOM     18  C   UNL     1      -5.915  14.295  23.462  0.00  0.00    +0.000 A 
ATOM     19  C   UNL     1      -4.716  14.927  23.846  0.00  0.00    +0.000 A 
ATOM     20  C   UNL     1      -3.738  14.240  24.567  0.00  0.00    +0.000 A 
ATOM     21  F   UNL     1      -2.595  14.864  24.877  0.00  0.00    +0.000 F 
ATOM     22  C   UNL     1      -3.925  12.923  24.956  0.00  0.00    +0.000 A 
ATOM     23  C   UNL     1      -5.135  12.306  24.668  0.00  0.00    +0.000 A 
ATOM     24  C   UNL     1      -6.120  12.999  23.960  0.00  0.00    +0.000 A 
ATOM     25  F   UNL     1      -7.295  12.380  23.801  0.00  0.00    +0.000 F 
ENDBRANCH   7  18
TORSDOF 2
ENDMDL
MODEL 6
REMARK VINA RESULT:      -7.5      8.055     12.636
REMARK  Name = 
REMARK  2 active torsions:
REMARK  status: ('A' for Active; 'I' for Inactive)
REMARK    1  A    between atoms: C_2  and  C_3
REMARK    2  A    between atoms: C_16  and  C_17
REMARK                            x       y       z     vdW  Elec       q    Type
REMARK                         _______ _______ _______ _____ _____    ______ ____
ROOT
ATOM      1  O   UNL     1      -0.338  13.957  22.873  0.00  0.00    +0.000 OA
ATOM      2  C   UNL     1      -1.374  13.726  22.248  0.00  0.00    +0.000 C 
ATOM      3  N   UNL     1      -1.328  13.368  20.879  0.00  0.00    +0.000 N 
ATOM      4  C   UNL     1      -2.493  13.122  20.024  0.00  0.00    +0.000 C 
ATOM      5  C   UNL     1      -2.306  11.922  19.104  0.00  0.00    +0.000 C 
ATOM      6  C   UNL     1      -0.960  11.961  18.383  0.00  0.00    +0.000 C 
ATOM      7  C   UNL     1       0.214  12.076  19.392  0.00  0.00    +0.000 C 
ATOM      8  C   UNL     1      -0.038  13.393  20.179  0.00  0.00    +0.000 C 
ENDROOT
BRANCH   2   9
ATOM      9  C   UNL     1      -2.691  13.768  22.896  0.00  0.00    +0.000 A 
ATOM     10  N   UNL     1      -3.432  14.853  22.981  0.00  0.00    +0.000 NA
ATOM     11  C   UNL     1      -4.704  14.516  23.391  0.00  0.00    +0.000 A 
ATOM     12  C   UNL     1      -5.804  15.394  23.416  0.00  0.00    +0.000 A 
ATOM     13  C   UNL     1      -7.053  14.926  23.825  0.00  0.00    +0.000 A 
ATOM     14  C   UNL     1      -7.206  13.602  24.232  0.00  0.00    +0.000 A 
ATOM     15  C   UNL     1      -6.124  12.712  24.217  0.00  0.00    +0.000 A 
ATOM     16  C   UNL     1      -4.880  13.188  23.773  0.00  0.00    +0.000 A 
ATOM     17  S   UNL     1      -3.387  12.347  23.561  0.00  0.00    +0.000 S 
ENDBRANCH   2   9
BRANCH   7  18
ATOM     18  C   UNL     1       0.405  10.825  20.260  0.00  0.00    +0.000 A 
ATOM     19  C   UNL     1       0.025  10.805  21.617  0.00  0.00    +0.000 A 
ATOM     20  C   UNL     1       0.304   9.704  22.428  0.00  0.00    +0.000 A 
ATOM     21  F   UNL     1      -0.037   9.741  23.722  0.00  0.00    +0.000 F 
ATOM     22  C   UNL     1       0.938   8.580  21.920  0.00  0.00    +0.000 A 
ATOM     23  C   UNL     1       1.242   8.539  20.566  0.00  0.00    +0.000 A 
ATOM     24  C   UNL     1       0.948   9.634  19.751  0.00  0.00    +0.000 A 
ATOM     25  F   UNL     1       1.178   9.490  18.441  0.00  0.00    +0.000 F 
ENDBRANCH   7  18
TORSDOF 2
ENDMDL
MODEL 7
REMARK VINA RESULT:      -7.5     10.105     13.165
REMARK  Name = 
REMARK  2 active torsions:
REMARK  status: ('A' for Active; 'I' for Inactive)
REMARK    1  A    between atoms: C_2  and  C_3
REMARK    2  A    between atoms: C_16  and  C_17
REMARK                            x       y       z     vdW  Elec       q    Type
REMARK                         _______ _______ _______ _____ _____    ______ ____
ROOT
ATOM      1  O   UNL     1      -6.560  11.491  21.159  0.00  0.00    +0.000 OA
ATOM      2  C   UNL     1      -6.169  12.360  20.380  0.00  0.00    +0.000 C 
ATOM      3  N   UNL     1      -6.505  13.721  20.586  0.00  0.00    +0.000 N 
ATOM      4  C   UNL     1      -6.141  14.830  19.700  0.00  0.00    +0.000 C 
ATOM      5  C   UNL     1      -5.699  16.073  20.464  0.00  0.00    +0.000 C 
ATOM      6  C   UNL     1      -6.667  16.423  21.592  0.00  0.00    +0.000 C 
ATOM      7  C   UNL     1      -6.867  15.222  22.554  0.00  0.00    +0.000 C 
ATOM      8  C   UNL     1      -7.427  14.070  21.673  0.00  0.00    +0.000 C 
ENDROOT
BRANCH   2   9
ATOM      9  C   UNL     1      -5.308  12.039  19.234  0.00  0.00    +0.000 A 
ATOM     10  N   UNL     1      -4.018  11.796  19.332  0.00  0.00    +0.000 NA
ATOM     11  C   UNL     1      -3.553  11.266  18.148  0.00  0.00    +0.000 A 
ATOM     12  C   UNL     1      -2.270  10.723  17.954  0.00  0.00    +0.000 A 
ATOM     13  C   UNL     1      -1.926  10.188  16.712  0.00  0.00    +0.000 A 
ATOM     14  C   UNL     1      -2.839  10.215  15.661  0.00  0.00    +0.000 A 
ATOM     15  C   UNL     1      -4.121  10.753  15.831  0.00  0.00    +0.000 A 
ATOM     16  C   UNL     1      -4.465  11.259  17.094  0.00  0.00    +0.000 A 
ATOM     17  S   UNL     1      -5.964  11.911  17.653  0.00  0.00    +0.000 S 
ENDBRANCH   2   9
BRANCH   7  18
ATOM     18  C   UNL     1      -5.615  14.870  23.368  0.00  0.00    +0.000 A 
ATOM     19  C   UNL     1      -5.200  13.534  23.541  0.00  0.00    +0.000 A 
ATOM     20  C   UNL     1      -4.127  13.215  24.374  0.00  0.00    +0.000 A 
ATOM     21  F   UNL     1      -3.792  11.930  24.545  0.00  0.00    +0.000 F 
ATOM     22  C   UNL     1      -3.414  14.201  25.037  0.00  0.00    +0.000 A 
ATOM     23  C   UNL     1      -3.745  15.531  24.812  0.00  0.00    +0.000 A 
ATOM     24  C   UNL     1      -4.808  15.851  23.966  0.00  0.00    +0.000 A 
ATOM     25  F   UNL     1      -5.011  17.150  23.718  0.00  0.00    +0.000 F 
ENDBRANCH   7  18
TORSDOF 2
ENDMDL
MODEL 8
REMARK VINA RESULT:      -7.4      4.932      7.733
REMARK  Name = 
REMARK  2 active torsions:
REMARK  status: ('A' for Active; 'I' for Inactive)
REMARK    1  A    between atoms: C_2  and  C_3
REMARK    2  A    between atoms: C_16  and  C_17
REMARK                            x       y       z     vdW  Elec       q    Type
REMARK                         _______ _______ _______ _____ _____    ______ ____
ROOT
ATOM      1  O   UNL     1       1.123  10.522  21.912  0.00  0.00    +0.000 OA
ATOM      2  C   UNL     1       0.692   9.936  20.919  0.00  0.00    +0.000 C 
ATOM      3  N   UNL     1      -0.432  10.435  20.216  0.00  0.00    +0.000 N 
ATOM      4  C   UNL     1      -1.061   9.797  19.056  0.00  0.00    +0.000 C 
ATOM      5  C   UNL     1      -1.452  10.796  17.973  0.00  0.00    +0.000 C 
ATOM      6  C   UNL     1      -2.199  11.997  18.549  0.00  0.00    +0.000 C 
ATOM      7  C   UNL     1      -1.377  12.686  19.670  0.00  0.00    +0.000 C 
ATOM      8  C   UNL     1      -1.152  11.595  20.754  0.00  0.00    +0.000 C 
ENDROOT
BRANCH   2   9
ATOM      9  C   UNL     1       1.339   8.727  20.395  0.00  0.00    +0.000 A 
ATOM     10  N   UNL     1       1.402   7.586  21.050  0.00  0.00    +0.000 NA
ATOM     11  C   UNL     1       1.820   6.584  20.200  0.00  0.00    +0.000 A 
ATOM     12  C   UNL     1       1.828   5.212  20.511  0.00  0.00    +0.000 A 
ATOM     13  C   UNL     1       2.247   4.289  19.553  0.00  0.00    +0.000 A 
ATOM     14  C   UNL     1       2.682   4.725  18.304  0.00  0.00    +0.000 A 
ATOM     15  C   UNL     1       2.686   6.086  17.974  0.00  0.00    +0.000 A 
ATOM     16  C   UNL     1       2.231   7.002  18.936  0.00  0.00    +0.000 A 
ATOM     17  S   UNL     1       2.036   8.714  18.826  0.00  0.00    +0.000 S 
ENDBRANCH   2   9
BRANCH   7  18
ATOM     18  C   UNL     1      -0.102  13.374  19.164  0.00  0.00    +0.000 A 
ATOM     19  C   UNL     1       0.998  12.631  18.691  0.00  0.00    +0.000 A 
ATOM     20  C   UNL     1       2.193  13.259  18.339  0.00  0.00    +0.000 A 
ATOM     21  F   UNL     1       3.229  12.513  17.933  0.00  0.00    +0.000 F 
ATOM     22  C   UNL     1       2.332  14.636  18.414  0.00  0.00    +0.000 A 
ATOM     23  C   UNL     1       1.234  15.398  18.791  0.00  0.00    +0.000 A 
ATOM     24  C   UNL     1       0.032  14.771  19.128  0.00  0.00    +0.000 A 
ATOM     25  F   UNL     1      -1.011  15.568  19.388  0.00  0.00    +0.000 F 
ENDBRANCH   7  18
TORSDOF 2
ENDMDL
MODEL 9
REMARK VINA RESULT:      -7.4      4.391      6.862
REMARK  Name = 
REMARK  2 active torsions:
REMARK  status: ('A' for Active; 'I' for Inactive)
REMARK    1  A    between atoms: C_2  and  C_3
REMARK    2  A    between atoms: C_16  and  C_17
REMARK                            x       y       z     vdW  Elec       q    Type
REMARK                         _______ _______ _______ _____ _____    ______ ____
ROOT
ATOM      1  O   UNL     1       1.983   9.781  17.435  0.00  0.00    +0.000 OA
ATOM      2  C   UNL     1       1.740   9.247  18.518  0.00  0.00    +0.000 C 
ATOM      3  N   UNL     1       1.187   9.996  19.585  0.00  0.00    +0.000 N 
ATOM      4  C   UNL     1       0.905   9.481  20.928  0.00  0.00    +0.000 C 
ATOM      5  C   UNL     1      -0.425   9.978  21.483  0.00  0.00    +0.000 C 
ATOM      6  C   UNL     1      -0.586  11.486  21.310  0.00  0.00    +0.000 C 
ATOM      7  C   UNL     1      -0.413  11.903  19.825  0.00  0.00    +0.000 C 
ATOM      8  C   UNL     1       1.018  11.445  19.426  0.00  0.00    +0.000 C 
ENDROOT
BRANCH   2   9
ATOM      9  C   UNL     1       1.969   7.814  18.740  0.00  0.00    +0.000 A 
ATOM     10  N   UNL     1       2.222   6.954  17.776  0.00  0.00    +0.000 NA
ATOM     11  C   UNL     1       2.656   5.763  18.317  0.00  0.00    +0.000 A 
ATOM     12  C   UNL     1       3.184   4.686  17.581  0.00  0.00    +0.000 A 
ATOM     13  C   UNL     1       3.617   3.540  18.249  0.00  0.00    +0.000 A 
ATOM     14  C   UNL     1       3.503   3.450  19.634  0.00  0.00    +0.000 A 
ATOM     15  C   UNL     1       2.977   4.509  20.385  0.00  0.00    +0.000 A 
ATOM     16  C   UNL     1       2.574   5.669  19.705  0.00  0.00    +0.000 A 
ATOM     17  S   UNL     1       1.966   7.160  20.327  0.00  0.00    +0.000 S 
ENDBRANCH   2   9
BRANCH   7  18
ATOM     18  C   UNL     1      -1.537  11.401  18.909  0.00  0.00    +0.000 A 
ATOM     19  C   UNL     1      -1.294  10.449  17.899  0.00  0.00    +0.000 A 
ATOM     20  C   UNL     1      -2.295  10.082  16.999  0.00  0.00    +0.000 A 
ATOM     21  F   UNL     1      -2.012   9.204  16.028  0.00  0.00    +0.000 F 
ATOM     22  C   UNL     1      -3.570  10.618  17.084  0.00  0.00    +0.000 A 
ATOM     23  C   UNL     1      -3.860  11.491  18.125  0.00  0.00    +0.000 A 
ATOM     24  C   UNL     1      -2.863  11.846  19.036  0.00  0.00    +0.000 A 
ATOM     25  F   UNL     1      -3.234  12.612  20.068  0.00  0.00    +0.000 F 
ENDBRANCH   7  18
TORSDOF 2
ENDMDL
