MODEL 1
REMARK VINA RESULT:      -9.6      0.000      0.000
REMARK  Name = 
REMARK  3 active torsions:
REMARK  status: ('A' for Active; 'I' for Inactive)
REMARK    1  A    between atoms: O_1  and  C_2
REMARK    2  A    between atoms: C_5  and  C_6
REMARK    3  A    between atoms: C_6  and  C_16
REMARK                            x       y       z     vdW  Elec       q    Type
REMARK                         _______ _______ _______ _____ _____    ______ ____
ROOT
ATOM      1  C   UNL     1       3.285   6.086  18.514  0.00  0.00    +0.000 C 
ATOM      2  C   UNL     1       4.422   5.898  17.779  0.00  0.00    +0.000 C 
ATOM      3  C   UNL     1       5.073   4.521  17.597  0.00  0.00    +0.000 C 
ATOM      4  C   UNL     1       6.470   4.496  18.228  0.00  0.00    +0.000 C 
ATOM      5  C   UNL     1       7.377   5.668  17.908  0.00  0.00    +0.000 C 
ATOM      6  C   UNL     1       6.690   6.991  17.564  0.00  0.00    +0.000 C 
ATOM      7  C   UNL     1       5.252   6.914  17.009  0.00  0.00    +0.000 C 
ATOM      8  C   UNL     1       5.263   6.582  15.501  0.00  0.00    +0.000 C 
ATOM      9  C   UNL     1       5.349   5.108  15.096  0.00  0.00    +0.000 C 
ATOM     10  C   UNL     1       4.937   4.089  16.142  0.00  0.00    +0.000 C 
ENDROOT
BRANCH   1  14
ATOM     11  C   UNL     1       0.831   9.540  19.141  0.00  0.00    +0.000 A 
ATOM     12  C   UNL     1       1.389   9.314  17.890  0.00  0.00    +0.000 A 
ATOM     13  C   UNL     1       2.268   8.234  17.707  0.00  0.00    +0.000 A 
ATOM     14  C   UNL     1       2.594   7.379  18.771  0.00  0.00    +0.000 A 
ATOM     15  C   UNL     1       2.045   7.647  20.034  0.00  0.00    +0.000 A 
ATOM     16  C   UNL     1       1.164   8.722  20.217  0.00  0.00    +0.000 A 
BRANCH  11  17
ATOM     17  O   UNL     1      -0.068  10.542  19.355  0.00  0.00    +0.000 OA
ATOM     18  H   UNL     1      -0.452  10.432  20.242  0.00  0.00    +0.000 HD
ENDBRANCH  11  17
ENDBRANCH   1  14
BRANCH   1  19
ATOM     19  C   UNL     1       2.738   4.841  19.120  0.00  0.00    +0.000 A 
ATOM     20  C   UNL     1       1.661   4.194  18.493  0.00  0.00    +0.000 A 
ATOM     21  C   UNL     1       0.807   3.386  19.243  0.00  0.00    +0.000 A 
ATOM     22  C   UNL     1       1.038   3.203  20.606  0.00  0.00    +0.000 A 
ATOM     23  C   UNL     1       2.171   3.751  21.208  0.00  0.00    +0.000 A 
ATOM     24  C   UNL     1       3.043   4.553  20.463  0.00  0.00    +0.000 A 
ENDBRANCH   1  19
TORSDOF 3
ENDMDL
MODEL 2
REMARK VINA RESULT:      -9.4      0.317      1.054
REMARK  Name = 
REMARK  3 active torsions:
REMARK  status: ('A' for Active; 'I' for Inactive)
REMARK    1  A    between atoms: O_1  and  C_2
REMARK    2  A    between atoms: C_5  and  C_6
REMARK    3  A    between atoms: C_6  and  C_16
REMARK                            x       y       z     vdW  Elec       q    Type
REMARK                         _______ _______ _______ _____ _____    ______ ____
ROOT
ATOM      1  C   UNL     1       3.179   5.950  18.474  0.00  0.00    +0.000 C 
ATOM      2  C   UNL     1       4.353   5.834  17.783  0.00  0.00    +0.000 C 
ATOM      3  C   UNL     1       5.123   4.513  17.674  0.00  0.00    +0.000 C 
ATOM      4  C   UNL     1       6.495   4.630  18.349  0.00  0.00    +0.000 C 
ATOM      5  C   UNL     1       7.310   5.864  18.012  0.00  0.00    +0.000 C 
ATOM      6  C   UNL     1       6.526   7.110  17.595  0.00  0.00    +0.000 C 
ATOM      7  C   UNL     1       5.119   6.889  17.000  0.00  0.00    +0.000 C 
ATOM      8  C   UNL     1       5.210   6.506  15.507  0.00  0.00    +0.000 C 
ATOM      9  C   UNL     1       5.433   5.031  15.162  0.00  0.00    +0.000 C 
ATOM     10  C   UNL     1       5.074   4.019  16.233  0.00  0.00    +0.000 C 
ENDROOT
BRANCH   1  14
ATOM     11  C   UNL     1       1.329   9.755  19.138  0.00  0.00    +0.000 A 
ATOM     12  C   UNL     1       1.401   8.838  20.177  0.00  0.00    +0.000 A 
ATOM     13  C   UNL     1       1.923   7.557  19.937  0.00  0.00    +0.000 A 
ATOM     14  C   UNL     1       2.372   7.187  18.660  0.00  0.00    +0.000 A 
ATOM     15  C   UNL     1       2.258   8.119  17.618  0.00  0.00    +0.000 A 
ATOM     16  C   UNL     1       1.742   9.400  17.857  0.00  0.00    +0.000 A 
BRANCH  11  17
ATOM     17  O   UNL     1       0.881  11.028  19.335  0.00  0.00    +0.000 OA
ATOM     18  H   UNL     1      -0.082  11.002  19.469  0.00  0.00    +0.000 HD
ENDBRANCH  11  17
ENDBRANCH   1  14
BRANCH   1  19
ATOM     19  C   UNL     1       2.719   4.685  19.110  0.00  0.00    +0.000 A 
ATOM     20  C   UNL     1       1.695   3.946  18.496  0.00  0.00    +0.000 A 
ATOM     21  C   UNL     1       0.896   3.099  19.263  0.00  0.00    +0.000 A 
ATOM     22  C   UNL     1       1.132   2.969  20.631  0.00  0.00    +0.000 A 
ATOM     23  C   UNL     1       2.218   3.613  21.224  0.00  0.00    +0.000 A 
ATOM     24  C   UNL     1       3.035   4.455  20.462  0.00  0.00    +0.000 A 
ENDBRANCH   1  19
TORSDOF 3
ENDMDL
MODEL 3
REMARK VINA RESULT:      -9.3      0.539      1.145
REMARK  Name = 
REMARK  3 active torsions:
REMARK  status: ('A' for Active; 'I' for Inactive)
REMARK    1  A    between atoms: O_1  and  C_2
REMARK    2  A    between atoms: C_5  and  C_6
REMARK    3  A    between atoms: C_6  and  C_16
REMARK                            x       y       z     vdW  Elec       q    Type
REMARK                         _______ _______ _______ _____ _____    ______ ____
ROOT
ATOM      1  C   UNL     1       3.032   6.140  18.553  0.00  0.00    +0.000 C 
ATOM      2  C   UNL     1       4.199   5.870  17.896  0.00  0.00    +0.000 C 
ATOM      3  C   UNL     1       4.742   4.447  17.722  0.00  0.00    +0.000 C 
ATOM      4  C   UNL     1       6.082   4.287  18.449  0.00  0.00    +0.000 C 
ATOM      5  C   UNL     1       7.106   5.383  18.225  0.00  0.00    +0.000 C 
ATOM      6  C   UNL     1       6.561   6.768  17.870  0.00  0.00    +0.000 C 
ATOM      7  C   UNL     1       5.165   6.827  17.214  0.00  0.00    +0.000 C 
ATOM      8  C   UNL     1       5.257   6.528  15.702  0.00  0.00    +0.000 C 
ATOM      9  C   UNL     1       5.246   5.060  15.264  0.00  0.00    +0.000 C 
ATOM     10  C   UNL     1       4.675   4.059  16.250  0.00  0.00    +0.000 C 
ENDROOT
BRANCH   1  14
ATOM     11  C   UNL     1       0.833   9.767  19.150  0.00  0.00    +0.000 A 
ATOM     12  C   UNL     1       1.360   9.484  17.897  0.00  0.00    +0.000 A 
ATOM     13  C   UNL     1       2.158   8.342  17.723  0.00  0.00    +0.000 A 
ATOM     14  C   UNL     1       2.435   7.482  18.797  0.00  0.00    +0.000 A 
ATOM     15  C   UNL     1       1.921   7.808  20.061  0.00  0.00    +0.000 A 
ATOM     16  C   UNL     1       1.119   8.944  20.235  0.00  0.00    +0.000 A 
BRANCH  11  17
ATOM     17  O   UNL     1       0.008  10.833  19.357  0.00  0.00    +0.000 OA
ATOM     18  H   UNL     1      -0.378  10.760  20.246  0.00  0.00    +0.000 HD
ENDBRANCH  11  17
ENDBRANCH   1  14
BRANCH   1  19
ATOM     19  C   UNL     1       2.338   4.934  19.085  0.00  0.00    +0.000 A 
ATOM     20  C   UNL     1       2.786   4.367  20.289  0.00  0.00    +0.000 A 
ATOM     21  C   UNL     1       2.552   3.016  20.547  0.00  0.00    +0.000 A 
ATOM     22  C   UNL     1       1.853   2.241  19.622  0.00  0.00    +0.000 A 
ATOM     23  C   UNL     1       1.310   2.827  18.479  0.00  0.00    +0.000 A 
ATOM     24  C   UNL     1       1.526   4.184  18.215  0.00  0.00    +0.000 A 
ENDBRANCH   1  19
TORSDOF 3
ENDMDL
MODEL 4
REMARK VINA RESULT:      -9.2      1.080      4.385
REMARK  Name = 
REMARK  3 active torsions:
REMARK  status: ('A' for Active; 'I' for Inactive)
REMARK    1  A    between atoms: O_1  and  C_2
REMARK    2  A    between atoms: C_5  and  C_6
REMARK    3  A    between atoms: C_6  and  C_16
REMARK                            x       y       z     vdW  Elec       q    Type
REMARK                         _______ _______ _______ _____ _____    ______ ____
ROOT
ATOM      1  C   UNL     1       3.267   5.692  18.769  0.00  0.00    +0.000 C 
ATOM      2  C   UNL     1       2.767   4.504  19.225  0.00  0.00    +0.000 C 
ATOM      3  C   UNL     1       3.438   3.157  18.932  0.00  0.00    +0.000 C 
ATOM      4  C   UNL     1       2.519   2.268  18.086  0.00  0.00    +0.000 C 
ATOM      5  C   UNL     1       1.075   2.167  18.538  0.00  0.00    +0.000 C 
ATOM      6  C   UNL     1       0.518   3.356  19.324  0.00  0.00    +0.000 C 
ATOM      7  C   UNL     1       1.536   4.239  20.077  0.00  0.00    +0.000 C 
ATOM      8  C   UNL     1       1.929   3.594  21.424  0.00  0.00    +0.000 C 
ATOM      9  C   UNL     1       3.052   2.553  21.414  0.00  0.00    +0.000 C 
ATOM     10  C   UNL     1       3.997   2.581  20.228  0.00  0.00    +0.000 C 
ENDROOT
BRANCH   1  14
ATOM     11  C   UNL     1       1.097   9.356  19.227  0.00  0.00    +0.000 A 
ATOM     12  C   UNL     1       1.700   9.064  18.011  0.00  0.00    +0.000 A 
ATOM     13  C   UNL     1       2.488   7.909  17.888  0.00  0.00    +0.000 A 
ATOM     14  C   UNL     1       2.679   7.044  18.976  0.00  0.00    +0.000 A 
ATOM     15  C   UNL     1       2.088   7.377  20.204  0.00  0.00    +0.000 A 
ATOM     16  C   UNL     1       1.296   8.528  20.327  0.00  0.00    +0.000 A 
BRANCH  11  17
ATOM     17  O   UNL     1       0.279  10.436  19.381  0.00  0.00    +0.000 OA
ATOM     18  H   UNL     1       0.494  11.091  18.696  0.00  0.00    +0.000 HD
ENDBRANCH  11  17
ENDBRANCH   1  14
BRANCH   1  19
ATOM     19  C   UNL     1       4.514   5.561  17.966  0.00  0.00    +0.000 A 
ATOM     20  C   UNL     1       4.422   5.138  16.630  0.00  0.00    +0.000 A 
ATOM     21  C   UNL     1       5.512   4.515  16.025  0.00  0.00    +0.000 A 
ATOM     22  C   UNL     1       6.697   4.336  16.738  0.00  0.00    +0.000 A 
ATOM     23  C   UNL     1       6.830   4.856  18.026  0.00  0.00    +0.000 A 
ATOM     24  C   UNL     1       5.747   5.495  18.639  0.00  0.00    +0.000 A 
ENDBRANCH   1  19
TORSDOF 3
ENDMDL
MODEL 5
REMARK VINA RESULT:      -9.1      1.144      4.653
REMARK  Name = 
REMARK  3 active torsions:
REMARK  status: ('A' for Active; 'I' for Inactive)
REMARK    1  A    between atoms: O_1  and  C_2
REMARK    2  A    between atoms: C_5  and  C_6
REMARK    3  A    between atoms: C_6  and  C_16
REMARK                            x       y       z     vdW  Elec       q    Type
REMARK                         _______ _______ _______ _____ _____    ______ ____
ROOT
ATOM      1  C   UNL     1       3.364   5.565  18.821  0.00  0.00    +0.000 C 
ATOM      2  C   UNL     1       2.800   4.402  19.264  0.00  0.00    +0.000 C 
ATOM      3  C   UNL     1       3.455   3.031  19.055  0.00  0.00    +0.000 C 
ATOM      4  C   UNL     1       2.579   2.145  18.162  0.00  0.00    +0.000 C 
ATOM      5  C   UNL     1       1.102   2.091  18.504  0.00  0.00    +0.000 C 
ATOM      6  C   UNL     1       0.520   3.313  19.217  0.00  0.00    +0.000 C 
ATOM      7  C   UNL     1       1.501   4.189  20.026  0.00  0.00    +0.000 C 
ATOM      8  C   UNL     1       1.774   3.569  21.413  0.00  0.00    +0.000 C 
ATOM      9  C   UNL     1       2.866   2.500  21.514  0.00  0.00    +0.000 C 
ATOM     10  C   UNL     1       3.898   2.474  20.402  0.00  0.00    +0.000 C 
ENDROOT
BRANCH   1  14
ATOM     11  C   UNL     1       1.262   9.290  19.038  0.00  0.00    +0.000 A 
ATOM     12  C   UNL     1       1.923   8.945  17.868  0.00  0.00    +0.000 A 
ATOM     13  C   UNL     1       2.689   7.768  17.826  0.00  0.00    +0.000 A 
ATOM     14  C   UNL     1       2.799   6.936  18.951  0.00  0.00    +0.000 A 
ATOM     15  C   UNL     1       2.150   7.324  20.132  0.00  0.00    +0.000 A 
ATOM     16  C   UNL     1       1.381   8.495  20.174  0.00  0.00    +0.000 A 
BRANCH  11  17
ATOM     17  O   UNL     1       0.463  10.393  19.112  0.00  0.00    +0.000 OA
ATOM     18  H   UNL     1       0.644  10.854  19.948  0.00  0.00    +0.000 HD
ENDBRANCH  11  17
ENDBRANCH   1  14
BRANCH   1  19
ATOM     19  C   UNL     1       4.664   5.383  18.118  0.00  0.00    +0.000 A 
ATOM     20  C   UNL     1       5.857   5.632  18.816  0.00  0.00    +0.000 A 
ATOM     21  C   UNL     1       7.009   5.984  18.115  0.00  0.00    +0.000 A 
ATOM     22  C   UNL     1       6.982   6.062  16.723  0.00  0.00    +0.000 A 
ATOM     23  C   UNL     1       5.830   5.706  16.020  0.00  0.00    +0.000 A 
ATOM     24  C   UNL     1       4.671   5.339  16.711  0.00  0.00    +0.000 A 
ENDBRANCH   1  19
TORSDOF 3
ENDMDL
MODEL 6
REMARK VINA RESULT:      -9.1      1.179      4.516
REMARK  Name = 
REMARK  3 active torsions:
REMARK  status: ('A' for Active; 'I' for Inactive)
REMARK    1  A    between atoms: O_1  and  C_2
REMARK    2  A    between atoms: C_5  and  C_6
REMARK    3  A    between atoms: C_6  and  C_16
REMARK                            x       y       z     vdW  Elec       q    Type
REMARK                         _______ _______ _______ _____ _____    ______ ____
ROOT
ATOM      1  C   UNL     1       3.108   5.593  18.790  0.00  0.00    +0.000 C 
ATOM      2  C   UNL     1       2.690   4.364  19.217  0.00  0.00    +0.000 C 
ATOM      3  C   UNL     1       3.535   3.096  19.046  0.00  0.00    +0.000 C 
ATOM      4  C   UNL     1       2.830   2.096  18.123  0.00  0.00    +0.000 C 
ATOM      5  C   UNL     1       1.361   1.840  18.400  0.00  0.00    +0.000 C 
ATOM      6  C   UNL     1       0.585   2.972  19.078  0.00  0.00    +0.000 C 
ATOM      7  C   UNL     1       1.400   3.975  19.922  0.00  0.00    +0.000 C 
ATOM      8  C   UNL     1       1.693   3.401  21.325  0.00  0.00    +0.000 C 
ATOM      9  C   UNL     1       2.916   2.492  21.481  0.00  0.00    +0.000 C 
ATOM     10  C   UNL     1       3.991   2.607  20.416  0.00  0.00    +0.000 C 
ENDROOT
BRANCH   1  14
ATOM     11  C   UNL     1       1.421   9.510  19.183  0.00  0.00    +0.000 A 
ATOM     12  C   UNL     1       1.438   8.658  20.279  0.00  0.00    +0.000 A 
ATOM     13  C   UNL     1       1.906   7.343  20.128  0.00  0.00    +0.000 A 
ATOM     14  C   UNL     1       2.355   6.873  18.884  0.00  0.00    +0.000 A 
ATOM     15  C   UNL     1       2.295   7.741  17.784  0.00  0.00    +0.000 A 
ATOM     16  C   UNL     1       1.834   9.056  17.934  0.00  0.00    +0.000 A 
BRANCH  11  17
ATOM     17  O   UNL     1       1.027  10.811  19.291  0.00  0.00    +0.000 OA
ATOM     18  H   UNL     1       1.088  11.078  20.224  0.00  0.00    +0.000 HD
ENDBRANCH  11  17
ENDBRANCH   1  14
BRANCH   1  19
ATOM     19  C   UNL     1       4.451   5.590  18.146  0.00  0.00    +0.000 A 
ATOM     20  C   UNL     1       4.565   5.174  16.810  0.00  0.00    +0.000 A 
ATOM     21  C   UNL     1       5.777   4.664  16.345  0.00  0.00    +0.000 A 
ATOM     22  C   UNL     1       6.877   4.592  17.199  0.00  0.00    +0.000 A 
ATOM     23  C   UNL     1       6.799   5.109  18.492  0.00  0.00    +0.000 A 
ATOM     24  C   UNL     1       5.593   5.636  18.967  0.00  0.00    +0.000 A 
ENDBRANCH   1  19
TORSDOF 3
ENDMDL
MODEL 7
REMARK VINA RESULT:      -9.0      0.830      1.658
REMARK  Name = 
REMARK  3 active torsions:
REMARK  status: ('A' for Active; 'I' for Inactive)
REMARK    1  A    between atoms: O_1  and  C_2
REMARK    2  A    between atoms: C_5  and  C_6
REMARK    3  A    between atoms: C_6  and  C_16
REMARK                            x       y       z     vdW  Elec       q    Type
REMARK                         _______ _______ _______ _____ _____    ______ ____
ROOT
ATOM      1  C   UNL     1       3.181   5.916  18.285  0.00  0.00    +0.000 C 
ATOM      2  C   UNL     1       4.370   5.836  17.614  0.00  0.00    +0.000 C 
ATOM      3  C   UNL     1       5.120   4.515  17.412  0.00  0.00    +0.000 C 
ATOM      4  C   UNL     1       6.476   4.548  18.125  0.00  0.00    +0.000 C 
ATOM      5  C   UNL     1       7.320   5.789  17.914  0.00  0.00    +0.000 C 
ATOM      6  C   UNL     1       6.569   7.081  17.587  0.00  0.00    +0.000 C 
ATOM      7  C   UNL     1       5.173   6.939  16.942  0.00  0.00    +0.000 C 
ATOM      8  C   UNL     1       5.294   6.682  15.424  0.00  0.00    +0.000 C 
ATOM      9  C   UNL     1       5.501   5.237  14.961  0.00  0.00    +0.000 C 
ATOM     10  C   UNL     1       5.098   4.145  15.933  0.00  0.00    +0.000 C 
ENDROOT
BRANCH   1  14
ATOM     11  C   UNL     1       1.386   9.696  19.199  0.00  0.00    +0.000 A 
ATOM     12  C   UNL     1       1.469   8.721  20.184  0.00  0.00    +0.000 A 
ATOM     13  C   UNL     1       1.972   7.450  19.861  0.00  0.00    +0.000 A 
ATOM     14  C   UNL     1       2.392   7.149  18.556  0.00  0.00    +0.000 A 
ATOM     15  C   UNL     1       2.266   8.139  17.571  0.00  0.00    +0.000 A 
ATOM     16  C   UNL     1       1.768   9.409  17.892  0.00  0.00    +0.000 A 
BRANCH  11  17
ATOM     17  O   UNL     1       0.955  10.959  19.476  0.00  0.00    +0.000 OA
ATOM     18  H   UNL     1       0.801  11.034  20.433  0.00  0.00    +0.000 HD
ENDBRANCH  11  17
ENDBRANCH   1  14
BRANCH   1  19
ATOM     19  C   UNL     1       2.684   4.611  18.801  0.00  0.00    +0.000 A 
ATOM     20  C   UNL     1       3.295   4.048  19.932  0.00  0.00    +0.000 A 
ATOM     21  C   UNL     1       3.246   2.668  20.131  0.00  0.00    +0.000 A 
ATOM     22  C   UNL     1       2.569   1.856  19.222  0.00  0.00    +0.000 A 
ATOM     23  C   UNL     1       1.865   2.424  18.159  0.00  0.00    +0.000 A 
ATOM     24  C   UNL     1       1.896   3.807  17.956  0.00  0.00    +0.000 A 
ENDBRANCH   1  19
TORSDOF 3
ENDMDL
MODEL 8
REMARK VINA RESULT:      -8.8      1.226      4.769
REMARK  Name = 
REMARK  3 active torsions:
REMARK  status: ('A' for Active; 'I' for Inactive)
REMARK    1  A    between atoms: O_1  and  C_2
REMARK    2  A    between atoms: C_5  and  C_6
REMARK    3  A    between atoms: C_6  and  C_16
REMARK                            x       y       z     vdW  Elec       q    Type
REMARK                         _______ _______ _______ _____ _____    ______ ____
ROOT
ATOM      1  C   UNL     1       3.159   5.475  18.779  0.00  0.00    +0.000 C 
ATOM      2  C   UNL     1       2.693   4.273  19.233  0.00  0.00    +0.000 C 
ATOM      3  C   UNL     1       3.494   2.972  19.106  0.00  0.00    +0.000 C 
ATOM      4  C   UNL     1       2.766   1.973  18.201  0.00  0.00    +0.000 C 
ATOM      5  C   UNL     1       1.286   1.777  18.466  0.00  0.00    +0.000 C 
ATOM      6  C   UNL     1       0.542   2.952  19.104  0.00  0.00    +0.000 C 
ATOM      7  C   UNL     1       1.381   3.949  19.931  0.00  0.00    +0.000 C 
ATOM      8  C   UNL     1       1.638   3.402  21.353  0.00  0.00    +0.000 C 
ATOM      9  C   UNL     1       2.826   2.456  21.548  0.00  0.00    +0.000 C 
ATOM     10  C   UNL     1       3.917   2.505  20.494  0.00  0.00    +0.000 C 
ENDROOT
BRANCH   1  14
ATOM     11  C   UNL     1       1.602   9.455  19.066  0.00  0.00    +0.000 A 
ATOM     12  C   UNL     1       1.542   8.615  20.169  0.00  0.00    +0.000 A 
ATOM     13  C   UNL     1       1.967   7.282  20.050  0.00  0.00    +0.000 A 
ATOM     14  C   UNL     1       2.450   6.783  18.830  0.00  0.00    +0.000 A 
ATOM     15  C   UNL     1       2.469   7.641  17.721  0.00  0.00    +0.000 A 
ATOM     16  C   UNL     1       2.050   8.973  17.840  0.00  0.00    +0.000 A 
BRANCH  11  17
ATOM     17  O   UNL     1       1.252  10.770  19.146  0.00  0.00    +0.000 OA
ATOM     18  H   UNL     1       0.492  10.855  19.747  0.00  0.00    +0.000 HD
ENDBRANCH  11  17
ENDBRANCH   1  14
BRANCH   1  19
ATOM     19  C   UNL     1       4.508   5.409  18.153  0.00  0.00    +0.000 A 
ATOM     20  C   UNL     1       5.639   5.676  18.941  0.00  0.00    +0.000 A 
ATOM     21  C   UNL     1       6.810   6.134  18.338  0.00  0.00    +0.000 A 
ATOM     22  C   UNL     1       6.864   6.299  16.954  0.00  0.00    +0.000 A 
ATOM     23  C   UNL     1       5.781   5.927  16.158  0.00  0.00    +0.000 A 
ATOM     24  C   UNL     1       4.604   5.455  16.749  0.00  0.00    +0.000 A 
ENDBRANCH   1  19
TORSDOF 3
ENDMDL
MODEL 9
REMARK VINA RESULT:      -8.2      2.454      5.471
REMARK  Name = 
REMARK  3 active torsions:
REMARK  status: ('A' for Active; 'I' for Inactive)
REMARK    1  A    between atoms: O_1  and  C_2
REMARK    2  A    between atoms: C_5  and  C_6
REMARK    3  A    between atoms: C_6  and  C_16
REMARK                            x       y       z     vdW  Elec       q    Type
REMARK                         _______ _______ _______ _____ _____    ______ ____
ROOT
ATOM      1  C   UNL     1       3.166   5.428  18.294  0.00  0.00    +0.000 C 
ATOM      2  C   UNL     1       2.802   4.270  18.924  0.00  0.00    +0.000 C 
ATOM      3  C   UNL     1       1.605   4.188  19.878  0.00  0.00    +0.000 C 
ATOM      4  C   UNL     1       2.068   3.837  21.297  0.00  0.00    +0.000 C 
ATOM      5  C   UNL     1       3.053   2.691  21.422  0.00  0.00    +0.000 C 
ATOM      6  C   UNL     1       3.948   2.422  20.211  0.00  0.00    +0.000 C 
ATOM      7  C   UNL     1       3.426   2.887  18.834  0.00  0.00    +0.000 C 
ATOM      8  C   UNL     1       2.420   1.867  18.257  0.00  0.00    +0.000 C 
ATOM      9  C   UNL     1       0.957   1.985  18.694  0.00  0.00    +0.000 C 
ATOM     10  C   UNL     1       0.517   3.327  19.248  0.00  0.00    +0.000 C 
ENDROOT
BRANCH   1  14
ATOM     11  C   UNL     1       6.705   5.529  15.884  0.00  0.00    +0.000 A 
ATOM     12  C   UNL     1       6.657   6.262  17.062  0.00  0.00    +0.000 A 
ATOM     13  C   UNL     1       5.467   6.304  17.805  0.00  0.00    +0.000 A 
ATOM     14  C   UNL     1       4.321   5.617  17.374  0.00  0.00    +0.000 A 
ATOM     15  C   UNL     1       4.383   4.911  16.164  0.00  0.00    +0.000 A 
ATOM     16  C   UNL     1       5.573   4.864  15.424  0.00  0.00    +0.000 A 
BRANCH  11  17
ATOM     17  O   UNL     1       7.853   5.413  15.157  0.00  0.00    +0.000 OA
ATOM     18  H   UNL     1       7.710   4.761  14.451  0.00  0.00    +0.000 HD
ENDBRANCH  11  17
ENDBRANCH   1  14
BRANCH   1  19
ATOM     19  C   UNL     1       2.301   6.596  18.618  0.00  0.00    +0.000 A 
ATOM     20  C   UNL     1       1.993   7.517  17.605  0.00  0.00    +0.000 A 
ATOM     21  C   UNL     1       1.663   8.830  17.939  0.00  0.00    +0.000 A 
ATOM     22  C   UNL     1       1.615   9.217  19.278  0.00  0.00    +0.000 A 
ATOM     23  C   UNL     1       1.809   8.277  20.291  0.00  0.00    +0.000 A 
ATOM     24  C   UNL     1       2.128   6.954  19.968  0.00  0.00    +0.000 A 
ENDBRANCH   1  19
TORSDOF 3
ENDMDL
