MODEL 1
REMARK VINA RESULT:      -6.4      0.000      0.000
REMARK  Name = 
REMARK  6 active torsions:
REMARK  status: ('A' for Active; 'I' for Inactive)
REMARK    1  A    between atoms: O_1  and  C_2
REMARK    2  A    between atoms: C_2  and  C_3
REMARK    3  A    between atoms: C_3  and  S_4
REMARK    4  A    between atoms: S_4  and  C_5
REMARK    5  A    between atoms: C_6  and  O_7
REMARK    6  A    between atoms: C_15  and  O_16
REMARK                            x       y       z     vdW  Elec       q    Type
REMARK                         _______ _______ _______ _____ _____    ______ ____
ROOT
ATOM      1  C   UNL     1       4.885   5.395  18.071  0.00  0.00    +0.000 A 
ATOM      2  C   UNL     1       5.564   4.304  18.602  0.00  0.00    +0.000 A 
ATOM      3  N   UNL     1       5.027   3.404  19.440  0.00  0.00    +0.000 NA
ATOM      4  C   UNL     1       3.739   3.552  19.783  0.00  0.00    +0.000 A 
ATOM      5  C   UNL     1       3.202   2.633  20.675  0.00  0.00    +0.000 A 
ATOM      6  C   UNL     1       1.878   2.713  21.109  0.00  0.00    +0.000 A 
ATOM      7  C   UNL     1       1.059   3.723  20.630  0.00  0.00    +0.000 A 
ATOM      8  C   UNL     1       1.570   4.658  19.730  0.00  0.00    +0.000 A 
ATOM      9  C   UNL     1       2.923   4.602  19.304  0.00  0.00    +0.000 A 
ATOM     10  C   UNL     1       3.542   5.533  18.435  0.00  0.00    +0.000 A 
ENDROOT
BRANCH   2  11
ATOM     11  O   UNL     1       6.902   4.118  18.371  0.00  0.00    +0.000 OA
ATOM     12  H   UNL     1       7.246   3.603  19.128  0.00  0.00    +0.000 HD
ENDBRANCH   2  11
BRANCH  10  13
ATOM     13  O   UNL     1       2.867   6.627  17.942  0.00  0.00    +0.000 OA
ATOM     14  H   UNL     1       2.323   6.382  17.181  0.00  0.00    +0.000 HD
ENDBRANCH  10  13
BRANCH   1  15
ATOM     15  S   UNL     1       5.731   6.583  17.041  0.00  0.00    +0.000 S 
BRANCH  15  16
ATOM     16  C   UNL     1       5.386   5.842  15.399  0.00  0.00    +0.000 C 
BRANCH  16  17
ATOM     17  C   UNL     1       6.452   4.847  14.938  0.00  0.00    +0.000 C 
BRANCH  17  18
ATOM     18  O   UNL     1       7.633   4.977  15.727  0.00  0.00    +0.000 OA
ATOM     19  H   UNL     1       8.353   4.543  15.235  0.00  0.00    +0.000 HD
ENDBRANCH  17  18
ENDBRANCH  16  17
ENDBRANCH  15  16
ENDBRANCH   1  15
TORSDOF 6
ENDMDL
MODEL 2
REMARK VINA RESULT:      -6.2      2.736      5.547
REMARK  Name = 
REMARK  6 active torsions:
REMARK  status: ('A' for Active; 'I' for Inactive)
REMARK    1  A    between atoms: O_1  and  C_2
REMARK    2  A    between atoms: C_2  and  C_3
REMARK    3  A    between atoms: C_3  and  S_4
REMARK    4  A    between atoms: S_4  and  C_5
REMARK    5  A    between atoms: C_6  and  O_7
REMARK    6  A    between atoms: C_15  and  O_16
REMARK                            x       y       z     vdW  Elec       q    Type
REMARK                         _______ _______ _______ _____ _____    ______ ____
ROOT
ATOM      1  C   UNL     1       3.189   3.405  18.552  0.00  0.00    +0.000 A 
ATOM      2  C   UNL     1       2.658   4.397  17.735  0.00  0.00    +0.000 A 
ATOM      3  N   UNL     1       3.340   5.458  17.280  0.00  0.00    +0.000 NA
ATOM      4  C   UNL     1       4.633   5.570  17.621  0.00  0.00    +0.000 A 
ATOM      5  C   UNL     1       5.322   6.688  17.170  0.00  0.00    +0.000 A 
ATOM      6  C   UNL     1       6.663   6.905  17.486  0.00  0.00    +0.000 A 
ATOM      7  C   UNL     1       7.346   5.977  18.257  0.00  0.00    +0.000 A 
ATOM      8  C   UNL     1       6.680   4.843  18.720  0.00  0.00    +0.000 A 
ATOM      9  C   UNL     1       5.308   4.626  18.428  0.00  0.00    +0.000 A 
ATOM     10  C   UNL     1       4.539   3.532  18.894  0.00  0.00    +0.000 A 
ENDROOT
BRANCH   2  11
ATOM     11  O   UNL     1       1.328   4.408  17.403  0.00  0.00    +0.000 OA
ATOM     12  H   UNL     1       0.884   3.784  18.011  0.00  0.00    +0.000 HD
ENDBRANCH   2  11
BRANCH  10  13
ATOM     13  O   UNL     1       5.068   2.574  19.728  0.00  0.00    +0.000 OA
ATOM     14  H   UNL     1       5.520   1.887  19.220  0.00  0.00    +0.000 HD
ENDBRANCH  10  13
BRANCH   1  15
ATOM     15  S   UNL     1       2.157   2.087  19.176  0.00  0.00    +0.000 S 
BRANCH  15  16
ATOM     16  C   UNL     1       1.217   3.028  20.439  0.00  0.00    +0.000 C 
BRANCH  16  17
ATOM     17  C   UNL     1       2.051   3.418  21.661  0.00  0.00    +0.000 C 
BRANCH  17  18
ATOM     18  O   UNL     1       2.984   2.387  21.980  0.00  0.00    +0.000 OA
ATOM     19  H   UNL     1       2.725   1.601  21.467  0.00  0.00    +0.000 HD
ENDBRANCH  17  18
ENDBRANCH  16  17
ENDBRANCH  15  16
ENDBRANCH   1  15
TORSDOF 6
ENDMDL
MODEL 3
REMARK VINA RESULT:      -6.2      1.216      2.448
REMARK  Name = 
REMARK  6 active torsions:
REMARK  status: ('A' for Active; 'I' for Inactive)
REMARK    1  A    between atoms: O_1  and  C_2
REMARK    2  A    between atoms: C_2  and  C_3
REMARK    3  A    between atoms: C_3  and  S_4
REMARK    4  A    between atoms: S_4  and  C_5
REMARK    5  A    between atoms: C_6  and  O_7
REMARK    6  A    between atoms: C_15  and  O_16
REMARK                            x       y       z     vdW  Elec       q    Type
REMARK                         _______ _______ _______ _____ _____    ______ ____
ROOT
ATOM      1  C   UNL     1       4.673   5.836  18.238  0.00  0.00    +0.000 A 
ATOM      2  C   UNL     1       3.478   6.543  18.326  0.00  0.00    +0.000 A 
ATOM      3  N   UNL     1       2.388   6.122  18.985  0.00  0.00    +0.000 NA
ATOM      4  C   UNL     1       2.452   4.941  19.619  0.00  0.00    +0.000 A 
ATOM      5  C   UNL     1       1.308   4.500  20.272  0.00  0.00    +0.000 A 
ATOM      6  C   UNL     1       1.267   3.278  20.943  0.00  0.00    +0.000 A 
ATOM      7  C   UNL     1       2.398   2.478  20.983  0.00  0.00    +0.000 A 
ATOM      8  C   UNL     1       3.562   2.897  20.340  0.00  0.00    +0.000 A 
ATOM      9  C   UNL     1       3.607   4.126  19.630  0.00  0.00    +0.000 A 
ATOM     10  C   UNL     1       4.725   4.610  18.908  0.00  0.00    +0.000 A 
ENDROOT
BRANCH   2  11
ATOM     11  O   UNL     1       3.295   7.718  17.645  0.00  0.00    +0.000 OA
ATOM     12  H   UNL     1       2.655   7.529  16.931  0.00  0.00    +0.000 HD
ENDBRANCH   2  11
BRANCH  10  13
ATOM     13  O   UNL     1       5.890   3.885  18.801  0.00  0.00    +0.000 OA
ATOM     14  H   UNL     1       6.662   4.455  18.916  0.00  0.00    +0.000 HD
ENDBRANCH  10  13
BRANCH   1  15
ATOM     15  S   UNL     1       6.027   6.453  17.251  0.00  0.00    +0.000 S 
BRANCH  15  16
ATOM     16  C   UNL     1       5.755   5.461  15.731  0.00  0.00    +0.000 C 
BRANCH  16  17
ATOM     17  C   UNL     1       6.915   4.522  15.396  0.00  0.00    +0.000 C 
BRANCH  17  18
ATOM     18  O   UNL     1       7.818   4.428  16.497  0.00  0.00    +0.000 OA
ATOM     19  H   UNL     1       7.918   3.481  16.701  0.00  0.00    +0.000 HD
ENDBRANCH  17  18
ENDBRANCH  16  17
ENDBRANCH  15  16
ENDBRANCH   1  15
TORSDOF 6
ENDMDL
MODEL 4
REMARK VINA RESULT:      -6.2      2.563      5.161
REMARK  Name = 
REMARK  6 active torsions:
REMARK  status: ('A' for Active; 'I' for Inactive)
REMARK    1  A    between atoms: O_1  and  C_2
REMARK    2  A    between atoms: C_2  and  C_3
REMARK    3  A    between atoms: C_3  and  S_4
REMARK    4  A    between atoms: S_4  and  C_5
REMARK    5  A    between atoms: C_6  and  O_7
REMARK    6  A    between atoms: C_15  and  O_16
REMARK                            x       y       z     vdW  Elec       q    Type
REMARK                         _______ _______ _______ _____ _____    ______ ____
ROOT
ATOM      1  C   UNL     1       3.363   3.865  18.744  0.00  0.00    +0.000 A 
ATOM      2  C   UNL     1       4.504   3.220  19.210  0.00  0.00    +0.000 A 
ATOM      3  N   UNL     1       5.753   3.697  19.094  0.00  0.00    +0.000 NA
ATOM      4  C   UNL     1       5.919   4.889  18.501  0.00  0.00    +0.000 A 
ATOM      5  C   UNL     1       7.218   5.359  18.358  0.00  0.00    +0.000 A 
ATOM      6  C   UNL     1       7.498   6.577  17.738  0.00  0.00    +0.000 A 
ATOM      7  C   UNL     1       6.457   7.360  17.262  0.00  0.00    +0.000 A 
ATOM      8  C   UNL     1       5.143   6.914  17.395  0.00  0.00    +0.000 A 
ATOM      9  C   UNL     1       4.849   5.664  17.999  0.00  0.00    +0.000 A 
ATOM     10  C   UNL     1       3.553   5.108  18.133  0.00  0.00    +0.000 A 
ENDROOT
BRANCH   2  11
ATOM     11  O   UNL     1       4.438   1.964  19.756  0.00  0.00    +0.000 OA
ATOM     12  H   UNL     1       5.353   1.720  20.000  0.00  0.00    +0.000 HD
ENDBRANCH   2  11
BRANCH  10  13
ATOM     13  O   UNL     1       2.436   5.742  17.639  0.00  0.00    +0.000 OA
ATOM     14  H   UNL     1       2.684   6.499  17.091  0.00  0.00    +0.000 HD
ENDBRANCH  10  13
BRANCH   1  15
ATOM     15  S   UNL     1       1.761   3.087  18.869  0.00  0.00    +0.000 S 
BRANCH  15  16
ATOM     16  C   UNL     1       1.262   3.713  20.520  0.00  0.00    +0.000 C 
BRANCH  16  17
ATOM     17  C   UNL     1       1.364   2.665  21.630  0.00  0.00    +0.000 C 
BRANCH  17  18
ATOM     18  O   UNL     1       2.710   2.552  22.090  0.00  0.00    +0.000 OA
ATOM     19  H   UNL     1       2.971   3.430  22.421  0.00  0.00    +0.000 HD
ENDBRANCH  17  18
ENDBRANCH  16  17
ENDBRANCH  15  16
ENDBRANCH   1  15
TORSDOF 6
ENDMDL
MODEL 5
REMARK VINA RESULT:      -6.2      1.514      1.667
REMARK  Name = 
REMARK  6 active torsions:
REMARK  status: ('A' for Active; 'I' for Inactive)
REMARK    1  A    between atoms: O_1  and  C_2
REMARK    2  A    between atoms: C_2  and  C_3
REMARK    3  A    between atoms: C_3  and  S_4
REMARK    4  A    between atoms: S_4  and  C_5
REMARK    5  A    between atoms: C_6  and  O_7
REMARK    6  A    between atoms: C_15  and  O_16
REMARK                            x       y       z     vdW  Elec       q    Type
REMARK                         _______ _______ _______ _____ _____    ______ ____
ROOT
ATOM      1  C   UNL     1       4.467   5.029  17.176  0.00  0.00    +0.000 A 
ATOM      2  C   UNL     1       4.570   3.646  17.072  0.00  0.00    +0.000 A 
ATOM      3  N   UNL     1       3.844   2.770  17.783  0.00  0.00    +0.000 NA
ATOM      4  C   UNL     1       2.942   3.256  18.650  0.00  0.00    +0.000 A 
ATOM      5  C   UNL     1       2.219   2.342  19.404  0.00  0.00    +0.000 A 
ATOM      6  C   UNL     1       1.272   2.746  20.345  0.00  0.00    +0.000 A 
ATOM      7  C   UNL     1       1.023   4.097  20.531  0.00  0.00    +0.000 A 
ATOM      8  C   UNL     1       1.732   5.038  19.784  0.00  0.00    +0.000 A 
ATOM      9  C   UNL     1       2.717   4.638  18.844  0.00  0.00    +0.000 A 
ATOM     10  C   UNL     1       3.519   5.520  18.079  0.00  0.00    +0.000 A 
ENDROOT
BRANCH   2  11
ATOM     11  O   UNL     1       5.518   3.061  16.273  0.00  0.00    +0.000 OA
ATOM     12  H   UNL     1       5.044   2.432  15.694  0.00  0.00    +0.000 HD
ENDBRANCH   2  11
BRANCH  10  13
ATOM     13  O   UNL     1       3.429   6.886  18.215  0.00  0.00    +0.000 OA
ATOM     14  H   UNL     1       2.819   7.122  18.927  0.00  0.00    +0.000 HD
ENDBRANCH  10  13
BRANCH   1  15
ATOM     15  S   UNL     1       5.554   6.097  16.245  0.00  0.00    +0.000 S 
BRANCH  15  16
ATOM     16  C   UNL     1       6.772   6.489  17.560  0.00  0.00    +0.000 C 
BRANCH  16  17
ATOM     17  C   UNL     1       7.564   5.274  18.044  0.00  0.00    +0.000 C 
BRANCH  17  18
ATOM     18  O   UNL     1       7.973   4.469  16.939  0.00  0.00    +0.000 OA
ATOM     19  H   UNL     1       8.942   4.386  16.992  0.00  0.00    +0.000 HD
ENDBRANCH  17  18
ENDBRANCH  16  17
ENDBRANCH  15  16
ENDBRANCH   1  15
TORSDOF 6
ENDMDL
MODEL 6
REMARK VINA RESULT:      -6.1      2.644      5.404
REMARK  Name = 
REMARK  6 active torsions:
REMARK  status: ('A' for Active; 'I' for Inactive)
REMARK    1  A    between atoms: O_1  and  C_2
REMARK    2  A    between atoms: C_2  and  C_3
REMARK    3  A    between atoms: C_3  and  S_4
REMARK    4  A    between atoms: S_4  and  C_5
REMARK    5  A    between atoms: C_6  and  O_7
REMARK    6  A    between atoms: C_15  and  O_16
REMARK                            x       y       z     vdW  Elec       q    Type
REMARK                         _______ _______ _______ _____ _____    ______ ____
ROOT
ATOM      1  C   UNL     1       3.443   4.007  19.491  0.00  0.00    +0.000 A 
ATOM      2  C   UNL     1       3.265   5.384  19.555  0.00  0.00    +0.000 A 
ATOM      3  N   UNL     1       3.674   6.253  18.618  0.00  0.00    +0.000 NA
ATOM      4  C   UNL     1       4.287   5.762  17.529  0.00  0.00    +0.000 A 
ATOM      5  C   UNL     1       4.734   6.671  16.580  0.00  0.00    +0.000 A 
ATOM      6  C   UNL     1       5.401   6.263  15.424  0.00  0.00    +0.000 A 
ATOM      7  C   UNL     1       5.612   4.912  15.195  0.00  0.00    +0.000 A 
ATOM      8  C   UNL     1       5.171   3.977  16.129  0.00  0.00    +0.000 A 
ATOM      9  C   UNL     1       4.517   4.383  17.322  0.00  0.00    +0.000 A 
ATOM     10  C   UNL     1       4.078   3.511  18.348  0.00  0.00    +0.000 A 
ENDROOT
BRANCH   2  11
ATOM     11  O   UNL     1       2.722   5.981  20.664  0.00  0.00    +0.000 OA
ATOM     12  H   UNL     1       3.470   6.217  21.247  0.00  0.00    +0.000 HD
ENDBRANCH   2  11
BRANCH  10  13
ATOM     13  O   UNL     1       4.289   2.152  18.287  0.00  0.00    +0.000 OA
ATOM     14  H   UNL     1       5.206   1.936  18.506  0.00  0.00    +0.000 HD
ENDBRANCH  10  13
BRANCH   1  15
ATOM     15  S   UNL     1       2.940   2.958  20.846  0.00  0.00    +0.000 S 
BRANCH  15  16
ATOM     16  C   UNL     1       1.135   2.914  20.526  0.00  0.00    +0.000 C 
BRANCH  16  17
ATOM     17  C   UNL     1       0.777   2.660  19.061  0.00  0.00    +0.000 C 
BRANCH  17  18
ATOM     18  O   UNL     1       1.342   1.429  18.614  0.00  0.00    +0.000 OA
ATOM     19  H   UNL     1       1.503   0.886  19.406  0.00  0.00    +0.000 HD
ENDBRANCH  17  18
ENDBRANCH  16  17
ENDBRANCH  15  16
ENDBRANCH   1  15
TORSDOF 6
ENDMDL
MODEL 7
REMARK VINA RESULT:      -6.1      1.693      2.630
REMARK  Name = 
REMARK  6 active torsions:
REMARK  status: ('A' for Active; 'I' for Inactive)
REMARK    1  A    between atoms: O_1  and  C_2
REMARK    2  A    between atoms: C_2  and  C_3
REMARK    3  A    between atoms: C_3  and  S_4
REMARK    4  A    between atoms: S_4  and  C_5
REMARK    5  A    between atoms: C_6  and  O_7
REMARK    6  A    between atoms: C_15  and  O_16
REMARK                            x       y       z     vdW  Elec       q    Type
REMARK                         _______ _______ _______ _____ _____    ______ ____
ROOT
ATOM      1  C   UNL     1       4.358   5.411  17.416  0.00  0.00    +0.000 A 
ATOM      2  C   UNL     1       3.560   6.392  17.994  0.00  0.00    +0.000 A 
ATOM      3  N   UNL     1       2.600   6.159  18.902  0.00  0.00    +0.000 NA
ATOM      4  C   UNL     1       2.399   4.893  19.296  0.00  0.00    +0.000 A 
ATOM      5  C   UNL     1       1.381   4.659  20.212  0.00  0.00    +0.000 A 
ATOM      6  C   UNL     1       1.080   3.375  20.669  0.00  0.00    +0.000 A 
ATOM      7  C   UNL     1       1.822   2.295  20.217  0.00  0.00    +0.000 A 
ATOM      8  C   UNL     1       2.852   2.500  19.300  0.00  0.00    +0.000 A 
ATOM      9  C   UNL     1       3.148   3.798  18.808  0.00  0.00    +0.000 A 
ATOM     10  C   UNL     1       4.140   4.096  17.841  0.00  0.00    +0.000 A 
ENDROOT
BRANCH   2  11
ATOM     11  O   UNL     1       3.640   7.701  17.594  0.00  0.00    +0.000 OA
ATOM     12  H   UNL     1       3.276   7.737  16.688  0.00  0.00    +0.000 HD
ENDBRANCH   2  11
BRANCH  10  13
ATOM     13  O   UNL     1       4.900   3.112  17.253  0.00  0.00    +0.000 OA
ATOM     14  H   UNL     1       5.830   3.199  17.504  0.00  0.00    +0.000 HD
ENDBRANCH  10  13
BRANCH   1  15
ATOM     15  S   UNL     1       5.541   5.829  16.146  0.00  0.00    +0.000 S 
BRANCH  15  16
ATOM     16  C   UNL     1       6.935   6.364  17.212  0.00  0.00    +0.000 C 
BRANCH  16  17
ATOM     17  C   UNL     1       7.603   5.215  17.970  0.00  0.00    +0.000 C 
BRANCH  17  18
ATOM     18  O   UNL     1       7.895   4.134  17.087  0.00  0.00    +0.000 OA
ATOM     19  H   UNL     1       7.316   4.237  16.311  0.00  0.00    +0.000 HD
ENDBRANCH  17  18
ENDBRANCH  16  17
ENDBRANCH  15  16
ENDBRANCH   1  15
TORSDOF 6
ENDMDL
MODEL 8
REMARK VINA RESULT:      -6.0      1.887      3.001
REMARK  Name = 
REMARK  6 active torsions:
REMARK  status: ('A' for Active; 'I' for Inactive)
REMARK    1  A    between atoms: O_1  and  C_2
REMARK    2  A    between atoms: C_2  and  C_3
REMARK    3  A    between atoms: C_3  and  S_4
REMARK    4  A    between atoms: S_4  and  C_5
REMARK    5  A    between atoms: C_6  and  O_7
REMARK    6  A    between atoms: C_15  and  O_16
REMARK                            x       y       z     vdW  Elec       q    Type
REMARK                         _______ _______ _______ _____ _____    ______ ____
ROOT
ATOM      1  C   UNL     1       4.743   5.453  18.117  0.00  0.00    +0.000 A 
ATOM      2  C   UNL     1       3.641   6.296  18.213  0.00  0.00    +0.000 A 
ATOM      3  N   UNL     1       2.545   6.041  18.945  0.00  0.00    +0.000 NA
ATOM      4  C   UNL     1       2.510   4.900  19.649  0.00  0.00    +0.000 A 
ATOM      5  C   UNL     1       1.359   4.631  20.378  0.00  0.00    +0.000 A 
ATOM      6  C   UNL     1       1.216   3.463  21.127  0.00  0.00    +0.000 A 
ATOM      7  C   UNL     1       2.252   2.543  21.169  0.00  0.00    +0.000 A 
ATOM      8  C   UNL     1       3.421   2.788  20.449  0.00  0.00    +0.000 A 
ATOM      9  C   UNL     1       3.566   3.961  19.662  0.00  0.00    +0.000 A 
ATOM     10  C   UNL     1       4.692   4.270  18.861  0.00  0.00    +0.000 A 
ENDROOT
BRANCH   2  11
ATOM     11  O   UNL     1       3.555   7.443  17.467  0.00  0.00    +0.000 OA
ATOM     12  H   UNL     1       4.459   7.635  17.148  0.00  0.00    +0.000 HD
ENDBRANCH   2  11
BRANCH  10  13
ATOM     13  O   UNL     1       5.763   3.412  18.750  0.00  0.00    +0.000 OA
ATOM     14  H   UNL     1       6.438   3.617  19.411  0.00  0.00    +0.000 HD
ENDBRANCH  10  13
BRANCH   1  15
ATOM     15  S   UNL     1       6.105   5.853  17.034  0.00  0.00    +0.000 S 
BRANCH  15  16
ATOM     16  C   UNL     1       7.216   6.661  18.250  0.00  0.00    +0.000 C 
BRANCH  16  17
ATOM     17  C   UNL     1       8.144   5.685  18.977  0.00  0.00    +0.000 C 
BRANCH  17  18
ATOM     18  O   UNL     1       7.701   5.476  20.316  0.00  0.00    +0.000 OA
ATOM     19  H   UNL     1       7.288   6.307  20.612  0.00  0.00    +0.000 HD
ENDBRANCH  17  18
ENDBRANCH  16  17
ENDBRANCH  15  16
ENDBRANCH   1  15
TORSDOF 6
ENDMDL
MODEL 9
REMARK VINA RESULT:      -5.9      2.289      3.047
REMARK  Name = 
REMARK  6 active torsions:
REMARK  status: ('A' for Active; 'I' for Inactive)
REMARK    1  A    between atoms: O_1  and  C_2
REMARK    2  A    between atoms: C_2  and  C_3
REMARK    3  A    between atoms: C_3  and  S_4
REMARK    4  A    between atoms: S_4  and  C_5
REMARK    5  A    between atoms: C_6  and  O_7
REMARK    6  A    between atoms: C_15  and  O_16
REMARK                            x       y       z     vdW  Elec       q    Type
REMARK                         _______ _______ _______ _____ _____    ______ ____
ROOT
ATOM      1  C   UNL     1       5.541   5.140  17.576  0.00  0.00    +0.000 A 
ATOM      2  C   UNL     1       5.040   4.559  18.735  0.00  0.00    +0.000 A 
ATOM      3  N   UNL     1       4.023   5.052  19.459  0.00  0.00    +0.000 NA
ATOM      4  C   UNL     1       3.433   6.179  19.031  0.00  0.00    +0.000 A 
ATOM      5  C   UNL     1       2.403   6.698  19.804  0.00  0.00    +0.000 A 
ATOM      6  C   UNL     1       1.740   7.875  19.456  0.00  0.00    +0.000 A 
ATOM      7  C   UNL     1       2.097   8.546  18.297  0.00  0.00    +0.000 A 
ATOM      8  C   UNL     1       3.126   8.047  17.499  0.00  0.00    +0.000 A 
ATOM      9  C   UNL     1       3.826   6.865  17.859  0.00  0.00    +0.000 A 
ATOM     10  C   UNL     1       4.913   6.311  17.140  0.00  0.00    +0.000 A 
ENDROOT
BRANCH   2  11
ATOM     11  O   UNL     1       5.630   3.453  19.290  0.00  0.00    +0.000 OA
ATOM     12  H   UNL     1       6.575   3.673  19.409  0.00  0.00    +0.000 HD
ENDBRANCH   2  11
BRANCH  10  13
ATOM     13  O   UNL     1       5.420   6.914  16.012  0.00  0.00    +0.000 OA
ATOM     14  H   UNL     1       5.040   7.795  15.892  0.00  0.00    +0.000 HD
ENDBRANCH  10  13
BRANCH   1  15
ATOM     15  S   UNL     1       6.962   4.445  16.748  0.00  0.00    +0.000 S 
BRANCH  15  16
ATOM     16  C   UNL     1       6.137   3.806  15.239  0.00  0.00    +0.000 C 
BRANCH  16  17
ATOM     17  C   UNL     1       6.700   4.385  13.940  0.00  0.00    +0.000 C 
BRANCH  17  18
ATOM     18  O   UNL     1       7.552   5.497  14.214  0.00  0.00    +0.000 OA
ATOM     19  H   UNL     1       7.090   6.293  13.897  0.00  0.00    +0.000 HD
ENDBRANCH  17  18
ENDBRANCH  16  17
ENDBRANCH  15  16
ENDBRANCH   1  15
TORSDOF 6
ENDMDL
