MODEL 1
REMARK VINA RESULT:      -7.6      0.000      0.000
REMARK  Name = 
REMARK  5 active torsions:
REMARK  status: ('A' for Active; 'I' for Inactive)
REMARK    1  A    between atoms: C_2  and  C_4
REMARK    2  A    between atoms: C_6  and  C_7
REMARK    3  A    between atoms: C_8  and  C_9
REMARK    4  A    between atoms: C_12  and  O_13
REMARK    5  A    between atoms: C_18  and  O_19
REMARK                            x       y       z     vdW  Elec       q    Type
REMARK                         _______ _______ _______ _____ _____    ______ ____
ROOT
ATOM      1  C   UNL     1      10.663  12.475  18.327  0.00  0.00    +0.000 A 
ATOM      2  C   UNL     1       9.877  11.394  17.894  0.00  0.00    +0.000 A 
ATOM      3  C   UNL     1       9.224  10.550  18.806  0.00  0.00    +0.000 A 
ATOM      4  C   UNL     1       9.393  10.787  20.174  0.00  0.00    +0.000 A 
ATOM      5  C   UNL     1      10.164  11.863  20.624  0.00  0.00    +0.000 A 
ATOM      6  C   UNL     1      10.790  12.708  19.704  0.00  0.00    +0.000 A 
ENDROOT
BRANCH   1   8
ATOM      7  N   UNL     1      12.320  12.720  16.540  0.00  0.00    +0.000 N 
ATOM      8  C   UNL     1      11.319  13.297  17.264  0.00  0.00    +0.000 C 
ATOM      9  O   UNL     1      10.976  14.451  17.037  0.00  0.00    +0.000 OA
ATOM     10  H   UNL     1      12.760  13.251  15.804  0.00  0.00    +0.000 HD
ATOM     11  H   UNL     1      12.590  11.756  16.706  0.00  0.00    +0.000 HD
ENDBRANCH   1   8
BRANCH   3  12
ATOM     12  C   UNL     1       8.459   9.408  18.284  0.00  0.00    +0.000 C 
ATOM     13  C   UNL     1       8.582   8.136  18.699  0.00  0.00    +0.000 C 
BRANCH  13  14
ATOM     14  C   UNL     1       7.795   7.018  18.150  0.00  0.00    +0.000 A 
ATOM     15  C   UNL     1       7.073   7.127  16.952  0.00  0.00    +0.000 A 
ATOM     16  C   UNL     1       6.344   6.043  16.453  0.00  0.00    +0.000 A 
ATOM     17  C   UNL     1       6.351   4.839  17.144  0.00  0.00    +0.000 A 
ATOM     18  C   UNL     1       7.082   4.699  18.317  0.00  0.00    +0.000 A 
ATOM     19  C   UNL     1       7.805   5.785  18.817  0.00  0.00    +0.000 A 
BRANCH  17  20
ATOM     20  O   UNL     1       5.648   3.760  16.698  0.00  0.00    +0.000 OA
ATOM     21  H   UNL     1       4.797   3.731  17.166  0.00  0.00    +0.000 HD
ENDBRANCH  17  20
ENDBRANCH  13  14
ENDBRANCH   3  12
BRANCH   6  22
ATOM     22  O   UNL     1      11.532  13.758  20.182  0.00  0.00    +0.000 OA
ATOM     23  H   UNL     1      10.973  14.555  20.199  0.00  0.00    +0.000 HD
ENDBRANCH   6  22
TORSDOF 5
ENDMDL
MODEL 2
REMARK VINA RESULT:      -7.4      2.723      7.931
REMARK  Name = 
REMARK  5 active torsions:
REMARK  status: ('A' for Active; 'I' for Inactive)
REMARK    1  A    between atoms: C_2  and  C_4
REMARK    2  A    between atoms: C_6  and  C_7
REMARK    3  A    between atoms: C_8  and  C_9
REMARK    4  A    between atoms: C_12  and  O_13
REMARK    5  A    between atoms: C_18  and  O_19
REMARK                            x       y       z     vdW  Elec       q    Type
REMARK                         _______ _______ _______ _____ _____    ______ ____
ROOT
ATOM      1  C   UNL     1       6.621   6.094  16.966  0.00  0.00    +0.000 A 
ATOM      2  C   UNL     1       7.159   7.391  17.009  0.00  0.00    +0.000 A 
ATOM      3  C   UNL     1       7.996   7.803  18.057  0.00  0.00    +0.000 A 
ATOM      4  C   UNL     1       8.269   6.900  19.089  0.00  0.00    +0.000 A 
ATOM      5  C   UNL     1       7.751   5.602  19.059  0.00  0.00    +0.000 A 
ATOM      6  C   UNL     1       6.936   5.198  17.999  0.00  0.00    +0.000 A 
ENDROOT
BRANCH   1   8
ATOM      7  N   UNL     1       5.670   4.475  15.393  0.00  0.00    +0.000 N 
ATOM      8  C   UNL     1       5.733   5.772  15.807  0.00  0.00    +0.000 C 
ATOM      9  O   UNL     1       5.072   6.635  15.241  0.00  0.00    +0.000 OA
ATOM     10  H   UNL     1       5.059   4.234  14.627  0.00  0.00    +0.000 HD
ATOM     11  H   UNL     1       6.194   3.751  15.875  0.00  0.00    +0.000 HD
ENDBRANCH   1   8
BRANCH   3  12
ATOM     12  C   UNL     1       8.483   9.191  18.064  0.00  0.00    +0.000 C 
ATOM     13  C   UNL     1       9.118   9.786  19.088  0.00  0.00    +0.000 C 
BRANCH  13  14
ATOM     14  C   UNL     1       9.591  11.181  19.056  0.00  0.00    +0.000 A 
ATOM     15  C   UNL     1      10.506  11.683  19.994  0.00  0.00    +0.000 A 
ATOM     16  C   UNL     1      10.943  13.009  19.930  0.00  0.00    +0.000 A 
ATOM     17  C   UNL     1      10.478  13.834  18.913  0.00  0.00    +0.000 A 
ATOM     18  C   UNL     1       9.596  13.350  17.956  0.00  0.00    +0.000 A 
ATOM     19  C   UNL     1       9.155  12.025  18.026  0.00  0.00    +0.000 A 
BRANCH  17  20
ATOM     20  O   UNL     1      10.873  15.135  18.818  0.00  0.00    +0.000 OA
ATOM     21  H   UNL     1      11.347  15.252  17.978  0.00  0.00    +0.000 HD
ENDBRANCH  17  20
ENDBRANCH  13  14
ENDBRANCH   3  12
BRANCH   6  22
ATOM     22  O   UNL     1       6.452   3.915  17.999  0.00  0.00    +0.000 OA
ATOM     23  H   UNL     1       5.488   3.942  17.868  0.00  0.00    +0.000 HD
ENDBRANCH   6  22
TORSDOF 5
ENDMDL
MODEL 3
REMARK VINA RESULT:      -7.4      2.377      7.943
REMARK  Name = 
REMARK  5 active torsions:
REMARK  status: ('A' for Active; 'I' for Inactive)
REMARK    1  A    between atoms: C_2  and  C_4
REMARK    2  A    between atoms: C_6  and  C_7
REMARK    3  A    between atoms: C_8  and  C_9
REMARK    4  A    between atoms: C_12  and  O_13
REMARK    5  A    between atoms: C_18  and  O_19
REMARK                            x       y       z     vdW  Elec       q    Type
REMARK                         _______ _______ _______ _____ _____    ______ ____
ROOT
ATOM      1  C   UNL     1       6.769   5.025  16.185  0.00  0.00    +0.000 A 
ATOM      2  C   UNL     1       7.474   6.151  16.641  0.00  0.00    +0.000 A 
ATOM      3  C   UNL     1       7.454   6.531  17.992  0.00  0.00    +0.000 A 
ATOM      4  C   UNL     1       6.686   5.778  18.887  0.00  0.00    +0.000 A 
ATOM      5  C   UNL     1       5.985   4.649  18.453  0.00  0.00    +0.000 A 
ATOM      6  C   UNL     1       6.031   4.270  17.109  0.00  0.00    +0.000 A 
ENDROOT
BRANCH   1   8
ATOM      7  N   UNL     1       7.730   5.453  13.973  0.00  0.00    +0.000 N 
ATOM      8  C   UNL     1       6.854   4.725  14.722  0.00  0.00    +0.000 C 
ATOM      9  O   UNL     1       6.170   3.852  14.201  0.00  0.00    +0.000 OA
ATOM     10  H   UNL     1       7.818   5.251  12.989  0.00  0.00    +0.000 HD
ATOM     11  H   UNL     1       8.319   6.158  14.404  0.00  0.00    +0.000 HD
ENDBRANCH   1   8
BRANCH   3  12
ATOM     12  C   UNL     1       8.174   7.749  18.391  0.00  0.00    +0.000 C 
ATOM     13  C   UNL     1       7.944   8.981  17.908  0.00  0.00    +0.000 C 
BRANCH  13  14
ATOM     14  C   UNL     1       8.689  10.179  18.334  0.00  0.00    +0.000 A 
ATOM     15  C   UNL     1       8.634  11.388  17.624  0.00  0.00    +0.000 A 
ATOM     16  C   UNL     1       9.345  12.509  18.060  0.00  0.00    +0.000 A 
ATOM     17  C   UNL     1      10.101  12.429  19.223  0.00  0.00    +0.000 A 
ATOM     18  C   UNL     1      10.146  11.251  19.958  0.00  0.00    +0.000 A 
ATOM     19  C   UNL     1       9.439  10.130  19.516  0.00  0.00    +0.000 A 
BRANCH  17  20
ATOM     20  O   UNL     1      10.816  13.495  19.680  0.00  0.00    +0.000 OA
ATOM     21  H   UNL     1      11.516  13.167  20.269  0.00  0.00    +0.000 HD
ENDBRANCH  17  20
ENDBRANCH  13  14
ENDBRANCH   3  12
BRANCH   6  22
ATOM     22  O   UNL     1       5.338   3.152  16.722  0.00  0.00    +0.000 OA
ATOM     23  H   UNL     1       4.542   3.068  17.276  0.00  0.00    +0.000 HD
ENDBRANCH   6  22
TORSDOF 5
ENDMDL
MODEL 4
REMARK VINA RESULT:      -7.4      2.854      7.945
REMARK  Name = 
REMARK  5 active torsions:
REMARK  status: ('A' for Active; 'I' for Inactive)
REMARK    1  A    between atoms: C_2  and  C_4
REMARK    2  A    between atoms: C_6  and  C_7
REMARK    3  A    between atoms: C_8  and  C_9
REMARK    4  A    between atoms: C_12  and  O_13
REMARK    5  A    between atoms: C_18  and  O_19
REMARK                            x       y       z     vdW  Elec       q    Type
REMARK                         _______ _______ _______ _____ _____    ______ ____
ROOT
ATOM      1  C   UNL     1       6.324   5.912  17.243  0.00  0.00    +0.000 A 
ATOM      2  C   UNL     1       6.904   7.188  17.139  0.00  0.00    +0.000 A 
ATOM      3  C   UNL     1       7.873   7.630  18.052  0.00  0.00    +0.000 A 
ATOM      4  C   UNL     1       8.240   6.780  19.101  0.00  0.00    +0.000 A 
ATOM      5  C   UNL     1       7.682   5.503  19.215  0.00  0.00    +0.000 A 
ATOM      6  C   UNL     1       6.733   5.068  18.287  0.00  0.00    +0.000 A 
ENDROOT
BRANCH   1   8
ATOM      7  N   UNL     1       4.302   4.695  16.588  0.00  0.00    +0.000 N 
ATOM      8  C   UNL     1       5.293   5.556  16.220  0.00  0.00    +0.000 C 
ATOM      9  O   UNL     1       5.322   6.020  15.087  0.00  0.00    +0.000 OA
ATOM     10  H   UNL     1       3.585   4.460  15.919  0.00  0.00    +0.000 HD
ATOM     11  H   UNL     1       4.258   4.329  17.534  0.00  0.00    +0.000 HD
ENDBRANCH   1   8
BRANCH   3  12
ATOM     12  C   UNL     1       8.401   8.995  17.912  0.00  0.00    +0.000 C 
ATOM     13  C   UNL     1       9.027   9.688  18.878  0.00  0.00    +0.000 C 
BRANCH  13  14
ATOM     14  C   UNL     1       9.542  11.057  18.698  0.00  0.00    +0.000 A 
ATOM     15  C   UNL     1       8.885  12.006  17.900  0.00  0.00    +0.000 A 
ATOM     16  C   UNL     1       9.395  13.300  17.758  0.00  0.00    +0.000 A 
ATOM     17  C   UNL     1      10.557  13.654  18.431  0.00  0.00    +0.000 A 
ATOM     18  C   UNL     1      11.208  12.740  19.250  0.00  0.00    +0.000 A 
ATOM     19  C   UNL     1      10.700  11.445  19.386  0.00  0.00    +0.000 A 
BRANCH  17  20
ATOM     20  O   UNL     1      11.093  14.902  18.315  0.00  0.00    +0.000 OA
ATOM     21  H   UNL     1      11.942  14.918  18.788  0.00  0.00    +0.000 HD
ENDBRANCH  17  20
ENDBRANCH  13  14
ENDBRANCH   3  12
BRANCH   6  22
ATOM     22  O   UNL     1       6.213   3.807  18.427  0.00  0.00    +0.000 OA
ATOM     23  H   UNL     1       5.913   3.691  19.346  0.00  0.00    +0.000 HD
ENDBRANCH   6  22
TORSDOF 5
ENDMDL
MODEL 5
REMARK VINA RESULT:      -7.4      7.074      8.869
REMARK  Name = 
REMARK  5 active torsions:
REMARK  status: ('A' for Active; 'I' for Inactive)
REMARK    1  A    between atoms: C_2  and  C_4
REMARK    2  A    between atoms: C_6  and  C_7
REMARK    3  A    between atoms: C_8  and  C_9
REMARK    4  A    between atoms: C_12  and  O_13
REMARK    5  A    between atoms: C_18  and  O_19
REMARK                            x       y       z     vdW  Elec       q    Type
REMARK                         _______ _______ _______ _____ _____    ______ ____
ROOT
ATOM      1  C   UNL     1       6.112   4.029  13.754  0.00  0.00    +0.000 A 
ATOM      2  C   UNL     1       5.354   3.678  14.883  0.00  0.00    +0.000 A 
ATOM      3  C   UNL     1       5.601   4.252  16.140  0.00  0.00    +0.000 A 
ATOM      4  C   UNL     1       6.648   5.172  16.260  0.00  0.00    +0.000 A 
ATOM      5  C   UNL     1       7.407   5.541  15.145  0.00  0.00    +0.000 A 
ATOM      6  C   UNL     1       7.136   4.977  13.896  0.00  0.00    +0.000 A 
ENDROOT
BRANCH   1   8
ATOM      7  N   UNL     1       6.707   2.536  11.906  0.00  0.00    +0.000 N 
ATOM      8  C   UNL     1       5.765   3.343  12.471  0.00  0.00    +0.000 C 
ATOM      9  O   UNL     1       4.671   3.486  11.938  0.00  0.00    +0.000 OA
ATOM     10  H   UNL     1       6.484   2.047  11.052  0.00  0.00    +0.000 HD
ATOM     11  H   UNL     1       7.605   2.392  12.357  0.00  0.00    +0.000 HD
ENDBRANCH   1   8
BRANCH   3  12
ATOM     12  C   UNL     1       4.802   3.801  17.289  0.00  0.00    +0.000 C 
ATOM     13  C   UNL     1       3.757   4.462  17.815  0.00  0.00    +0.000 C 
BRANCH  13  14
ATOM     14  C   UNL     1       2.980   3.976  18.969  0.00  0.00    +0.000 A 
ATOM     15  C   UNL     1       1.620   4.277  19.137  0.00  0.00    +0.000 A 
ATOM     16  C   UNL     1       0.909   3.793  20.238  0.00  0.00    +0.000 A 
ATOM     17  C   UNL     1       1.554   2.987  21.167  0.00  0.00    +0.000 A 
ATOM     18  C   UNL     1       2.892   2.650  21.005  0.00  0.00    +0.000 A 
ATOM     19  C   UNL     1       3.603   3.141  19.907  0.00  0.00    +0.000 A 
BRANCH  17  20
ATOM     20  O   UNL     1       0.901   2.499  22.259  0.00  0.00    +0.000 OA
ATOM     21  H   UNL     1       1.304   2.882  23.056  0.00  0.00    +0.000 HD
ENDBRANCH  17  20
ENDBRANCH  13  14
ENDBRANCH   3  12
BRANCH   6  22
ATOM     22  O   UNL     1       7.896   5.369  12.824  0.00  0.00    +0.000 OA
ATOM     23  H   UNL     1       7.874   4.667  12.150  0.00  0.00    +0.000 HD
ENDBRANCH   6  22
TORSDOF 5
ENDMDL
MODEL 6
REMARK VINA RESULT:      -7.4      2.359      8.003
REMARK  Name = 
REMARK  5 active torsions:
REMARK  status: ('A' for Active; 'I' for Inactive)
REMARK    1  A    between atoms: C_2  and  C_4
REMARK    2  A    between atoms: C_6  and  C_7
REMARK    3  A    between atoms: C_8  and  C_9
REMARK    4  A    between atoms: C_12  and  O_13
REMARK    5  A    between atoms: C_18  and  O_19
REMARK                            x       y       z     vdW  Elec       q    Type
REMARK                         _______ _______ _______ _____ _____    ______ ____
ROOT
ATOM      1  C   UNL     1       6.756   5.081  16.176  0.00  0.00    +0.000 A 
ATOM      2  C   UNL     1       7.433   6.212  16.662  0.00  0.00    +0.000 A 
ATOM      3  C   UNL     1       7.447   6.528  18.029  0.00  0.00    +0.000 A 
ATOM      4  C   UNL     1       6.741   5.704  18.913  0.00  0.00    +0.000 A 
ATOM      5  C   UNL     1       6.069   4.569  18.450  0.00  0.00    +0.000 A 
ATOM      6  C   UNL     1       6.082   4.255  17.088  0.00  0.00    +0.000 A 
ENDROOT
BRANCH   1   8
ATOM      7  N   UNL     1       7.765   5.498  13.984  0.00  0.00    +0.000 N 
ATOM      8  C   UNL     1       6.800   4.853  14.700  0.00  0.00    +0.000 C 
ATOM      9  O   UNL     1       6.006   4.108  14.137  0.00  0.00    +0.000 OA
ATOM     10  H   UNL     1       7.825   5.340  12.990  0.00  0.00    +0.000 HD
ATOM     11  H   UNL     1       8.442   6.094  14.448  0.00  0.00    +0.000 HD
ENDBRANCH   1   8
BRANCH   3  12
ATOM     12  C   UNL     1       8.134   7.754  18.461  0.00  0.00    +0.000 C 
ATOM     13  C   UNL     1       8.010   8.959  17.880  0.00  0.00    +0.000 C 
BRANCH  13  14
ATOM     14  C   UNL     1       8.717  10.166  18.343  0.00  0.00    +0.000 A 
ATOM     15  C   UNL     1       9.572  10.153  19.455  0.00  0.00    +0.000 A 
ATOM     16  C   UNL     1      10.236  11.313  19.863  0.00  0.00    +0.000 A 
ATOM     17  C   UNL     1      10.059  12.490  19.146  0.00  0.00    +0.000 A 
ATOM     18  C   UNL     1       9.241  12.519  18.025  0.00  0.00    +0.000 A 
ATOM     19  C   UNL     1       8.574  11.359  17.622  0.00  0.00    +0.000 A 
BRANCH  17  20
ATOM     20  O   UNL     1      10.681  13.646  19.514  0.00  0.00    +0.000 OA
ATOM     21  H   UNL     1      11.034  13.533  20.413  0.00  0.00    +0.000 HD
ENDBRANCH  17  20
ENDBRANCH  13  14
ENDBRANCH   3  12
BRANCH   6  22
ATOM     22  O   UNL     1       5.418   3.129  16.672  0.00  0.00    +0.000 OA
ATOM     23  H   UNL     1       4.641   2.994  17.243  0.00  0.00    +0.000 HD
ENDBRANCH   6  22
TORSDOF 5
ENDMDL
MODEL 7
REMARK VINA RESULT:      -7.3      7.310      9.097
REMARK  Name = 
REMARK  5 active torsions:
REMARK  status: ('A' for Active; 'I' for Inactive)
REMARK    1  A    between atoms: C_2  and  C_4
REMARK    2  A    between atoms: C_6  and  C_7
REMARK    3  A    between atoms: C_8  and  C_9
REMARK    4  A    between atoms: C_12  and  O_13
REMARK    5  A    between atoms: C_18  and  O_19
REMARK                            x       y       z     vdW  Elec       q    Type
REMARK                         _______ _______ _______ _____ _____    ______ ____
ROOT
ATOM      1  C   UNL     1       6.008   3.919  13.552  0.00  0.00    +0.000 A 
ATOM      2  C   UNL     1       5.319   3.734  14.763  0.00  0.00    +0.000 A 
ATOM      3  C   UNL     1       5.722   4.379  15.942  0.00  0.00    +0.000 A 
ATOM      4  C   UNL     1       6.854   5.201  15.901  0.00  0.00    +0.000 A 
ATOM      5  C   UNL     1       7.546   5.404  14.704  0.00  0.00    +0.000 A 
ATOM      6  C   UNL     1       7.121   4.772  13.533  0.00  0.00    +0.000 A 
ENDROOT
BRANCH   1   8
ATOM      7  N   UNL     1       6.277   2.181  11.848  0.00  0.00    +0.000 N 
ATOM      8  C   UNL     1       5.494   3.170  12.365  0.00  0.00    +0.000 C 
ATOM      9  O   UNL     1       4.404   3.422  11.865  0.00  0.00    +0.000 OA
ATOM     10  H   UNL     1       5.938   1.649  11.060  0.00  0.00    +0.000 HD
ATOM     11  H   UNL     1       7.169   1.950  12.274  0.00  0.00    +0.000 HD
ENDBRANCH   1   8
BRANCH   3  12
ATOM     12  C   UNL     1       4.985   4.100  17.184  0.00  0.00    +0.000 C 
ATOM     13  C   UNL     1       3.766   3.541  17.254  0.00  0.00    +0.000 C 
BRANCH  13  14
ATOM     14  C   UNL     1       3.060   3.277  18.520  0.00  0.00    +0.000 A 
ATOM     15  C   UNL     1       3.729   2.844  19.675  0.00  0.00    +0.000 A 
ATOM     16  C   UNL     1       3.031   2.612  20.864  0.00  0.00    +0.000 A 
ATOM     17  C   UNL     1       1.660   2.831  20.905  0.00  0.00    +0.000 A 
ATOM     18  C   UNL     1       0.981   3.289  19.782  0.00  0.00    +0.000 A 
ATOM     19  C   UNL     1       1.680   3.514  18.593  0.00  0.00    +0.000 A 
BRANCH  17  20
ATOM     20  O   UNL     1       0.939   2.611  22.040  0.00  0.00    +0.000 OA
ATOM     21  H   UNL     1       1.093   1.695  22.330  0.00  0.00    +0.000 HD
ENDBRANCH  17  20
ENDBRANCH  13  14
ENDBRANCH   3  12
BRANCH   6  22
ATOM     22  O   UNL     1       7.820   5.002  12.376  0.00  0.00    +0.000 OA
ATOM     23  H   UNL     1       8.321   4.200  12.147  0.00  0.00    +0.000 HD
ENDBRANCH   6  22
TORSDOF 5
ENDMDL
MODEL 8
REMARK VINA RESULT:      -7.3      1.993      2.643
REMARK  Name = 
REMARK  5 active torsions:
REMARK  status: ('A' for Active; 'I' for Inactive)
REMARK    1  A    between atoms: C_2  and  C_4
REMARK    2  A    between atoms: C_6  and  C_7
REMARK    3  A    between atoms: C_8  and  C_9
REMARK    4  A    between atoms: C_12  and  O_13
REMARK    5  A    between atoms: C_18  and  O_19
REMARK                            x       y       z     vdW  Elec       q    Type
REMARK                         _______ _______ _______ _____ _____    ______ ____
ROOT
ATOM      1  C   UNL     1       9.018  13.448  18.151  0.00  0.00    +0.000 A 
ATOM      2  C   UNL     1       8.574  12.141  18.411  0.00  0.00    +0.000 A 
ATOM      3  C   UNL     1       9.413  11.031  18.226  0.00  0.00    +0.000 A 
ATOM      4  C   UNL     1      10.709  11.245  17.744  0.00  0.00    +0.000 A 
ATOM      5  C   UNL     1      11.171  12.540  17.488  0.00  0.00    +0.000 A 
ATOM      6  C   UNL     1      10.332  13.637  17.698  0.00  0.00    +0.000 A 
ENDROOT
BRANCH   1   8
ATOM      7  N   UNL     1       7.681  15.316  17.301  0.00  0.00    +0.000 N 
ATOM      8  C   UNL     1       8.032  14.550  18.373  0.00  0.00    +0.000 C 
ATOM      9  O   UNL     1       7.542  14.765  19.475  0.00  0.00    +0.000 OA
ATOM     10  H   UNL     1       7.001  16.050  17.426  0.00  0.00    +0.000 HD
ATOM     11  H   UNL     1       8.063  15.125  16.381  0.00  0.00    +0.000 HD
ENDBRANCH   1   8
BRANCH   3  12
ATOM     12  C   UNL     1       8.866   9.687  18.469  0.00  0.00    +0.000 C 
ATOM     13  C   UNL     1       8.134   8.977  17.596  0.00  0.00    +0.000 C 
BRANCH  13  14
ATOM     14  C   UNL     1       7.604   7.632  17.878  0.00  0.00    +0.000 A 
ATOM     15  C   UNL     1       8.186   6.782  18.831  0.00  0.00    +0.000 A 
ATOM     16  C   UNL     1       7.653   5.514  19.083  0.00  0.00    +0.000 A 
ATOM     17  C   UNL     1       6.520   5.100  18.393  0.00  0.00    +0.000 A 
ATOM     18  C   UNL     1       5.910   5.936  17.467  0.00  0.00    +0.000 A 
ATOM     19  C   UNL     1       6.448   7.201  17.213  0.00  0.00    +0.000 A 
BRANCH  17  20
ATOM     20  O   UNL     1       5.972   3.870  18.602  0.00  0.00    +0.000 OA
ATOM     21  H   UNL     1       5.050   3.988  18.886  0.00  0.00    +0.000 HD
ENDBRANCH  17  20
ENDBRANCH  13  14
ENDBRANCH   3  12
BRANCH   6  22
ATOM     22  O   UNL     1      10.823  14.892  17.444  0.00  0.00    +0.000 OA
ATOM     23  H   UNL     1      10.172  15.551  17.742  0.00  0.00    +0.000 HD
ENDBRANCH   6  22
TORSDOF 5
ENDMDL
MODEL 9
REMARK VINA RESULT:      -7.3      3.076      8.049
REMARK  Name = 
REMARK  5 active torsions:
REMARK  status: ('A' for Active; 'I' for Inactive)
REMARK    1  A    between atoms: C_2  and  C_4
REMARK    2  A    between atoms: C_6  and  C_7
REMARK    3  A    between atoms: C_8  and  C_9
REMARK    4  A    between atoms: C_12  and  O_13
REMARK    5  A    between atoms: C_18  and  O_19
REMARK                            x       y       z     vdW  Elec       q    Type
REMARK                         _______ _______ _______ _____ _____    ______ ____
ROOT
ATOM      1  C   UNL     1       5.701   5.897  17.788  0.00  0.00    +0.000 A 
ATOM      2  C   UNL     1       6.262   7.150  17.488  0.00  0.00    +0.000 A 
ATOM      3  C   UNL     1       7.532   7.517  17.958  0.00  0.00    +0.000 A 
ATOM      4  C   UNL     1       8.232   6.615  18.767  0.00  0.00    +0.000 A 
ATOM      5  C   UNL     1       7.694   5.360  19.068  0.00  0.00    +0.000 A 
ATOM      6  C   UNL     1       6.438   5.000  18.576  0.00  0.00    +0.000 A 
ENDROOT
BRANCH   1   8
ATOM      7  N   UNL     1       4.138   4.444  16.587  0.00  0.00    +0.000 N 
ATOM      8  C   UNL     1       4.337   5.623  17.242  0.00  0.00    +0.000 C 
ATOM      9  O   UNL     1       3.415   6.420  17.377  0.00  0.00    +0.000 OA
ATOM     10  H   UNL     1       3.219   4.231  16.230  0.00  0.00    +0.000 HD
ATOM     11  H   UNL     1       4.890   3.769  16.496  0.00  0.00    +0.000 HD
ENDBRANCH   1   8
BRANCH   3  12
ATOM     12  C   UNL     1       8.035   8.864  17.647  0.00  0.00    +0.000 C 
ATOM     13  C   UNL     1       8.789   9.619  18.464  0.00  0.00    +0.000 C 
BRANCH  13  14
ATOM     14  C   UNL     1       9.275  10.965  18.115  0.00  0.00    +0.000 A 
ATOM     15  C   UNL     1      10.640  11.257  17.980  0.00  0.00    +0.000 A 
ATOM     16  C   UNL     1      11.068  12.543  17.638  0.00  0.00    +0.000 A 
ATOM     17  C   UNL     1      10.127  13.539  17.411  0.00  0.00    +0.000 A 
ATOM     18  C   UNL     1       8.769  13.265  17.510  0.00  0.00    +0.000 A 
ATOM     19  C   UNL     1       8.343  11.980  17.858  0.00  0.00    +0.000 A 
BRANCH  17  20
ATOM     20  O   UNL     1      10.500  14.808  17.083  0.00  0.00    +0.000 OA
ATOM     21  H   UNL     1       9.738  15.260  16.684  0.00  0.00    +0.000 HD
ENDBRANCH  17  20
ENDBRANCH  13  14
ENDBRANCH   3  12
BRANCH   6  22
ATOM     22  O   UNL     1       5.946   3.758  18.886  0.00  0.00    +0.000 OA
ATOM     23  H   UNL     1       6.355   3.457  19.716  0.00  0.00    +0.000 HD
ENDBRANCH   6  22
TORSDOF 5
ENDMDL
