MODEL 1
REMARK VINA RESULT:      -7.0      0.000      0.000
REMARK  Name = 
REMARK  3 active torsions:
REMARK  status: ('A' for Active; 'I' for Inactive)
REMARK    1  A    between atoms: O_1  and  C_2
REMARK    2  A    between atoms: C_2  and  C_3
REMARK    3  A    between atoms: C_8  and  C_9
REMARK                            x       y       z     vdW  Elec       q    Type
REMARK                         _______ _______ _______ _____ _____    ______ ____
ROOT
ATOM      1  C   UNL     1       6.158   4.332  15.886  0.00  0.00    +0.000 C 
ATOM      2  C   UNL     1       7.218   4.817  16.892  0.00  0.00    +0.000 C 
ATOM      3  N   UNL     1       7.430   6.267  16.881  0.00  0.00    +0.000 NA
ATOM      4  C   UNL     1       6.187   6.990  17.126  0.00  0.00    +0.000 C 
ATOM      5  C   UNL     1       5.093   6.617  16.123  0.00  0.00    +0.000 C 
ATOM      6  C   UNL     1       4.814   5.097  16.080  0.00  0.00    +0.000 C 
ATOM      7  H   UNL     1       7.832   6.546  15.986  0.00  0.00    +0.000 HD
ENDROOT
BRANCH   6   8
ATOM      8  C   UNL     1       3.948   4.535  17.215  0.00  0.00    +0.000 A 
ATOM      9  C   UNL     1       2.996   5.300  17.908  0.00  0.00    +0.000 A 
ATOM     10  C   UNL     1       2.172   4.727  18.884  0.00  0.00    +0.000 A 
ATOM     11  C   UNL     1       2.285   3.373  19.178  0.00  0.00    +0.000 A 
ATOM     12 CL   UNL     1       1.260   2.665  20.365  0.00  0.00    +0.000 Cl
ATOM     13  C   UNL     1       3.214   2.588  18.507  0.00  0.00    +0.000 A 
ATOM     14  C   UNL     1       4.030   3.164  17.528  0.00  0.00    +0.000 A 
ENDBRANCH   6   8
BRANCH   1  15
ATOM     15  C   UNL     1       6.626   4.450  14.423  0.00  0.00    +0.000 C 
BRANCH  15  16
ATOM     16  O   UNL     1       7.769   5.290  14.332  0.00  0.00    +0.000 OA
ATOM     17  H   UNL     1       8.378   5.028  15.043  0.00  0.00    +0.000 HD
ENDBRANCH  15  16
ENDBRANCH   1  15
TORSDOF 3
ENDMDL
MODEL 2
REMARK VINA RESULT:      -6.9      0.164      1.252
REMARK  Name = 
REMARK  3 active torsions:
REMARK  status: ('A' for Active; 'I' for Inactive)
REMARK    1  A    between atoms: O_1  and  C_2
REMARK    2  A    between atoms: C_2  and  C_3
REMARK    3  A    between atoms: C_8  and  C_9
REMARK                            x       y       z     vdW  Elec       q    Type
REMARK                         _______ _______ _______ _____ _____    ______ ____
ROOT
ATOM      1  C   UNL     1       6.155   4.314  15.828  0.00  0.00    +0.000 C 
ATOM      2  C   UNL     1       7.213   4.774  16.848  0.00  0.00    +0.000 C 
ATOM      3  N   UNL     1       7.412   6.225  16.885  0.00  0.00    +0.000 NA
ATOM      4  C   UNL     1       6.164   6.927  17.158  0.00  0.00    +0.000 C 
ATOM      5  C   UNL     1       5.070   6.579  16.146  0.00  0.00    +0.000 C 
ATOM      6  C   UNL     1       4.804   5.059  16.052  0.00  0.00    +0.000 C 
ATOM      7  H   UNL     1       7.808   6.538  15.999  0.00  0.00    +0.000 HD
ENDROOT
BRANCH   6   8
ATOM      8  C   UNL     1       3.947   4.451  17.170  0.00  0.00    +0.000 A 
ATOM      9  C   UNL     1       4.101   3.131  17.627  0.00  0.00    +0.000 A 
ATOM     10  C   UNL     1       3.351   2.642  18.703  0.00  0.00    +0.000 A 
ATOM     11  C   UNL     1       2.437   3.470  19.344  0.00  0.00    +0.000 A 
ATOM     12 CL   UNL     1       1.529   2.874  20.678  0.00  0.00    +0.000 Cl
ATOM     13  C   UNL     1       2.265   4.781  18.918  0.00  0.00    +0.000 A 
ATOM     14  C   UNL     1       3.022   5.268  17.847  0.00  0.00    +0.000 A 
ENDBRANCH   6   8
BRANCH   1  15
ATOM     15  C   UNL     1       6.617   4.486  14.369  0.00  0.00    +0.000 C 
BRANCH  15  16
ATOM     16  O   UNL     1       7.777   5.305  14.307  0.00  0.00    +0.000 OA
ATOM     17  H   UNL     1       8.361   4.928  13.628  0.00  0.00    +0.000 HD
ENDBRANCH  15  16
ENDBRANCH   1  15
TORSDOF 3
ENDMDL
MODEL 3
REMARK VINA RESULT:      -6.4      4.260      5.868
REMARK  Name = 
REMARK  3 active torsions:
REMARK  status: ('A' for Active; 'I' for Inactive)
REMARK    1  A    between atoms: O_1  and  C_2
REMARK    2  A    between atoms: C_2  and  C_3
REMARK    3  A    between atoms: C_8  and  C_9
REMARK                            x       y       z     vdW  Elec       q    Type
REMARK                         _______ _______ _______ _____ _____    ______ ____
ROOT
ATOM      1  C   UNL     1       2.739   3.503  20.214  0.00  0.00    +0.000 C 
ATOM      2  C   UNL     1       3.282   2.166  19.676  0.00  0.00    +0.000 C 
ATOM      3  N   UNL     1       2.495   1.604  18.576  0.00  0.00    +0.000 NA
ATOM      4  C   UNL     1       2.384   2.543  17.465  0.00  0.00    +0.000 C 
ATOM      5  C   UNL     1       1.786   3.883  17.900  0.00  0.00    +0.000 C 
ATOM      6  C   UNL     1       2.567   4.539  19.062  0.00  0.00    +0.000 C 
ATOM      7  H   UNL     1       1.570   1.345  18.915  0.00  0.00    +0.000 HD
ENDROOT
BRANCH   6   8
ATOM      8  C   UNL     1       3.869   5.256  18.684  0.00  0.00    +0.000 A 
ATOM      9  C   UNL     1       5.100   4.998  19.310  0.00  0.00    +0.000 A 
ATOM     10  C   UNL     1       6.279   5.618  18.879  0.00  0.00    +0.000 A 
ATOM     11  C   UNL     1       6.245   6.504  17.809  0.00  0.00    +0.000 A 
ATOM     12 CL   UNL     1       7.697   7.252  17.268  0.00  0.00    +0.000 Cl
ATOM     13  C   UNL     1       5.044   6.776  17.166  0.00  0.00    +0.000 A 
ATOM     14  C   UNL     1       3.870   6.149  17.595  0.00  0.00    +0.000 A 
ENDBRANCH   6   8
BRANCH   1  15
ATOM     15  C   UNL     1       1.414   3.342  20.982  0.00  0.00    +0.000 C 
BRANCH  15  16
ATOM     16  O   UNL     1       1.611   2.573  22.161  0.00  0.00    +0.000 OA
ATOM     17  H   UNL     1       2.073   3.140  22.802  0.00  0.00    +0.000 HD
ENDBRANCH  15  16
ENDBRANCH   1  15
TORSDOF 3
ENDMDL
MODEL 4
REMARK VINA RESULT:      -6.4      4.254      5.816
REMARK  Name = 
REMARK  3 active torsions:
REMARK  status: ('A' for Active; 'I' for Inactive)
REMARK    1  A    between atoms: O_1  and  C_2
REMARK    2  A    between atoms: C_2  and  C_3
REMARK    3  A    between atoms: C_8  and  C_9
REMARK                            x       y       z     vdW  Elec       q    Type
REMARK                         _______ _______ _______ _____ _____    ______ ____
ROOT
ATOM      1  C   UNL     1       2.828   3.687  20.279  0.00  0.00    +0.000 C 
ATOM      2  C   UNL     1       3.319   2.296  19.838  0.00  0.00    +0.000 C 
ATOM      3  N   UNL     1       2.464   1.652  18.838  0.00  0.00    +0.000 NA
ATOM      4  C   UNL     1       2.305   2.489  17.654  0.00  0.00    +0.000 C 
ATOM      5  C   UNL     1       1.753   3.875  17.995  0.00  0.00    +0.000 C 
ATOM      6  C   UNL     1       2.607   4.617  19.048  0.00  0.00    +0.000 C 
ATOM      7  H   UNL     1       1.555   1.444  19.249  0.00  0.00    +0.000 HD
ENDROOT
BRANCH   6   8
ATOM      8  C   UNL     1       3.897   5.270  18.535  0.00  0.00    +0.000 A 
ATOM      9  C   UNL     1       3.931   6.160  17.448  0.00  0.00    +0.000 A 
ATOM     10  C   UNL     1       5.118   6.794  17.063  0.00  0.00    +0.000 A 
ATOM     11  C   UNL     1       6.293   6.551  17.765  0.00  0.00    +0.000 A 
ATOM     12 CL   UNL     1       7.747   7.344  17.303  0.00  0.00    +0.000 Cl
ATOM     13  C   UNL     1       6.292   5.679  18.847  0.00  0.00    +0.000 A 
ATOM     14  C   UNL     1       5.101   5.054  19.233  0.00  0.00    +0.000 A 
ENDBRANCH   6   8
BRANCH   1  15
ATOM     15  C   UNL     1       1.545   3.625  21.130  0.00  0.00    +0.000 C 
BRANCH  15  16
ATOM     16  O   UNL     1       1.557   2.475  21.966  0.00  0.00    +0.000 OA
ATOM     17  H   UNL     1       0.898   1.854  21.612  0.00  0.00    +0.000 HD
ENDBRANCH  15  16
ENDBRANCH   1  15
TORSDOF 3
ENDMDL
MODEL 5
REMARK VINA RESULT:      -6.3      3.154      4.272
REMARK  Name = 
REMARK  3 active torsions:
REMARK  status: ('A' for Active; 'I' for Inactive)
REMARK    1  A    between atoms: O_1  and  C_2
REMARK    2  A    between atoms: C_2  and  C_3
REMARK    3  A    between atoms: C_8  and  C_9
REMARK                            x       y       z     vdW  Elec       q    Type
REMARK                         _______ _______ _______ _____ _____    ______ ____
ROOT
ATOM      1  C   UNL     1       3.380   3.204  18.806  0.00  0.00    +0.000 C 
ATOM      2  C   UNL     1       4.755   3.349  19.484  0.00  0.00    +0.000 C 
ATOM      3  N   UNL     1       5.849   3.643  18.554  0.00  0.00    +0.000 NA
ATOM      4  C   UNL     1       5.581   4.850  17.780  0.00  0.00    +0.000 C 
ATOM      5  C   UNL     1       4.258   4.764  17.016  0.00  0.00    +0.000 C 
ATOM      6  C   UNL     1       3.054   4.455  17.935  0.00  0.00    +0.000 C 
ATOM      7  H   UNL     1       5.992   2.848  17.933  0.00  0.00    +0.000 HD
ENDROOT
BRANCH   6   8
ATOM      8  C   UNL     1       2.498   5.635  18.742  0.00  0.00    +0.000 A 
ATOM      9  C   UNL     1       2.007   5.509  20.052  0.00  0.00    +0.000 A 
ATOM     10  C   UNL     1       1.582   6.627  20.780  0.00  0.00    +0.000 A 
ATOM     11  C   UNL     1       1.648   7.892  20.210  0.00  0.00    +0.000 A 
ATOM     12 CL   UNL     1       1.142   9.267  21.112  0.00  0.00    +0.000 Cl
ATOM     13  C   UNL     1       2.132   8.050  18.917  0.00  0.00    +0.000 A 
ATOM     14  C   UNL     1       2.563   6.932  18.196  0.00  0.00    +0.000 A 
ENDBRANCH   6   8
BRANCH   1  15
ATOM     15  C   UNL     1       3.265   1.925  17.957  0.00  0.00    +0.000 C 
BRANCH  15  16
ATOM     16  O   UNL     1       4.160   0.928  18.433  0.00  0.00    +0.000 OA
ATOM     17  H   UNL     1       5.020   1.358  18.576  0.00  0.00    +0.000 HD
ENDBRANCH  15  16
ENDBRANCH   1  15
TORSDOF 3
ENDMDL
MODEL 6
REMARK VINA RESULT:      -6.3      1.423      2.229
REMARK  Name = 
REMARK  3 active torsions:
REMARK  status: ('A' for Active; 'I' for Inactive)
REMARK    1  A    between atoms: O_1  and  C_2
REMARK    2  A    between atoms: C_2  and  C_3
REMARK    3  A    between atoms: C_8  and  C_9
REMARK                            x       y       z     vdW  Elec       q    Type
REMARK                         _______ _______ _______ _____ _____    ______ ____
ROOT
ATOM      1  C   UNL     1       5.882   6.139  17.665  0.00  0.00    +0.000 C 
ATOM      2  C   UNL     1       5.234   6.808  16.438  0.00  0.00    +0.000 C 
ATOM      3  N   UNL     1       5.741   6.316  15.155  0.00  0.00    +0.000 NA
ATOM      4  C   UNL     1       5.582   4.871  15.038  0.00  0.00    +0.000 C 
ATOM      5  C   UNL     1       6.258   4.119  16.186  0.00  0.00    +0.000 C 
ATOM      6  C   UNL     1       5.772   4.587  17.577  0.00  0.00    +0.000 C 
ATOM      7  H   UNL     1       6.722   6.574  15.054  0.00  0.00    +0.000 HD
ENDROOT
BRANCH   6   8
ATOM      8  C   UNL     1       4.413   4.043  18.037  0.00  0.00    +0.000 A 
ATOM      9  C   UNL     1       3.545   4.753  18.882  0.00  0.00    +0.000 A 
ATOM     10  C   UNL     1       2.280   4.253  19.213  0.00  0.00    +0.000 A 
ATOM     11  C   UNL     1       1.861   3.032  18.697  0.00  0.00    +0.000 A 
ATOM     12 CL   UNL     1       0.300   2.426  19.090  0.00  0.00    +0.000 Cl
ATOM     13  C   UNL     1       2.695   2.307  17.855  0.00  0.00    +0.000 A 
ATOM     14  C   UNL     1       3.955   2.815  17.521  0.00  0.00    +0.000 A 
ENDBRANCH   6   8
BRANCH   1  15
ATOM     15  C   UNL     1       7.352   6.554  17.863  0.00  0.00    +0.000 C 
BRANCH  15  16
ATOM     16  O   UNL     1       7.805   7.326  16.759  0.00  0.00    +0.000 OA
ATOM     17  H   UNL     1       7.290   7.049  15.982  0.00  0.00    +0.000 HD
ENDBRANCH  15  16
ENDBRANCH   1  15
TORSDOF 3
ENDMDL
MODEL 7
REMARK VINA RESULT:      -6.2      1.592      2.636
REMARK  Name = 
REMARK  3 active torsions:
REMARK  status: ('A' for Active; 'I' for Inactive)
REMARK    1  A    between atoms: O_1  and  C_2
REMARK    2  A    between atoms: C_2  and  C_3
REMARK    3  A    between atoms: C_8  and  C_9
REMARK                            x       y       z     vdW  Elec       q    Type
REMARK                         _______ _______ _______ _____ _____    ______ ____
ROOT
ATOM      1  C   UNL     1       6.038   6.290  17.828  0.00  0.00    +0.000 C 
ATOM      2  C   UNL     1       5.217   6.853  16.653  0.00  0.00    +0.000 C 
ATOM      3  N   UNL     1       5.524   6.234  15.362  0.00  0.00    +0.000 NA
ATOM      4  C   UNL     1       5.343   4.787  15.408  0.00  0.00    +0.000 C 
ATOM      5  C   UNL     1       6.180   4.134  16.510  0.00  0.00    +0.000 C 
ATOM      6  C   UNL     1       5.909   4.739  17.906  0.00  0.00    +0.000 C 
ATOM      7  H   UNL     1       6.480   6.463  15.092  0.00  0.00    +0.000 HD
ENDROOT
BRANCH   6   8
ATOM      8  C   UNL     1       4.631   4.266  18.612  0.00  0.00    +0.000 A 
ATOM      9  C   UNL     1       4.096   2.977  18.452  0.00  0.00    +0.000 A 
ATOM     10  C   UNL     1       2.972   2.561  19.176  0.00  0.00    +0.000 A 
ATOM     11  C   UNL     1       2.369   3.428  20.079  0.00  0.00    +0.000 A 
ATOM     12 CL   UNL     1       1.000   2.910  20.982  0.00  0.00    +0.000 Cl
ATOM     13  C   UNL     1       2.878   4.708  20.263  0.00  0.00    +0.000 A 
ATOM     14  C   UNL     1       4.005   5.117  19.543  0.00  0.00    +0.000 A 
ENDBRANCH   6   8
BRANCH   1  15
ATOM     15  C   UNL     1       7.523   6.694  17.766  0.00  0.00    +0.000 C 
BRANCH  15  16
ATOM     16  O   UNL     1       7.697   7.823  16.919  0.00  0.00    +0.000 OA
ATOM     17  H   UNL     1       8.028   7.495  16.066  0.00  0.00    +0.000 HD
ENDBRANCH  15  16
ENDBRANCH   1  15
TORSDOF 3
ENDMDL
MODEL 8
REMARK VINA RESULT:      -6.2      1.472      2.559
REMARK  Name = 
REMARK  3 active torsions:
REMARK  status: ('A' for Active; 'I' for Inactive)
REMARK    1  A    between atoms: O_1  and  C_2
REMARK    2  A    between atoms: C_2  and  C_3
REMARK    3  A    between atoms: C_8  and  C_9
REMARK                            x       y       z     vdW  Elec       q    Type
REMARK                         _______ _______ _______ _____ _____    ______ ____
ROOT
ATOM      1  C   UNL     1       5.728   6.000  17.424  0.00  0.00    +0.000 C 
ATOM      2  C   UNL     1       5.163   6.668  16.156  0.00  0.00    +0.000 C 
ATOM      3  N   UNL     1       5.770   6.191  14.911  0.00  0.00    +0.000 NA
ATOM      4  C   UNL     1       5.640   4.745  14.775  0.00  0.00    +0.000 C 
ATOM      5  C   UNL     1       6.239   3.995  15.966  0.00  0.00    +0.000 C 
ATOM      6  C   UNL     1       5.644   4.448  17.319  0.00  0.00    +0.000 C 
ATOM      7  H   UNL     1       6.753   6.462  14.885  0.00  0.00    +0.000 HD
ENDROOT
BRANCH   6   8
ATOM      8  C   UNL     1       4.263   3.883  17.674  0.00  0.00    +0.000 A 
ATOM      9  C   UNL     1       3.966   2.510  17.665  0.00  0.00    +0.000 A 
ATOM     10  C   UNL     1       2.715   2.033  18.072  0.00  0.00    +0.000 A 
ATOM     11  C   UNL     1       1.739   2.924  18.501  0.00  0.00    +0.000 A 
ATOM     12 CL   UNL     1       0.207   2.336  19.018  0.00  0.00    +0.000 Cl
ATOM     13  C   UNL     1       2.003   4.288  18.526  0.00  0.00    +0.000 A 
ATOM     14  C   UNL     1       3.257   4.760  18.125  0.00  0.00    +0.000 A 
ENDBRANCH   6   8
BRANCH   1  15
ATOM     15  C   UNL     1       7.173   6.432  17.733  0.00  0.00    +0.000 C 
BRANCH  15  16
ATOM     16  O   UNL     1       7.558   7.518  16.900  0.00  0.00    +0.000 OA
ATOM     17  H   UNL     1       7.786   7.148  16.031  0.00  0.00    +0.000 HD
ENDBRANCH  15  16
ENDBRANCH   1  15
TORSDOF 3
ENDMDL
MODEL 9
REMARK VINA RESULT:      -6.2      2.068      2.889
REMARK  Name = 
REMARK  3 active torsions:
REMARK  status: ('A' for Active; 'I' for Inactive)
REMARK    1  A    between atoms: O_1  and  C_2
REMARK    2  A    between atoms: C_2  and  C_3
REMARK    3  A    between atoms: C_8  and  C_9
REMARK                            x       y       z     vdW  Elec       q    Type
REMARK                         _______ _______ _______ _____ _____    ______ ____
ROOT
ATOM      1  C   UNL     1       6.431   5.796  18.650  0.00  0.00    +0.000 C 
ATOM      2  C   UNL     1       6.044   6.888  17.635  0.00  0.00    +0.000 C 
ATOM      3  N   UNL     1       6.656   6.716  16.315  0.00  0.00    +0.000 NA
ATOM      4  C   UNL     1       6.335   5.412  15.744  0.00  0.00    +0.000 C 
ATOM      5  C   UNL     1       6.749   4.261  16.663  0.00  0.00    +0.000 C 
ATOM      6  C   UNL     1       6.140   4.376  18.079  0.00  0.00    +0.000 C 
ATOM      7  H   UNL     1       7.666   6.831  16.388  0.00  0.00    +0.000 HD
ENDROOT
BRANCH   6   8
ATOM      8  C   UNL     1       4.674   3.947  18.222  0.00  0.00    +0.000 A 
ATOM      9  C   UNL     1       4.018   3.125  17.291  0.00  0.00    +0.000 A 
ATOM     10  C   UNL     1       2.703   2.693  17.501  0.00  0.00    +0.000 A 
ATOM     11  C   UNL     1       2.024   3.073  18.652  0.00  0.00    +0.000 A 
ATOM     12 CL   UNL     1       0.415   2.527  18.918  0.00  0.00    +0.000 Cl
ATOM     13  C   UNL     1       2.647   3.882  19.595  0.00  0.00    +0.000 A 
ATOM     14  C   UNL     1       3.963   4.305  19.384  0.00  0.00    +0.000 A 
ENDBRANCH   6   8
BRANCH   1  15
ATOM     15  C   UNL     1       7.900   5.894  19.101  0.00  0.00    +0.000 C 
BRANCH  15  16
ATOM     16  O   UNL     1       8.036   5.477  20.453  0.00  0.00    +0.000 OA
ATOM     17  H   UNL     1       8.006   6.277  21.005  0.00  0.00    +0.000 HD
ENDBRANCH  15  16
ENDBRANCH   1  15
TORSDOF 3
ENDMDL
