MODEL 1
REMARK VINA RESULT:      -5.9      0.000      0.000
REMARK  Name = 
REMARK  8 active torsions:
REMARK  status: ('A' for Active; 'I' for Inactive)
REMARK    1  A    between atoms: C_1  and  S_2
REMARK    2  A    between atoms: S_2  and  C_3
REMARK    3  A    between atoms: C_4  and  N_5
REMARK    4  A    between atoms: C_7  and  O_8
REMARK    5  A    between atoms: C_9  and  O_10
REMARK    6  A    between atoms: C_11  and  C_12
REMARK    7  A    between atoms: C_13  and  C_14
REMARK    8  A    between atoms: C_14  and  O_16
REMARK                            x       y       z     vdW  Elec       q    Type
REMARK                         _______ _______ _______ _____ _____    ______ ____
ROOT
ATOM      1  C   UNL     1       3.483   4.219  19.713  0.00  0.00    +0.000 A 
ATOM      2  C   UNL     1       2.391   4.494  20.590  0.00  0.00    +0.000 A 
ATOM      3  C   UNL     1       1.809   5.771  20.607  0.00  0.00    +0.000 A 
ATOM      4  C   UNL     1       2.244   6.733  19.718  0.00  0.00    +0.000 A 
ATOM      5  C   UNL     1       3.291   6.455  18.828  0.00  0.00    +0.000 A 
ATOM      6  C   UNL     1       3.950   5.210  18.810  0.00  0.00    +0.000 A 
ENDROOT
BRANCH   2   7
ATOM      7  N   UNL     1       2.004   3.581  21.596  0.00  0.00    +0.000 N 
ATOM      8  H   UNL     1       1.398   4.014  22.290  0.00  0.00    +0.000 HD
ATOM      9  H   UNL     1       2.764   3.047  22.004  0.00  0.00    +0.000 HD
ENDBRANCH   2   7
BRANCH   1  11
ATOM     10  C   UNL     1       3.288   1.786  18.434  0.00  0.00    +0.000 C 
ATOM     11  S   UNL     1       4.180   2.545  19.811  0.00  0.00    +0.000 S 
ENDBRANCH   1  11
BRANCH   4  12
ATOM     12  O   UNL     1       1.694   7.978  19.677  0.00  0.00    +0.000 OA
ATOM     13  H   UNL     1       2.399   8.621  19.483  0.00  0.00    +0.000 HD
ENDBRANCH   4  12
BRANCH   5  14
ATOM     14  O   UNL     1       3.671   7.467  17.978  0.00  0.00    +0.000 OA
ATOM     15  H   UNL     1       3.814   8.244  18.556  0.00  0.00    +0.000 HD
ENDBRANCH   5  14
BRANCH   6  16
ATOM     16  C   UNL     1       5.031   5.038  17.805  0.00  0.00    +0.000 C 
ATOM     17  C   UNL     1       6.334   5.314  17.971  0.00  0.00    +0.000 C 
BRANCH  17  18
ATOM     18  C   UNL     1       7.280   5.111  16.854  0.00  0.00    +0.000 C 
ATOM     19  O   UNL     1       7.312   5.773  15.833  0.00  0.00    +0.000 OA
BRANCH  18  20
ATOM     20  O   UNL     1       8.117   4.077  17.099  0.00  0.00    +0.000 OA
ATOM     21  H   UNL     1       7.700   3.285  17.484  0.00  0.00    +0.000 HD
ENDBRANCH  18  20
ENDBRANCH  17  18
ENDBRANCH   6  16
TORSDOF 7
ENDMDL
MODEL 2
REMARK VINA RESULT:      -5.7      1.044      1.167
REMARK  Name = 
REMARK  8 active torsions:
REMARK  status: ('A' for Active; 'I' for Inactive)
REMARK    1  A    between atoms: C_1  and  S_2
REMARK    2  A    between atoms: S_2  and  C_3
REMARK    3  A    between atoms: C_4  and  N_5
REMARK    4  A    between atoms: C_7  and  O_8
REMARK    5  A    between atoms: C_9  and  O_10
REMARK    6  A    between atoms: C_11  and  C_12
REMARK    7  A    between atoms: C_13  and  C_14
REMARK    8  A    between atoms: C_14  and  O_16
REMARK                            x       y       z     vdW  Elec       q    Type
REMARK                         _______ _______ _______ _____ _____    ______ ____
ROOT
ATOM      1  C   UNL     1       3.671   4.189  19.522  0.00  0.00    +0.000 A 
ATOM      2  C   UNL     1       2.552   4.545  20.332  0.00  0.00    +0.000 A 
ATOM      3  C   UNL     1       2.004   5.834  20.248  0.00  0.00    +0.000 A 
ATOM      4  C   UNL     1       2.502   6.729  19.324  0.00  0.00    +0.000 A 
ATOM      5  C   UNL     1       3.577   6.372  18.498  0.00  0.00    +0.000 A 
ATOM      6  C   UNL     1       4.202   5.112  18.583  0.00  0.00    +0.000 A 
ENDROOT
BRANCH   2   7
ATOM      7  N   UNL     1       2.098   3.704  21.374  0.00  0.00    +0.000 N 
ATOM      8  H   UNL     1       2.044   4.196  22.263  0.00  0.00    +0.000 HD
ATOM      9  H   UNL     1       2.572   2.810  21.438  0.00  0.00    +0.000 HD
ENDBRANCH   2   7
BRANCH   1  11
ATOM     10  C   UNL     1       3.407   1.673  18.429  0.00  0.00    +0.000 C 
ATOM     11  S   UNL     1       4.317   2.507  19.750  0.00  0.00    +0.000 S 
ENDBRANCH   1  11
BRANCH   4  12
ATOM     12  O   UNL     1       1.989   7.983  19.185  0.00  0.00    +0.000 OA
ATOM     13  H   UNL     1       1.029   7.908  19.039  0.00  0.00    +0.000 HD
ENDBRANCH   4  12
BRANCH   5  14
ATOM     14  O   UNL     1       4.020   7.321  17.606  0.00  0.00    +0.000 OA
ATOM     15  H   UNL     1       4.984   7.387  17.764  0.00  0.00    +0.000 HD
ENDBRANCH   5  14
BRANCH   6  16
ATOM     16  C   UNL     1       5.319   4.853  17.637  0.00  0.00    +0.000 C 
ATOM     17  C   UNL     1       5.215   4.439  16.365  0.00  0.00    +0.000 C 
BRANCH  17  18
ATOM     18  C   UNL     1       6.433   4.199  15.563  0.00  0.00    +0.000 C 
ATOM     19  O   UNL     1       7.532   4.668  15.801  0.00  0.00    +0.000 OA
BRANCH  18  20
ATOM     20  O   UNL     1       6.179   3.392  14.509  0.00  0.00    +0.000 OA
ATOM     21  H   UNL     1       5.523   3.730  13.873  0.00  0.00    +0.000 HD
ENDBRANCH  18  20
ENDBRANCH  17  18
ENDBRANCH   6  16
TORSDOF 7
ENDMDL
MODEL 3
REMARK VINA RESULT:      -5.7      3.125      4.022
REMARK  Name = 
REMARK  8 active torsions:
REMARK  status: ('A' for Active; 'I' for Inactive)
REMARK    1  A    between atoms: C_1  and  S_2
REMARK    2  A    between atoms: S_2  and  C_3
REMARK    3  A    between atoms: C_4  and  N_5
REMARK    4  A    between atoms: C_7  and  O_8
REMARK    5  A    between atoms: C_9  and  O_10
REMARK    6  A    between atoms: C_11  and  C_12
REMARK    7  A    between atoms: C_13  and  C_14
REMARK    8  A    between atoms: C_14  and  O_16
REMARK                            x       y       z     vdW  Elec       q    Type
REMARK                         _______ _______ _______ _____ _____    ______ ____
ROOT
ATOM      1  C   UNL     1       3.162   4.977  18.328  0.00  0.00    +0.000 A 
ATOM      2  C   UNL     1       2.019   4.207  17.956  0.00  0.00    +0.000 A 
ATOM      3  C   UNL     1       2.036   2.811  18.095  0.00  0.00    +0.000 A 
ATOM      4  C   UNL     1       3.131   2.195  18.665  0.00  0.00    +0.000 A 
ATOM      5  C   UNL     1       4.241   2.949  19.068  0.00  0.00    +0.000 A 
ATOM      6  C   UNL     1       4.300   4.347  18.896  0.00  0.00    +0.000 A 
ENDROOT
BRANCH   2   7
ATOM      7  N   UNL     1       0.936   4.785  17.256  0.00  0.00    +0.000 N 
ATOM      8  H   UNL     1       0.145   4.149  17.186  0.00  0.00    +0.000 HD
ATOM      9  H   UNL     1       1.181   5.220  16.373  0.00  0.00    +0.000 HD
ENDBRANCH   2   7
BRANCH   1  11
ATOM     10  C   UNL     1       2.285   7.236  19.640  0.00  0.00    +0.000 C 
ATOM     11  S   UNL     1       3.035   6.769  18.063  0.00  0.00    +0.000 S 
ENDBRANCH   1  11
BRANCH   4  12
ATOM     12  O   UNL     1       3.185   0.845  18.847  0.00  0.00    +0.000 OA
ATOM     13  H   UNL     1       3.034   0.655  19.789  0.00  0.00    +0.000 HD
ENDBRANCH   4  12
BRANCH   5  14
ATOM     14  O   UNL     1       5.295   2.262  19.622  0.00  0.00    +0.000 OA
ATOM     15  H   UNL     1       5.667   2.867  20.296  0.00  0.00    +0.000 HD
ENDBRANCH   5  14
BRANCH   6  16
ATOM     16  C   UNL     1       5.527   5.031  19.383  0.00  0.00    +0.000 C 
ATOM     17  C   UNL     1       6.612   5.345  18.659  0.00  0.00    +0.000 C 
BRANCH  17  18
ATOM     18  C   UNL     1       7.766   6.004  19.306  0.00  0.00    +0.000 C 
ATOM     19  O   UNL     1       8.383   6.948  18.847  0.00  0.00    +0.000 OA
BRANCH  18  20
ATOM     20  O   UNL     1       8.069   5.420  20.488  0.00  0.00    +0.000 OA
ATOM     21  H   UNL     1       8.734   5.887  21.026  0.00  0.00    +0.000 HD
ENDBRANCH  18  20
ENDBRANCH  17  18
ENDBRANCH   6  16
TORSDOF 7
ENDMDL
MODEL 4
REMARK VINA RESULT:      -5.7      2.846      4.086
REMARK  Name = 
REMARK  8 active torsions:
REMARK  status: ('A' for Active; 'I' for Inactive)
REMARK    1  A    between atoms: C_1  and  S_2
REMARK    2  A    between atoms: S_2  and  C_3
REMARK    3  A    between atoms: C_4  and  N_5
REMARK    4  A    between atoms: C_7  and  O_8
REMARK    5  A    between atoms: C_9  and  O_10
REMARK    6  A    between atoms: C_11  and  C_12
REMARK    7  A    between atoms: C_13  and  C_14
REMARK    8  A    between atoms: C_14  and  O_16
REMARK                            x       y       z     vdW  Elec       q    Type
REMARK                         _______ _______ _______ _____ _____    ______ ____
ROOT
ATOM      1  C   UNL     1       4.446   4.298  17.626  0.00  0.00    +0.000 A 
ATOM      2  C   UNL     1       4.550   4.914  18.909  0.00  0.00    +0.000 A 
ATOM      3  C   UNL     1       5.798   5.347  19.382  0.00  0.00    +0.000 A 
ATOM      4  C   UNL     1       6.909   5.246  18.569  0.00  0.00    +0.000 A 
ATOM      5  C   UNL     1       6.806   4.678  17.292  0.00  0.00    +0.000 A 
ATOM      6  C   UNL     1       5.589   4.173  16.792  0.00  0.00    +0.000 A 
ENDROOT
BRANCH   2   7
ATOM      7  N   UNL     1       3.466   4.918  19.815  0.00  0.00    +0.000 N 
ATOM      8  H   UNL     1       2.764   4.220  19.572  0.00  0.00    +0.000 HD
ATOM      9  H   UNL     1       3.072   5.833  20.007  0.00  0.00    +0.000 HD
ENDBRANCH   2   7
BRANCH   1  11
ATOM     10  C   UNL     1       2.848   2.060  17.802  0.00  0.00    +0.000 C 
ATOM     11  S   UNL     1       2.787   3.742  17.142  0.00  0.00    +0.000 S 
ENDBRANCH   1  11
BRANCH   4  12
ATOM     12  O   UNL     1       8.137   5.676  18.971  0.00  0.00    +0.000 OA
ATOM     13  H   UNL     1       8.071   6.617  19.213  0.00  0.00    +0.000 HD
ENDBRANCH   4  12
BRANCH   5  14
ATOM     14  O   UNL     1       7.958   4.609  16.545  0.00  0.00    +0.000 OA
ATOM     15  H   UNL     1       7.695   4.891  15.646  0.00  0.00    +0.000 HD
ENDBRANCH   5  14
BRANCH   6  16
ATOM     16  C   UNL     1       5.610   3.613  15.416  0.00  0.00    +0.000 C 
ATOM     17  C   UNL     1       5.538   4.302  14.267  0.00  0.00    +0.000 C 
BRANCH  17  18
ATOM     18  C   UNL     1       5.545   3.586  12.974  0.00  0.00    +0.000 C 
ATOM     19  O   UNL     1       4.609   3.534  12.196  0.00  0.00    +0.000 OA
BRANCH  18  20
ATOM     20  O   UNL     1       6.731   2.975  12.755  0.00  0.00    +0.000 OA
ATOM     21  H   UNL     1       7.300   2.875  13.540  0.00  0.00    +0.000 HD
ENDBRANCH  18  20
ENDBRANCH  17  18
ENDBRANCH   6  16
TORSDOF 7
ENDMDL
MODEL 5
REMARK VINA RESULT:      -5.6      2.866      4.582
REMARK  Name = 
REMARK  8 active torsions:
REMARK  status: ('A' for Active; 'I' for Inactive)
REMARK    1  A    between atoms: C_1  and  S_2
REMARK    2  A    between atoms: S_2  and  C_3
REMARK    3  A    between atoms: C_4  and  N_5
REMARK    4  A    between atoms: C_7  and  O_8
REMARK    5  A    between atoms: C_9  and  O_10
REMARK    6  A    between atoms: C_11  and  C_12
REMARK    7  A    between atoms: C_13  and  C_14
REMARK    8  A    between atoms: C_14  and  O_16
REMARK                            x       y       z     vdW  Elec       q    Type
REMARK                         _______ _______ _______ _____ _____    ______ ____
ROOT
ATOM      1  C   UNL     1       4.039   4.030  18.907  0.00  0.00    +0.000 A 
ATOM      2  C   UNL     1       4.089   2.633  19.195  0.00  0.00    +0.000 A 
ATOM      3  C   UNL     1       2.970   1.823  18.946  0.00  0.00    +0.000 A 
ATOM      4  C   UNL     1       1.851   2.369  18.349  0.00  0.00    +0.000 A 
ATOM      5  C   UNL     1       1.811   3.733  18.028  0.00  0.00    +0.000 A 
ATOM      6  C   UNL     1       2.883   4.602  18.312  0.00  0.00    +0.000 A 
ENDROOT
BRANCH   2   7
ATOM      7  N   UNL     1       5.162   2.067  19.919  0.00  0.00    +0.000 N 
ATOM      8  H   UNL     1       5.791   1.539  19.317  0.00  0.00    +0.000 HD
ATOM      9  H   UNL     1       4.894   1.564  20.758  0.00  0.00    +0.000 HD
ENDBRANCH   2   7
BRANCH   1  11
ATOM     10  C   UNL     1       6.429   4.773  17.755  0.00  0.00    +0.000 C 
ATOM     11  S   UNL     1       5.533   4.980  19.312  0.00  0.00    +0.000 S 
ENDBRANCH   1  11
BRANCH   4  12
ATOM     12  O   UNL     1       0.750   1.620  18.062  0.00  0.00    +0.000 OA
ATOM     13  H   UNL     1       0.759   0.828  18.628  0.00  0.00    +0.000 HD
ENDBRANCH   4  12
BRANCH   5  14
ATOM     14  O   UNL     1       0.660   4.201  17.441  0.00  0.00    +0.000 OA
ATOM     15  H   UNL     1       0.931   5.010  16.959  0.00  0.00    +0.000 HD
ENDBRANCH   5  14
BRANCH   6  16
ATOM     16  C   UNL     1       2.722   6.022  17.904  0.00  0.00    +0.000 C 
ATOM     17  C   UNL     1       2.411   7.056  18.701  0.00  0.00    +0.000 C 
BRANCH  17  18
ATOM     18  C   UNL     1       2.260   8.410  18.128  0.00  0.00    +0.000 C 
ATOM     19  O   UNL     1       2.732   8.780  17.068  0.00  0.00    +0.000 OA
BRANCH  18  20
ATOM     20  O   UNL     1       1.528   9.208  18.937  0.00  0.00    +0.000 OA
ATOM     21  H   UNL     1       0.726   8.800  19.313  0.00  0.00    +0.000 HD
ENDBRANCH  18  20
ENDBRANCH  17  18
ENDBRANCH   6  16
TORSDOF 7
ENDMDL
MODEL 6
REMARK VINA RESULT:      -5.6      1.425      1.480
REMARK  Name = 
REMARK  8 active torsions:
REMARK  status: ('A' for Active; 'I' for Inactive)
REMARK    1  A    between atoms: C_1  and  S_2
REMARK    2  A    between atoms: S_2  and  C_3
REMARK    3  A    between atoms: C_4  and  N_5
REMARK    4  A    between atoms: C_7  and  O_8
REMARK    5  A    between atoms: C_9  and  O_10
REMARK    6  A    between atoms: C_11  and  C_12
REMARK    7  A    between atoms: C_13  and  C_14
REMARK    8  A    between atoms: C_14  and  O_16
REMARK                            x       y       z     vdW  Elec       q    Type
REMARK                         _______ _______ _______ _____ _____    ______ ____
ROOT
ATOM      1  C   UNL     1       2.353   3.808  18.696  0.00  0.00    +0.000 A 
ATOM      2  C   UNL     1       1.490   4.048  19.807  0.00  0.00    +0.000 A 
ATOM      3  C   UNL     1       1.469   5.309  20.421  0.00  0.00    +0.000 A 
ATOM      4  C   UNL     1       2.227   6.337  19.898  0.00  0.00    +0.000 A 
ATOM      5  C   UNL     1       3.048   6.117  18.783  0.00  0.00    +0.000 A 
ATOM      6  C   UNL     1       3.152   4.855  18.165  0.00  0.00    +0.000 A 
ENDROOT
BRANCH   2   7
ATOM      7  N   UNL     1       0.799   2.994  20.446  0.00  0.00    +0.000 N 
ATOM      8  H   UNL     1      -0.197   3.010  20.237  0.00  0.00    +0.000 HD
ATOM      9  H   UNL     1       1.001   2.887  21.434  0.00  0.00    +0.000 HD
ENDBRANCH   2   7
BRANCH   1  11
ATOM     10  C   UNL     1       3.802   1.467  18.815  0.00  0.00    +0.000 C 
ATOM     11  S   UNL     1       2.322   2.126  18.012  0.00  0.00    +0.000 S 
ENDBRANCH   1  11
BRANCH   4  12
ATOM     12  O   UNL     1       2.222   7.586  20.442  0.00  0.00    +0.000 OA
ATOM     13  H   UNL     1       3.132   7.932  20.428  0.00  0.00    +0.000 HD
ENDBRANCH   4  12
BRANCH   5  14
ATOM     14  O   UNL     1       3.777   7.190  18.324  0.00  0.00    +0.000 OA
ATOM     15  H   UNL     1       3.774   7.100  17.349  0.00  0.00    +0.000 HD
ENDBRANCH   5  14
BRANCH   6  16
ATOM     16  C   UNL     1       4.043   4.761  16.979  0.00  0.00    +0.000 C 
ATOM     17  C   UNL     1       5.326   4.371  16.968  0.00  0.00    +0.000 C 
BRANCH  17  18
ATOM     18  C   UNL     1       6.084   4.359  15.699  0.00  0.00    +0.000 C 
ATOM     19  O   UNL     1       5.609   4.136  14.600  0.00  0.00    +0.000 OA
BRANCH  18  20
ATOM     20  O   UNL     1       7.394   4.623  15.905  0.00  0.00    +0.000 OA
ATOM     21  H   UNL     1       7.727   4.411  16.796  0.00  0.00    +0.000 HD
ENDBRANCH  18  20
ENDBRANCH  17  18
ENDBRANCH   6  16
TORSDOF 7
ENDMDL
MODEL 7
REMARK VINA RESULT:      -5.6      2.978      4.131
REMARK  Name = 
REMARK  8 active torsions:
REMARK  status: ('A' for Active; 'I' for Inactive)
REMARK    1  A    between atoms: C_1  and  S_2
REMARK    2  A    between atoms: S_2  and  C_3
REMARK    3  A    between atoms: C_4  and  N_5
REMARK    4  A    between atoms: C_7  and  O_8
REMARK    5  A    between atoms: C_9  and  O_10
REMARK    6  A    between atoms: C_11  and  C_12
REMARK    7  A    between atoms: C_13  and  C_14
REMARK    8  A    between atoms: C_14  and  O_16
REMARK                            x       y       z     vdW  Elec       q    Type
REMARK                         _______ _______ _______ _____ _____    ______ ____
ROOT
ATOM      1  C   UNL     1       4.911   4.211  17.515  0.00  0.00    +0.000 A 
ATOM      2  C   UNL     1       5.156   4.515  18.887  0.00  0.00    +0.000 A 
ATOM      3  C   UNL     1       6.231   5.345  19.242  0.00  0.00    +0.000 A 
ATOM      4  C   UNL     1       6.999   5.928  18.255  0.00  0.00    +0.000 A 
ATOM      5  C   UNL     1       6.738   5.663  16.903  0.00  0.00    +0.000 A 
ATOM      6  C   UNL     1       5.710   4.791  16.494  0.00  0.00    +0.000 A 
ENDROOT
BRANCH   2   7
ATOM      7  N   UNL     1       4.476   3.841  19.926  0.00  0.00    +0.000 N 
ATOM      8  H   UNL     1       3.467   3.966  19.863  0.00  0.00    +0.000 HD
ATOM      9  H   UNL     1       4.844   4.005  20.856  0.00  0.00    +0.000 HD
ENDBRANCH   2   7
BRANCH   1  11
ATOM     10  C   UNL     1       2.155   4.231  17.528  0.00  0.00    +0.000 C 
ATOM     11  S   UNL     1       3.518   3.094  17.184  0.00  0.00    +0.000 S 
ENDBRANCH   1  11
BRANCH   4  12
ATOM     12  O   UNL     1       8.036   6.761  18.546  0.00  0.00    +0.000 OA
ATOM     13  H   UNL     1       8.161   7.372  17.798  0.00  0.00    +0.000 HD
ENDBRANCH   4  12
BRANCH   5  14
ATOM     14  O   UNL     1       7.551   6.277  15.979  0.00  0.00    +0.000 OA
ATOM     15  H   UNL     1       8.253   5.624  15.784  0.00  0.00    +0.000 HD
ENDBRANCH   5  14
BRANCH   6  16
ATOM     16  C   UNL     1       5.526   4.611  15.030  0.00  0.00    +0.000 C 
ATOM     17  C   UNL     1       6.179   3.746  14.239  0.00  0.00    +0.000 C 
BRANCH  17  18
ATOM     18  C   UNL     1       5.895   3.713  12.789  0.00  0.00    +0.000 C 
ATOM     19  O   UNL     1       4.807   3.482  12.292  0.00  0.00    +0.000 OA
BRANCH  18  20
ATOM     20  O   UNL     1       7.007   3.965  12.063  0.00  0.00    +0.000 OA
ATOM     21  H   UNL     1       7.849   3.877  12.546  0.00  0.00    +0.000 HD
ENDBRANCH  18  20
ENDBRANCH  17  18
ENDBRANCH   6  16
TORSDOF 7
ENDMDL
MODEL 8
REMARK VINA RESULT:      -5.6      3.507      5.234
REMARK  Name = 
REMARK  8 active torsions:
REMARK  status: ('A' for Active; 'I' for Inactive)
REMARK    1  A    between atoms: C_1  and  S_2
REMARK    2  A    between atoms: S_2  and  C_3
REMARK    3  A    between atoms: C_4  and  N_5
REMARK    4  A    between atoms: C_7  and  O_8
REMARK    5  A    between atoms: C_9  and  O_10
REMARK    6  A    between atoms: C_11  and  C_12
REMARK    7  A    between atoms: C_13  and  C_14
REMARK    8  A    between atoms: C_14  and  O_16
REMARK                            x       y       z     vdW  Elec       q    Type
REMARK                         _______ _______ _______ _____ _____    ______ ____
ROOT
ATOM      1  C   UNL     1       4.224   5.238  17.328  0.00  0.00    +0.000 A 
ATOM      2  C   UNL     1       4.529   3.873  17.042  0.00  0.00    +0.000 A 
ATOM      3  C   UNL     1       3.875   2.846  17.740  0.00  0.00    +0.000 A 
ATOM      4  C   UNL     1       2.883   3.160  18.646  0.00  0.00    +0.000 A 
ATOM      5  C   UNL     1       2.552   4.498  18.903  0.00  0.00    +0.000 A 
ATOM      6  C   UNL     1       3.218   5.568  18.274  0.00  0.00    +0.000 A 
ENDROOT
BRANCH   2   7
ATOM      7  N   UNL     1       5.621   3.518  16.219  0.00  0.00    +0.000 N 
ATOM      8  H   UNL     1       6.267   2.891  16.694  0.00  0.00    +0.000 HD
ATOM      9  H   UNL     1       6.081   4.296  15.760  0.00  0.00    +0.000 HD
ENDBRANCH   2   7
BRANCH   1  11
ATOM     10  C   UNL     1       6.561   6.687  17.518  0.00  0.00    +0.000 C 
ATOM     11  S   UNL     1       5.164   6.477  16.390  0.00  0.00    +0.000 S 
ENDBRANCH   1  11
BRANCH   4  12
ATOM     12  O   UNL     1       2.201   2.199  19.330  0.00  0.00    +0.000 OA
ATOM     13  H   UNL     1       2.506   1.327  19.023  0.00  0.00    +0.000 HD
ENDBRANCH   4  12
BRANCH   5  14
ATOM     14  O   UNL     1       1.556   4.729  19.822  0.00  0.00    +0.000 OA
ATOM     15  H   UNL     1       1.760   5.608  20.201  0.00  0.00    +0.000 HD
ENDBRANCH   5  14
BRANCH   6  16
ATOM     16  C   UNL     1       2.759   6.939  18.619  0.00  0.00    +0.000 C 
ATOM     17  C   UNL     1       2.132   7.805  17.808  0.00  0.00    +0.000 C 
BRANCH  17  18
ATOM     18  C   UNL     1       1.766   9.148  18.303  0.00  0.00    +0.000 C 
ATOM     19  O   UNL     1       1.339   9.394  19.417  0.00  0.00    +0.000 OA
BRANCH  18  20
ATOM     20  O   UNL     1       1.954  10.092  17.353  0.00  0.00    +0.000 OA
ATOM     21  H   UNL     1       2.654  10.743  17.544  0.00  0.00    +0.000 HD
ENDBRANCH  18  20
ENDBRANCH  17  18
ENDBRANCH   6  16
TORSDOF 7
ENDMDL
MODEL 9
REMARK VINA RESULT:      -5.6      2.209      4.956
REMARK  Name = 
REMARK  8 active torsions:
REMARK  status: ('A' for Active; 'I' for Inactive)
REMARK    1  A    between atoms: C_1  and  S_2
REMARK    2  A    between atoms: S_2  and  C_3
REMARK    3  A    between atoms: C_4  and  N_5
REMARK    4  A    between atoms: C_7  and  O_8
REMARK    5  A    between atoms: C_9  and  O_10
REMARK    6  A    between atoms: C_11  and  C_12
REMARK    7  A    between atoms: C_13  and  C_14
REMARK    8  A    between atoms: C_14  and  O_16
REMARK                            x       y       z     vdW  Elec       q    Type
REMARK                         _______ _______ _______ _____ _____    ______ ____
ROOT
ATOM      1  C   UNL     1       4.208   5.217  18.495  0.00  0.00    +0.000 A 
ATOM      2  C   UNL     1       5.330   4.337  18.541  0.00  0.00    +0.000 A 
ATOM      3  C   UNL     1       6.321   4.409  17.550  0.00  0.00    +0.000 A 
ATOM      4  C   UNL     1       6.245   5.385  16.577  0.00  0.00    +0.000 A 
ATOM      5  C   UNL     1       5.164   6.278  16.550  0.00  0.00    +0.000 A 
ATOM      6  C   UNL     1       4.113   6.211  17.485  0.00  0.00    +0.000 A 
ENDROOT
BRANCH   2   7
ATOM      7  N   UNL     1       5.378   3.249  19.441  0.00  0.00    +0.000 N 
ATOM      8  H   UNL     1       4.547   2.663  19.374  0.00  0.00    +0.000 HD
ATOM      9  H   UNL     1       5.622   3.493  20.394  0.00  0.00    +0.000 HD
ENDBRANCH   2   7
BRANCH   1  11
ATOM     10  C   UNL     1       1.757   4.022  18.894  0.00  0.00    +0.000 C 
ATOM     11  S   UNL     1       2.972   5.001  19.808  0.00  0.00    +0.000 S 
ENDBRANCH   1  11
BRANCH   4  12
ATOM     12  O   UNL     1       7.194   5.514  15.609  0.00  0.00    +0.000 OA
ATOM     13  H   UNL     1       8.009   5.853  16.019  0.00  0.00    +0.000 HD
ENDBRANCH   4  12
BRANCH   5  14
ATOM     14  O   UNL     1       5.158   7.219  15.547  0.00  0.00    +0.000 OA
ATOM     15  H   UNL     1       5.135   6.703  14.715  0.00  0.00    +0.000 HD
ENDBRANCH   5  14
BRANCH   6  16
ATOM     16  C   UNL     1       3.036   7.228  17.358  0.00  0.00    +0.000 C 
ATOM     17  C   UNL     1       2.963   8.405  17.998  0.00  0.00    +0.000 C 
BRANCH  17  18
ATOM     18  C   UNL     1       1.804   9.295  17.778  0.00  0.00    +0.000 C 
ATOM     19  O   UNL     1       0.636   8.955  17.845  0.00  0.00    +0.000 OA
BRANCH  18  20
ATOM     20  O   UNL     1       2.197  10.553  17.480  0.00  0.00    +0.000 OA
ATOM     21  H   UNL     1       3.160  10.678  17.388  0.00  0.00    +0.000 HD
ENDBRANCH  18  20
ENDBRANCH  17  18
ENDBRANCH   6  16
TORSDOF 7
ENDMDL
