MODEL 1
REMARK VINA RESULT:      -8.0      0.000      0.000
REMARK  Name = 
REMARK  10 active torsions:
REMARK  status: ('A' for Active; 'I' for Inactive)
REMARK    1  A    between atoms: C_1  and  C_2
REMARK    2  A    between atoms: C_2  and  C_3
REMARK    3  A    between atoms: C_3  and  C_4
REMARK    4  A    between atoms: C_4  and  C_5
REMARK    5  A    between atoms: C_6  and  C_7
REMARK    6  A    between atoms: N_16  and  C_17
REMARK    7  A    between atoms: C_17  and  C_18
REMARK    8  A    between atoms: C_18  and  C_19
REMARK    9  A    between atoms: C_24  and  O_25
REMARK   10  A    between atoms: O_25  and  C_26
REMARK                            x       y       z     vdW  Elec       q    Type
REMARK                         _______ _______ _______ _____ _____    ______ ____
ROOT
ATOM      1  C   UNL     1       2.529   6.325  19.702  0.00  0.00    +0.000 A 
ATOM      2  C   UNL     1       2.261   7.615  19.266  0.00  0.00    +0.000 A 
ATOM      3  N   UNL     1       2.880   7.837  18.055  0.00  0.00    +0.000 NA
ATOM      4  C   UNL     1       3.576   6.752  17.804  0.00  0.00    +0.000 A 
ATOM      5  N   UNL     1       3.497   5.861  18.831  0.00  0.00    +0.000 N 
ENDROOT
BRANCH   2   6
ATOM      6  C   UNL     1       1.377   8.591  19.895  0.00  0.00    +0.000 A 
ATOM      7  C   UNL     1       0.690   9.547  19.128  0.00  0.00    +0.000 A 
ATOM      8  C   UNL     1      -0.148  10.492  19.727  0.00  0.00    +0.000 A 
ATOM      9  C   UNL     1      -0.341  10.466  21.101  0.00  0.00    +0.000 A 
ATOM     10  C   UNL     1       0.303   9.499  21.870  0.00  0.00    +0.000 A 
ATOM     11 CL   UNL     1       0.021   9.451  23.570  0.00  0.00    +0.000 Cl
ATOM     12  C   UNL     1       1.162   8.569  21.277  0.00  0.00    +0.000 A 
ENDBRANCH   2   6
BRANCH   1  13
ATOM     13  C   UNL     1       1.890   5.459  20.734  0.00  0.00    +0.000 C 
BRANCH  13  14
ATOM     14  C   UNL     1       0.950   4.441  20.087  0.00  0.00    +0.000 C 
BRANCH  14  16
ATOM     15  C   UNL     1       2.242   2.959  21.655  0.00  0.00    +0.000 C 
ATOM     16  C   UNL     1       1.100   3.028  20.655  0.00  0.00    +0.000 C 
ENDBRANCH  14  16
ENDBRANCH  13  14
ENDBRANCH   1  13
BRANCH   5  17
ATOM     17  C   UNL     1       4.173   4.579  18.944  0.00  0.00    +0.000 C 
BRANCH  17  18
ATOM     18  C   UNL     1       5.672   4.551  18.643  0.00  0.00    +0.000 C 
BRANCH  18  19
ATOM     19  C   UNL     1       5.996   4.538  17.154  0.00  0.00    +0.000 A 
ATOM     20  C   UNL     1       5.222   3.791  16.244  0.00  0.00    +0.000 A 
ATOM     21  C   UNL     1       5.519   3.784  14.879  0.00  0.00    +0.000 A 
ATOM     22  C   UNL     1       6.573   4.549  14.397  0.00  0.00    +0.000 A 
ATOM     23  C   UNL     1       7.333   5.318  15.276  0.00  0.00    +0.000 A 
ATOM     24  C   UNL     1       7.061   5.313  16.649  0.00  0.00    +0.000 A 
BRANCH  24  25
ATOM     25  O   UNL     1       7.763   6.051  17.567  0.00  0.00    +0.000 OA
ATOM     26  C   UNL     1       7.578   7.461  17.524  0.00  0.00    +0.000 C 
ENDBRANCH  24  25
ENDBRANCH  18  19
ENDBRANCH  17  18
ENDBRANCH   5  17
TORSDOF 8
ENDMDL
MODEL 2
REMARK VINA RESULT:      -7.6      2.241      4.359
REMARK  Name = 
REMARK  10 active torsions:
REMARK  status: ('A' for Active; 'I' for Inactive)
REMARK    1  A    between atoms: C_1  and  C_2
REMARK    2  A    between atoms: C_2  and  C_3
REMARK    3  A    between atoms: C_3  and  C_4
REMARK    4  A    between atoms: C_4  and  C_5
REMARK    5  A    between atoms: C_6  and  C_7
REMARK    6  A    between atoms: N_16  and  C_17
REMARK    7  A    between atoms: C_17  and  C_18
REMARK    8  A    between atoms: C_18  and  C_19
REMARK    9  A    between atoms: C_24  and  O_25
REMARK   10  A    between atoms: O_25  and  C_26
REMARK                            x       y       z     vdW  Elec       q    Type
REMARK                         _______ _______ _______ _____ _____    ______ ____
ROOT
ATOM      1  C   UNL     1       1.214   8.865  19.821  0.00  0.00    +0.000 A 
ATOM      2  C   UNL     1       0.910   9.983  19.058  0.00  0.00    +0.000 A 
ATOM      3  N   UNL     1       1.388   9.818  17.777  0.00  0.00    +0.000 NA
ATOM      4  C   UNL     1       2.041   8.679  17.781  0.00  0.00    +0.000 A 
ATOM      5  N   UNL     1       2.073   8.128  19.027  0.00  0.00    +0.000 N 
ENDROOT
BRANCH   2   6
ATOM      6  C   UNL     1       0.111  11.135  19.464  0.00  0.00    +0.000 A 
ATOM      7  C   UNL     1       0.718  12.290  19.987  0.00  0.00    +0.000 A 
ATOM      8  C   UNL     1      -0.043  13.391  20.389  0.00  0.00    +0.000 A 
ATOM      9  C   UNL     1      -1.422  13.367  20.234  0.00  0.00    +0.000 A 
ATOM     10  C   UNL     1      -2.034  12.244  19.679  0.00  0.00    +0.000 A 
ATOM     11 CL   UNL     1      -3.743  12.244  19.451  0.00  0.00    +0.000 Cl
ATOM     12  C   UNL     1      -1.278  11.131  19.300  0.00  0.00    +0.000 A 
ENDBRANCH   2   6
BRANCH   1  13
ATOM     13  C   UNL     1       0.690   8.362  21.125  0.00  0.00    +0.000 C 
BRANCH  13  14
ATOM     14  C   UNL     1       0.955   9.370  22.244  0.00  0.00    +0.000 C 
BRANCH  14  16
ATOM     15  C   UNL     1      -0.930  10.843  23.018  0.00  0.00    +0.000 C 
ATOM     16  C   UNL     1      -0.216   9.517  23.218  0.00  0.00    +0.000 C 
ENDBRANCH  14  16
ENDBRANCH  13  14
ENDBRANCH   1  13
BRANCH   5  17
ATOM     17  C   UNL     1       2.746   6.907  19.437  0.00  0.00    +0.000 C 
BRANCH  17  18
ATOM     18  C   UNL     1       3.468   6.109  18.350  0.00  0.00    +0.000 C 
BRANCH  18  19
ATOM     19  C   UNL     1       3.027   4.653  18.268  0.00  0.00    +0.000 A 
ATOM     20  C   UNL     1       1.712   4.267  18.595  0.00  0.00    +0.000 A 
ATOM     21  C   UNL     1       1.309   2.933  18.515  0.00  0.00    +0.000 A 
ATOM     22  C   UNL     1       2.204   1.965  18.076  0.00  0.00    +0.000 A 
ATOM     23  C   UNL     1       3.502   2.329  17.719  0.00  0.00    +0.000 A 
ATOM     24  C   UNL     1       3.924   3.660  17.820  0.00  0.00    +0.000 A 
BRANCH  24  25
ATOM     25  O   UNL     1       5.181   4.088  17.479  0.00  0.00    +0.000 OA
ATOM     26  C   UNL     1       5.545   3.963  16.109  0.00  0.00    +0.000 C 
ENDBRANCH  24  25
ENDBRANCH  18  19
ENDBRANCH  17  18
ENDBRANCH   5  17
TORSDOF 8
ENDMDL
MODEL 3
REMARK VINA RESULT:      -7.6      3.197      4.774
REMARK  Name = 
REMARK  10 active torsions:
REMARK  status: ('A' for Active; 'I' for Inactive)
REMARK    1  A    between atoms: C_1  and  C_2
REMARK    2  A    between atoms: C_2  and  C_3
REMARK    3  A    between atoms: C_3  and  C_4
REMARK    4  A    between atoms: C_4  and  C_5
REMARK    5  A    between atoms: C_6  and  C_7
REMARK    6  A    between atoms: N_16  and  C_17
REMARK    7  A    between atoms: C_17  and  C_18
REMARK    8  A    between atoms: C_18  and  C_19
REMARK    9  A    between atoms: C_24  and  O_25
REMARK   10  A    between atoms: O_25  and  C_26
REMARK                            x       y       z     vdW  Elec       q    Type
REMARK                         _______ _______ _______ _____ _____    ______ ____
ROOT
ATOM      1  C   UNL     1       1.262   8.691  19.806  0.00  0.00    +0.000 A 
ATOM      2  C   UNL     1       1.033   9.733  18.919  0.00  0.00    +0.000 A 
ATOM      3  N   UNL     1       1.622   9.453  17.706  0.00  0.00    +0.000 NA
ATOM      4  C   UNL     1       2.267   8.322  17.873  0.00  0.00    +0.000 A 
ATOM      5  N   UNL     1       2.185   7.888  19.163  0.00  0.00    +0.000 N 
ENDROOT
BRANCH   2   6
ATOM      6  C   UNL     1       0.207  10.915  19.144  0.00  0.00    +0.000 A 
ATOM      7  C   UNL     1       0.783  12.143  19.512  0.00  0.00    +0.000 A 
ATOM      8  C   UNL     1      -0.005  13.275  19.741  0.00  0.00    +0.000 A 
ATOM      9  C   UNL     1      -1.380  13.202  19.565  0.00  0.00    +0.000 A 
ATOM     10  C   UNL     1      -1.961  12.002  19.162  0.00  0.00    +0.000 A 
ATOM     11 CL   UNL     1      -3.664  11.936  18.905  0.00  0.00    +0.000 Cl
ATOM     12  C   UNL     1      -1.179  10.861  18.957  0.00  0.00    +0.000 A 
ENDBRANCH   2   6
BRANCH   1  13
ATOM     13  C   UNL     1       0.621   8.309  21.098  0.00  0.00    +0.000 C 
BRANCH  13  14
ATOM     14  C   UNL     1       1.167   9.155  22.249  0.00  0.00    +0.000 C 
BRANCH  14  16
ATOM     15  C   UNL     1      -0.801  10.643  22.734  0.00  0.00    +0.000 C 
ATOM     16  C   UNL     1       0.101   9.546  23.273  0.00  0.00    +0.000 C 
ENDBRANCH  14  16
ENDBRANCH  13  14
ENDBRANCH   1  13
BRANCH   5  17
ATOM     17  C   UNL     1       2.813   6.712  19.742  0.00  0.00    +0.000 C 
BRANCH  17  18
ATOM     18  C   UNL     1       1.920   5.496  19.993  0.00  0.00    +0.000 C 
BRANCH  18  19
ATOM     19  C   UNL     1       2.310   4.272  19.174  0.00  0.00    +0.000 A 
ATOM     20  C   UNL     1       2.333   4.312  17.765  0.00  0.00    +0.000 A 
ATOM     21  C   UNL     1       2.694   3.190  17.017  0.00  0.00    +0.000 A 
ATOM     22  C   UNL     1       3.071   2.020  17.663  0.00  0.00    +0.000 A 
ATOM     23  C   UNL     1       3.084   1.967  19.056  0.00  0.00    +0.000 A 
ATOM     24  C   UNL     1       2.698   3.078  19.816  0.00  0.00    +0.000 A 
BRANCH  24  25
ATOM     25  O   UNL     1       2.695   3.097  21.187  0.00  0.00    +0.000 OA
ATOM     26  C   UNL     1       1.564   2.520  21.829  0.00  0.00    +0.000 C 
ENDBRANCH  24  25
ENDBRANCH  18  19
ENDBRANCH  17  18
ENDBRANCH   5  17
TORSDOF 8
ENDMDL
MODEL 4
REMARK VINA RESULT:      -7.6      1.284      1.630
REMARK  Name = 
REMARK  10 active torsions:
REMARK  status: ('A' for Active; 'I' for Inactive)
REMARK    1  A    between atoms: C_1  and  C_2
REMARK    2  A    between atoms: C_2  and  C_3
REMARK    3  A    between atoms: C_3  and  C_4
REMARK    4  A    between atoms: C_4  and  C_5
REMARK    5  A    between atoms: C_6  and  C_7
REMARK    6  A    between atoms: N_16  and  C_17
REMARK    7  A    between atoms: C_17  and  C_18
REMARK    8  A    between atoms: C_18  and  C_19
REMARK    9  A    between atoms: C_24  and  O_25
REMARK   10  A    between atoms: O_25  and  C_26
REMARK                            x       y       z     vdW  Elec       q    Type
REMARK                         _______ _______ _______ _____ _____    ______ ____
ROOT
ATOM      1  C   UNL     1       2.592   6.291  19.837  0.00  0.00    +0.000 A 
ATOM      2  C   UNL     1       2.246   7.559  19.393  0.00  0.00    +0.000 A 
ATOM      3  N   UNL     1       2.819   7.796  18.163  0.00  0.00    +0.000 NA
ATOM      4  C   UNL     1       3.563   6.745  17.906  0.00  0.00    +0.000 A 
ATOM      5  N   UNL     1       3.559   5.865  18.946  0.00  0.00    +0.000 N 
ENDROOT
BRANCH   2   6
ATOM      6  C   UNL     1       1.330   8.497  20.035  0.00  0.00    +0.000 A 
ATOM      7  C   UNL     1       1.132   8.481  21.426  0.00  0.00    +0.000 A 
ATOM      8  C   UNL     1       0.247   9.369  22.042  0.00  0.00    +0.000 A 
ATOM      9  C   UNL     1      -0.423  10.314  21.278  0.00  0.00    +0.000 A 
ATOM     10  C   UNL     1      -0.207  10.368  19.902  0.00  0.00    +0.000 A 
ATOM     11 CL   UNL     1      -1.012  11.574  18.971  0.00  0.00    +0.000 Cl
ATOM     12  C   UNL     1       0.659   9.464  19.278  0.00  0.00    +0.000 A 
ENDBRANCH   2   6
BRANCH   1  13
ATOM     13  C   UNL     1       2.027   5.407  20.898  0.00  0.00    +0.000 C 
BRANCH  13  14
ATOM     14  C   UNL     1       0.869   4.571  20.352  0.00  0.00    +0.000 C 
BRANCH  14  16
ATOM     15  C   UNL     1       1.638   2.564  21.658  0.00  0.00    +0.000 C 
ATOM     16  C   UNL     1       1.172   3.072  20.304  0.00  0.00    +0.000 C 
ENDBRANCH  14  16
ENDBRANCH  13  14
ENDBRANCH   1  13
BRANCH   5  17
ATOM     17  C   UNL     1       4.303   4.621  19.056  0.00  0.00    +0.000 C 
BRANCH  17  18
ATOM     18  C   UNL     1       4.281   3.686  17.845  0.00  0.00    +0.000 C 
BRANCH  18  19
ATOM     19  C   UNL     1       5.252   4.090  16.743  0.00  0.00    +0.000 A 
ATOM     20  C   UNL     1       4.848   4.136  15.394  0.00  0.00    +0.000 A 
ATOM     21  C   UNL     1       5.738   4.512  14.386  0.00  0.00    +0.000 A 
ATOM     22  C   UNL     1       7.037   4.878  14.712  0.00  0.00    +0.000 A 
ATOM     23  C   UNL     1       7.450   4.868  16.044  0.00  0.00    +0.000 A 
ATOM     24  C   UNL     1       6.573   4.469  17.059  0.00  0.00    +0.000 A 
BRANCH  24  25
ATOM     25  O   UNL     1       6.910   4.443  18.389  0.00  0.00    +0.000 OA
ATOM     26  C   UNL     1       7.756   5.490  18.850  0.00  0.00    +0.000 C 
ENDBRANCH  24  25
ENDBRANCH  18  19
ENDBRANCH  17  18
ENDBRANCH   5  17
TORSDOF 8
ENDMDL
MODEL 5
REMARK VINA RESULT:      -7.6      3.689      7.842
REMARK  Name = 
REMARK  10 active torsions:
REMARK  status: ('A' for Active; 'I' for Inactive)
REMARK    1  A    between atoms: C_1  and  C_2
REMARK    2  A    between atoms: C_2  and  C_3
REMARK    3  A    between atoms: C_3  and  C_4
REMARK    4  A    between atoms: C_4  and  C_5
REMARK    5  A    between atoms: C_6  and  C_7
REMARK    6  A    between atoms: N_16  and  C_17
REMARK    7  A    between atoms: C_17  and  C_18
REMARK    8  A    between atoms: C_18  and  C_19
REMARK    9  A    between atoms: C_24  and  O_25
REMARK   10  A    between atoms: O_25  and  C_26
REMARK                            x       y       z     vdW  Elec       q    Type
REMARK                         _______ _______ _______ _____ _____    ______ ____
ROOT
ATOM      1  C   UNL     1       2.150   7.522  19.301  0.00  0.00    +0.000 A 
ATOM      2  C   UNL     1       2.825   7.196  18.134  0.00  0.00    +0.000 A 
ATOM      3  N   UNL     1       2.852   8.285  17.291  0.00  0.00    +0.000 NA
ATOM      4  C   UNL     1       2.139   9.215  17.883  0.00  0.00    +0.000 A 
ATOM      5  N   UNL     1       1.588   8.758  19.042  0.00  0.00    +0.000 N 
ENDROOT
BRANCH   2   6
ATOM      6  C   UNL     1       3.518   5.946  17.837  0.00  0.00    +0.000 A 
ATOM      7  C   UNL     1       2.803   4.768  17.565  0.00  0.00    +0.000 A 
ATOM      8  C   UNL     1       3.462   3.566  17.292  0.00  0.00    +0.000 A 
ATOM      9  C   UNL     1       4.849   3.537  17.247  0.00  0.00    +0.000 A 
ATOM     10  C   UNL     1       5.570   4.707  17.476  0.00  0.00    +0.000 A 
ATOM     11 CL   UNL     1       7.290   4.667  17.375  0.00  0.00    +0.000 Cl
ATOM     12  C   UNL     1       4.915   5.905  17.775  0.00  0.00    +0.000 A 
ENDBRANCH   2   6
BRANCH   1  13
ATOM     13  C   UNL     1       2.094   6.876  20.646  0.00  0.00    +0.000 C 
BRANCH  13  14
ATOM     14  C   UNL     1       1.286   5.579  20.594  0.00  0.00    +0.000 C 
BRANCH  14  16
ATOM     15  C   UNL     1       1.310   3.074  20.812  0.00  0.00    +0.000 C 
ATOM     16  C   UNL     1       2.055   4.364  21.115  0.00  0.00    +0.000 C 
ENDBRANCH  14  16
ENDBRANCH  13  14
ENDBRANCH   1  13
BRANCH   5  17
ATOM     17  C   UNL     1       0.696   9.472  19.940  0.00  0.00    +0.000 C 
BRANCH  17  18
ATOM     18  C   UNL     1       0.246  10.870  19.511  0.00  0.00    +0.000 C 
BRANCH  18  19
ATOM     19  C   UNL     1      -1.121  10.891  18.838  0.00  0.00    +0.000 A 
ATOM     20  C   UNL     1      -1.402  10.071  17.726  0.00  0.00    +0.000 A 
ATOM     21  C   UNL     1      -2.656  10.090  17.114  0.00  0.00    +0.000 A 
ATOM     22  C   UNL     1      -3.661  10.903  17.621  0.00  0.00    +0.000 A 
ATOM     23  C   UNL     1      -3.414  11.701  18.737  0.00  0.00    +0.000 A 
ATOM     24  C   UNL     1      -2.152  11.709  19.343  0.00  0.00    +0.000 A 
BRANCH  24  25
ATOM     25  O   UNL     1      -1.843  12.462  20.447  0.00  0.00    +0.000 OA
ATOM     26  C   UNL     1      -2.491  13.725  20.556  0.00  0.00    +0.000 C 
ENDBRANCH  24  25
ENDBRANCH  18  19
ENDBRANCH  17  18
ENDBRANCH   5  17
TORSDOF 8
ENDMDL
MODEL 6
REMARK VINA RESULT:      -7.5      2.491      4.679
REMARK  Name = 
REMARK  10 active torsions:
REMARK  status: ('A' for Active; 'I' for Inactive)
REMARK    1  A    between atoms: C_1  and  C_2
REMARK    2  A    between atoms: C_2  and  C_3
REMARK    3  A    between atoms: C_3  and  C_4
REMARK    4  A    between atoms: C_4  and  C_5
REMARK    5  A    between atoms: C_6  and  C_7
REMARK    6  A    between atoms: N_16  and  C_17
REMARK    7  A    between atoms: C_17  and  C_18
REMARK    8  A    between atoms: C_18  and  C_19
REMARK    9  A    between atoms: C_24  and  O_25
REMARK   10  A    between atoms: O_25  and  C_26
REMARK                            x       y       z     vdW  Elec       q    Type
REMARK                         _______ _______ _______ _____ _____    ______ ____
ROOT
ATOM      1  C   UNL     1       1.222   8.932  19.700  0.00  0.00    +0.000 A 
ATOM      2  C   UNL     1       1.319   9.936  18.747  0.00  0.00    +0.000 A 
ATOM      3  N   UNL     1       2.014   9.474  17.651  0.00  0.00    +0.000 NA
ATOM      4  C   UNL     1       2.408   8.260  17.961  0.00  0.00    +0.000 A 
ATOM      5  N   UNL     1       2.062   7.936  19.239  0.00  0.00    +0.000 N 
ENDROOT
BRANCH   2   6
ATOM      6  C   UNL     1       0.703  11.258  18.795  0.00  0.00    +0.000 A 
ATOM      7  C   UNL     1      -0.682  11.406  18.984  0.00  0.00    +0.000 A 
ATOM      8  C   UNL     1      -1.278  12.670  19.018  0.00  0.00    +0.000 A 
ATOM      9  C   UNL     1      -0.488  13.806  18.904  0.00  0.00    +0.000 A 
ATOM     10  C   UNL     1       0.891  13.675  18.757  0.00  0.00    +0.000 A 
ATOM     11 CL   UNL     1       1.865  15.094  18.660  0.00  0.00    +0.000 Cl
ATOM     12  C   UNL     1       1.488  12.412  18.696  0.00  0.00    +0.000 A 
ENDBRANCH   2   6
BRANCH   1  13
ATOM     13  C   UNL     1       0.343   8.758  20.893  0.00  0.00    +0.000 C 
BRANCH  13  14
ATOM     14  C   UNL     1       1.015   9.309  22.151  0.00  0.00    +0.000 C 
BRANCH  14  16
ATOM     15  C   UNL     1      -0.941  10.681  22.934  0.00  0.00    +0.000 C 
ATOM     16  C   UNL     1       0.035   9.575  23.295  0.00  0.00    +0.000 C 
ENDBRANCH  14  16
ENDBRANCH  13  14
ENDBRANCH   1  13
BRANCH   5  17
ATOM     17  C   UNL     1       2.372   6.710  19.954  0.00  0.00    +0.000 C 
BRANCH  17  18
ATOM     18  C   UNL     1       3.367   5.750  19.298  0.00  0.00    +0.000 C 
BRANCH  18  19
ATOM     19  C   UNL     1       2.792   4.365  19.028  0.00  0.00    +0.000 A 
ATOM     20  C   UNL     1       1.488   4.022  19.437  0.00  0.00    +0.000 A 
ATOM     21  C   UNL     1       0.962   2.754  19.185  0.00  0.00    +0.000 A 
ATOM     22  C   UNL     1       1.717   1.818  18.490  0.00  0.00    +0.000 A 
ATOM     23  C   UNL     1       2.998   2.146  18.050  0.00  0.00    +0.000 A 
ATOM     24  C   UNL     1       3.546   3.406  18.321  0.00  0.00    +0.000 A 
BRANCH  24  25
ATOM     25  O   UNL     1       4.795   3.797  17.911  0.00  0.00    +0.000 OA
ATOM     26  C   UNL     1       4.990   3.933  16.508  0.00  0.00    +0.000 C 
ENDBRANCH  24  25
ENDBRANCH  18  19
ENDBRANCH  17  18
ENDBRANCH   5  17
TORSDOF 8
ENDMDL
MODEL 7
REMARK VINA RESULT:      -7.5      2.269      4.268
REMARK  Name = 
REMARK  10 active torsions:
REMARK  status: ('A' for Active; 'I' for Inactive)
REMARK    1  A    between atoms: C_1  and  C_2
REMARK    2  A    between atoms: C_2  and  C_3
REMARK    3  A    between atoms: C_3  and  C_4
REMARK    4  A    between atoms: C_4  and  C_5
REMARK    5  A    between atoms: C_6  and  C_7
REMARK    6  A    between atoms: N_16  and  C_17
REMARK    7  A    between atoms: C_17  and  C_18
REMARK    8  A    between atoms: C_18  and  C_19
REMARK    9  A    between atoms: C_24  and  O_25
REMARK   10  A    between atoms: O_25  and  C_26
REMARK                            x       y       z     vdW  Elec       q    Type
REMARK                         _______ _______ _______ _____ _____    ______ ____
ROOT
ATOM      1  C   UNL     1       4.376   5.794  17.373  0.00  0.00    +0.000 A 
ATOM      2  C   UNL     1       3.346   5.912  18.294  0.00  0.00    +0.000 A 
ATOM      3  N   UNL     1       3.171   4.717  18.956  0.00  0.00    +0.000 NA
ATOM      4  C   UNL     1       4.004   3.871  18.395  0.00  0.00    +0.000 A 
ATOM      5  N   UNL     1       4.663   4.442  17.348  0.00  0.00    +0.000 N 
ENDROOT
BRANCH   2   6
ATOM      6  C   UNL     1       2.602   7.121  18.633  0.00  0.00    +0.000 A 
ATOM      7  C   UNL     1       2.283   8.076  17.652  0.00  0.00    +0.000 A 
ATOM      8  C   UNL     1       1.583   9.241  17.975  0.00  0.00    +0.000 A 
ATOM      9  C   UNL     1       1.155   9.448  19.279  0.00  0.00    +0.000 A 
ATOM     10  C   UNL     1       1.429   8.491  20.254  0.00  0.00    +0.000 A 
ATOM     11 CL   UNL     1       0.856   8.740  21.860  0.00  0.00    +0.000 Cl
ATOM     12  C   UNL     1       2.153   7.337  19.941  0.00  0.00    +0.000 A 
ENDBRANCH   2   6
BRANCH   1  13
ATOM     13  C   UNL     1       5.191   6.805  16.638  0.00  0.00    +0.000 C 
BRANCH  13  14
ATOM     14  C   UNL     1       6.255   7.416  17.550  0.00  0.00    +0.000 C 
BRANCH  14  16
ATOM     15  C   UNL     1       7.795   6.040  18.984  0.00  0.00    +0.000 C 
ATOM     16  C   UNL     1       7.552   6.607  17.595  0.00  0.00    +0.000 C 
ENDBRANCH  14  16
ENDBRANCH  13  14
ENDBRANCH   1  13
BRANCH   5  17
ATOM     17  C   UNL     1       5.617   3.809  16.452  0.00  0.00    +0.000 C 
BRANCH  17  18
ATOM     18  C   UNL     1       5.170   3.572  15.009  0.00  0.00    +0.000 C 
BRANCH  18  19
ATOM     19  C   UNL     1       6.138   4.124  13.970  0.00  0.00    +0.000 A 
ATOM     20  C   UNL     1       7.142   5.048  14.325  0.00  0.00    +0.000 A 
ATOM     21  C   UNL     1       8.030   5.549  13.372  0.00  0.00    +0.000 A 
ATOM     22  C   UNL     1       7.952   5.112  12.056  0.00  0.00    +0.000 A 
ATOM     23  C   UNL     1       6.986   4.177  11.689  0.00  0.00    +0.000 A 
ATOM     24  C   UNL     1       6.073   3.687  12.631  0.00  0.00    +0.000 A 
BRANCH  24  25
ATOM     25  O   UNL     1       5.103   2.761  12.341  0.00  0.00    +0.000 OA
ATOM     26  C   UNL     1       4.205   3.090  11.289  0.00  0.00    +0.000 C 
ENDBRANCH  24  25
ENDBRANCH  18  19
ENDBRANCH  17  18
ENDBRANCH   5  17
TORSDOF 8
ENDMDL
MODEL 8
REMARK VINA RESULT:      -7.5      2.453      4.274
REMARK  Name = 
REMARK  10 active torsions:
REMARK  status: ('A' for Active; 'I' for Inactive)
REMARK    1  A    between atoms: C_1  and  C_2
REMARK    2  A    between atoms: C_2  and  C_3
REMARK    3  A    between atoms: C_3  and  C_4
REMARK    4  A    between atoms: C_4  and  C_5
REMARK    5  A    between atoms: C_6  and  C_7
REMARK    6  A    between atoms: N_16  and  C_17
REMARK    7  A    between atoms: C_17  and  C_18
REMARK    8  A    between atoms: C_18  and  C_19
REMARK    9  A    between atoms: C_24  and  O_25
REMARK   10  A    between atoms: O_25  and  C_26
REMARK                            x       y       z     vdW  Elec       q    Type
REMARK                         _______ _______ _______ _____ _____    ______ ____
ROOT
ATOM      1  C   UNL     1       1.057   8.960  19.874  0.00  0.00    +0.000 A 
ATOM      2  C   UNL     1       0.810  10.104  19.129  0.00  0.00    +0.000 A 
ATOM      3  N   UNL     1       1.328   9.957  17.861  0.00  0.00    +0.000 NA
ATOM      4  C   UNL     1       1.949   8.800  17.859  0.00  0.00    +0.000 A 
ATOM      5  N   UNL     1       1.922   8.218  19.091  0.00  0.00    +0.000 N 
ENDROOT
BRANCH   2   6
ATOM      6  C   UNL     1       0.031  11.269  19.537  0.00  0.00    +0.000 A 
ATOM      7  C   UNL     1       0.659  12.428  20.024  0.00  0.00    +0.000 A 
ATOM      8  C   UNL     1      -0.084  13.540  20.427  0.00  0.00    +0.000 A 
ATOM      9  C   UNL     1      -1.467  13.523  20.310  0.00  0.00    +0.000 A 
ATOM     10  C   UNL     1      -2.101  12.396  19.791  0.00  0.00    +0.000 A 
ATOM     11 CL   UNL     1      -3.815  12.403  19.611  0.00  0.00    +0.000 Cl
ATOM     12  C   UNL     1      -1.363  11.271  19.411  0.00  0.00    +0.000 A 
ENDBRANCH   2   6
BRANCH   1  13
ATOM     13  C   UNL     1       0.474   8.441  21.145  0.00  0.00    +0.000 C 
BRANCH  13  14
ATOM     14  C   UNL     1       1.036   9.195  22.351  0.00  0.00    +0.000 C 
BRANCH  14  16
ATOM     15  C   UNL     1      -0.935  10.606  23.016  0.00  0.00    +0.000 C 
ATOM     16  C   UNL     1      -0.008   9.477  23.432  0.00  0.00    +0.000 C 
ENDBRANCH  14  16
ENDBRANCH  13  14
ENDBRANCH   1  13
BRANCH   5  17
ATOM     17  C   UNL     1       2.546   6.969  19.492  0.00  0.00    +0.000 C 
BRANCH  17  18
ATOM     18  C   UNL     1       2.326   5.755  18.588  0.00  0.00    +0.000 C 
BRANCH  18  19
ATOM     19  C   UNL     1       3.551   5.377  17.764  0.00  0.00    +0.000 A 
ATOM     20  C   UNL     1       4.693   6.202  17.732  0.00  0.00    +0.000 A 
ATOM     21  C   UNL     1       5.815   5.851  16.979  0.00  0.00    +0.000 A 
ATOM     22  C   UNL     1       5.828   4.656  16.271  0.00  0.00    +0.000 A 
ATOM     23  C   UNL     1       4.719   3.812  16.312  0.00  0.00    +0.000 A 
ATOM     24  C   UNL     1       3.579   4.166  17.043  0.00  0.00    +0.000 A 
BRANCH  24  25
ATOM     25  O   UNL     1       2.458   3.380  17.133  0.00  0.00    +0.000 OA
ATOM     26  C   UNL     1       2.606   2.138  17.812  0.00  0.00    +0.000 C 
ENDBRANCH  24  25
ENDBRANCH  18  19
ENDBRANCH  17  18
ENDBRANCH   5  17
TORSDOF 8
ENDMDL
MODEL 9
REMARK VINA RESULT:      -7.5      2.371      4.089
REMARK  Name = 
REMARK  10 active torsions:
REMARK  status: ('A' for Active; 'I' for Inactive)
REMARK    1  A    between atoms: C_1  and  C_2
REMARK    2  A    between atoms: C_2  and  C_3
REMARK    3  A    between atoms: C_3  and  C_4
REMARK    4  A    between atoms: C_4  and  C_5
REMARK    5  A    between atoms: C_6  and  C_7
REMARK    6  A    between atoms: N_16  and  C_17
REMARK    7  A    between atoms: C_17  and  C_18
REMARK    8  A    between atoms: C_18  and  C_19
REMARK    9  A    between atoms: C_24  and  O_25
REMARK   10  A    between atoms: O_25  and  C_26
REMARK                            x       y       z     vdW  Elec       q    Type
REMARK                         _______ _______ _______ _____ _____    ______ ____
ROOT
ATOM      1  C   UNL     1       1.216   8.884  19.864  0.00  0.00    +0.000 A 
ATOM      2  C   UNL     1       0.958  10.048  19.155  0.00  0.00    +0.000 A 
ATOM      3  N   UNL     1       1.424   9.922  17.865  0.00  0.00    +0.000 NA
ATOM      4  C   UNL     1       2.028   8.758  17.813  0.00  0.00    +0.000 A 
ATOM      5  N   UNL     1       2.040   8.149  19.033  0.00  0.00    +0.000 N 
ENDROOT
BRANCH   2   6
ATOM      6  C   UNL     1       0.212  11.214  19.618  0.00  0.00    +0.000 A 
ATOM      7  C   UNL     1      -1.180  11.299  19.445  0.00  0.00    +0.000 A 
ATOM      8  C   UNL     1      -1.897  12.419  19.876  0.00  0.00    +0.000 A 
ATOM      9  C   UNL     1      -1.235  13.453  20.522  0.00  0.00    +0.000 A 
ATOM     10  C   UNL     1       0.140  13.365  20.736  0.00  0.00    +0.000 A 
ATOM     11 CL   UNL     1       0.943  14.636  21.578  0.00  0.00    +0.000 Cl
ATOM     12  C   UNL     1       0.864  12.258  20.283  0.00  0.00    +0.000 A 
ENDBRANCH   2   6
BRANCH   1  13
ATOM     13  C   UNL     1       0.675   8.345  21.146  0.00  0.00    +0.000 C 
BRANCH  13  14
ATOM     14  C   UNL     1       0.991   9.285  22.310  0.00  0.00    +0.000 C 
BRANCH  14  16
ATOM     15  C   UNL     1      -0.990  10.625  23.083  0.00  0.00    +0.000 C 
ATOM     16  C   UNL     1      -0.142   9.389  23.331  0.00  0.00    +0.000 C 
ENDBRANCH  14  16
ENDBRANCH  13  14
ENDBRANCH   1  13
BRANCH   5  17
ATOM     17  C   UNL     1       2.661   6.882  19.383  0.00  0.00    +0.000 C 
BRANCH  17  18
ATOM     18  C   UNL     1       2.467   5.717  18.411  0.00  0.00    +0.000 C 
BRANCH  18  19
ATOM     19  C   UNL     1       3.709   5.394  17.590  0.00  0.00    +0.000 A 
ATOM     20  C   UNL     1       4.699   6.367  17.346  0.00  0.00    +0.000 A 
ATOM     21  C   UNL     1       5.838   6.067  16.597  0.00  0.00    +0.000 A 
ATOM     22  C   UNL     1       6.024   4.781  16.106  0.00  0.00    +0.000 A 
ATOM     23  C   UNL     1       5.072   3.795  16.360  0.00  0.00    +0.000 A 
ATOM     24  C   UNL     1       3.913   4.092  17.088  0.00  0.00    +0.000 A 
BRANCH  24  25
ATOM     25  O   UNL     1       2.942   3.169  17.381  0.00  0.00    +0.000 OA
ATOM     26  C   UNL     1       3.377   1.959  17.991  0.00  0.00    +0.000 C 
ENDBRANCH  24  25
ENDBRANCH  18  19
ENDBRANCH  17  18
ENDBRANCH   5  17
TORSDOF 8
ENDMDL
