MODEL 1
REMARK VINA RESULT:      -6.6      0.000      0.000
REMARK  Name = 
REMARK  7 active torsions:
REMARK  status: ('A' for Active; 'I' for Inactive)
REMARK    1  A    between atoms: C_1  and  N_2
REMARK    2  A    between atoms: N_2  and  C_3
REMARK    3  A    between atoms: N_2  and  C_4
REMARK    4  A    between atoms: C_4  and  C_5
REMARK    5  A    between atoms: C_5  and  C_6
REMARK    6  A    between atoms: C_6  and  C_8
REMARK    7  A    between atoms: C_9  and  C_10
REMARK                            x       y       z     vdW  Elec       q    Type
REMARK                         _______ _______ _______ _____ _____    ______ ____
ROOT
ATOM      1  C   UNL     1       5.597   4.645  19.131  0.00  0.00    +0.000 C 
ATOM      2  C   UNL     1       4.428   5.259  19.354  0.00  0.00    +0.000 C 
ENDROOT
BRANCH   2   3
ATOM      3  C   UNL     1       3.173   4.506  19.452  0.00  0.00    +0.000 A 
ATOM      4  C   UNL     1       2.475   4.558  20.668  0.00  0.00    +0.000 A 
ATOM      5  C   UNL     1       1.269   3.870  20.826  0.00  0.00    +0.000 A 
ATOM      6  C   UNL     1       0.750   3.123  19.773  0.00  0.00    +0.000 A 
ATOM      7  C   UNL     1       1.438   3.056  18.560  0.00  0.00    +0.000 A 
ATOM      8  C   UNL     1       2.647   3.741  18.400  0.00  0.00    +0.000 A 
ATOM      9 CL   UNL     1       3.455   3.608  16.877  0.00  0.00    +0.000 Cl
ENDBRANCH   2   3
BRANCH   1  10
ATOM     10  C   UNL     1       6.868   5.429  19.095  0.00  0.00    +0.000 C 
ATOM     11  O   UNL     1       7.553   5.575  20.105  0.00  0.00    +0.000 OA
BRANCH  10  12
ATOM     12  C   UNL     1       7.278   5.998  17.754  0.00  0.00    +0.000 C 
BRANCH  12  13
ATOM     13  C   UNL     1       7.111   4.935  16.666  0.00  0.00    +0.000 C 
BRANCH  13  15
ATOM     14  C   UNL     1       6.491   4.373  14.409  0.00  0.00    +0.000 C 
ATOM     15  N   UNL     1       6.626   5.469  15.376  0.00  0.00    +0.000 NA
ATOM     16  C   UNL     1       5.350   6.173  15.496  0.00  0.00    +0.000 C 
ENDBRANCH  13  15
ENDBRANCH  12  13
ENDBRANCH  10  12
ENDBRANCH   1  10
TORSDOF 5
ENDMDL
MODEL 2
REMARK VINA RESULT:      -6.5      0.885      1.235
REMARK  Name = 
REMARK  7 active torsions:
REMARK  status: ('A' for Active; 'I' for Inactive)
REMARK    1  A    between atoms: C_1  and  N_2
REMARK    2  A    between atoms: N_2  and  C_3
REMARK    3  A    between atoms: N_2  and  C_4
REMARK    4  A    between atoms: C_4  and  C_5
REMARK    5  A    between atoms: C_5  and  C_6
REMARK    6  A    between atoms: C_6  and  C_8
REMARK    7  A    between atoms: C_9  and  C_10
REMARK                            x       y       z     vdW  Elec       q    Type
REMARK                         _______ _______ _______ _____ _____    ______ ____
ROOT
ATOM      1  C   UNL     1       5.180   5.209  19.188  0.00  0.00    +0.000 C 
ATOM      2  C   UNL     1       4.762   3.995  19.567  0.00  0.00    +0.000 C 
ENDROOT
BRANCH   2   3
ATOM      3  C   UNL     1       3.335   3.672  19.664  0.00  0.00    +0.000 A 
ATOM      4  C   UNL     1       2.535   4.488  20.478  0.00  0.00    +0.000 A 
ATOM      5  C   UNL     1       1.166   4.240  20.609  0.00  0.00    +0.000 A 
ATOM      6  C   UNL     1       0.582   3.175  19.929  0.00  0.00    +0.000 A 
ATOM      7  C   UNL     1       1.367   2.350  19.122  0.00  0.00    +0.000 A 
ATOM      8  C   UNL     1       2.739   2.592  18.992  0.00  0.00    +0.000 A 
ATOM      9 CL   UNL     1       3.657   1.527  17.986  0.00  0.00    +0.000 Cl
ENDBRANCH   2   3
BRANCH   1  10
ATOM     10  C   UNL     1       6.639   5.494  19.040  0.00  0.00    +0.000 C 
ATOM     11  O   UNL     1       7.412   5.356  19.985  0.00  0.00    +0.000 OA
BRANCH  10  12
ATOM     12  C   UNL     1       7.112   5.925  17.668  0.00  0.00    +0.000 C 
BRANCH  12  13
ATOM     13  C   UNL     1       7.176   4.711  16.737  0.00  0.00    +0.000 C 
BRANCH  13  15
ATOM     14  C   UNL     1       5.471   5.968  15.593  0.00  0.00    +0.000 C 
ATOM     15  N   UNL     1       6.058   4.635  15.774  0.00  0.00    +0.000 NA
ATOM     16  C   UNL     1       6.462   4.100  14.474  0.00  0.00    +0.000 C 
ENDBRANCH  13  15
ENDBRANCH  12  13
ENDBRANCH  10  12
ENDBRANCH   1  10
TORSDOF 5
ENDMDL
MODEL 3
REMARK VINA RESULT:      -6.3      3.098      5.941
REMARK  Name = 
REMARK  7 active torsions:
REMARK  status: ('A' for Active; 'I' for Inactive)
REMARK    1  A    between atoms: C_1  and  N_2
REMARK    2  A    between atoms: N_2  and  C_3
REMARK    3  A    between atoms: N_2  and  C_4
REMARK    4  A    between atoms: C_4  and  C_5
REMARK    5  A    between atoms: C_5  and  C_6
REMARK    6  A    between atoms: C_6  and  C_8
REMARK    7  A    between atoms: C_9  and  C_10
REMARK                            x       y       z     vdW  Elec       q    Type
REMARK                         _______ _______ _______ _____ _____    ______ ____
ROOT
ATOM      1  C   UNL     1       3.965   3.368  18.331  0.00  0.00    +0.000 C 
ATOM      2  C   UNL     1       4.144   4.606  17.851  0.00  0.00    +0.000 C 
ENDROOT
BRANCH   2   3
ATOM      3  C   UNL     1       5.414   5.318  18.023  0.00  0.00    +0.000 A 
ATOM      4  C   UNL     1       6.145   5.075  19.195  0.00  0.00    +0.000 A 
ATOM      5  C   UNL     1       7.367   5.715  19.418  0.00  0.00    +0.000 A 
ATOM      6  C   UNL     1       7.871   6.605  18.473  0.00  0.00    +0.000 A 
ATOM      7  C   UNL     1       7.150   6.863  17.306  0.00  0.00    +0.000 A 
ATOM      8  C   UNL     1       5.924   6.226  17.081  0.00  0.00    +0.000 A 
ATOM      9 CL   UNL     1       5.077   6.598  15.621  0.00  0.00    +0.000 Cl
ENDBRANCH   2   3
BRANCH   1  10
ATOM     10  C   UNL     1       2.683   2.642  18.091  0.00  0.00    +0.000 C 
ATOM     11  O   UNL     1       2.290   2.406  16.950  0.00  0.00    +0.000 OA
BRANCH  10  12
ATOM     12  C   UNL     1       1.918   2.189  19.315  0.00  0.00    +0.000 C 
BRANCH  12  13
ATOM     13  C   UNL     1       0.883   3.248  19.702  0.00  0.00    +0.000 C 
BRANCH  13  15
ATOM     14  C   UNL     1       2.205   3.244  21.714  0.00  0.00    +0.000 C 
ATOM     15  N   UNL     1       1.225   4.002  20.926  0.00  0.00    +0.000 NA
ATOM     16  C   UNL     1       1.754   5.336  20.643  0.00  0.00    +0.000 C 
ENDBRANCH  13  15
ENDBRANCH  12  13
ENDBRANCH  10  12
ENDBRANCH   1  10
TORSDOF 5
ENDMDL
MODEL 4
REMARK VINA RESULT:      -6.2      2.146      3.038
REMARK  Name = 
REMARK  7 active torsions:
REMARK  status: ('A' for Active; 'I' for Inactive)
REMARK    1  A    between atoms: C_1  and  N_2
REMARK    2  A    between atoms: N_2  and  C_3
REMARK    3  A    between atoms: N_2  and  C_4
REMARK    4  A    between atoms: C_4  and  C_5
REMARK    5  A    between atoms: C_5  and  C_6
REMARK    6  A    between atoms: C_6  and  C_8
REMARK    7  A    between atoms: C_9  and  C_10
REMARK                            x       y       z     vdW  Elec       q    Type
REMARK                         _______ _______ _______ _____ _____    ______ ____
ROOT
ATOM      1  C   UNL     1       4.728   4.174  17.386  0.00  0.00    +0.000 C 
ATOM      2  C   UNL     1       3.393   4.085  17.334  0.00  0.00    +0.000 C 
ENDROOT
BRANCH   2   3
ATOM      3  C   UNL     1       2.590   3.898  18.548  0.00  0.00    +0.000 A 
ATOM      4  C   UNL     1       2.200   2.592  18.877  0.00  0.00    +0.000 A 
ATOM      5  C   UNL     1       1.441   2.343  20.023  0.00  0.00    +0.000 A 
ATOM      6  C   UNL     1       1.063   3.396  20.851  0.00  0.00    +0.000 A 
ATOM      7  C   UNL     1       1.437   4.702  20.531  0.00  0.00    +0.000 A 
ATOM      8  C   UNL     1       2.194   4.955  19.382  0.00  0.00    +0.000 A 
ATOM      9 CL   UNL     1       2.615   6.596  19.037  0.00  0.00    +0.000 Cl
ENDBRANCH   2   3
BRANCH   1  10
ATOM     10  C   UNL     1       5.518   4.424  16.144  0.00  0.00    +0.000 C 
ATOM     11  O   UNL     1       5.893   3.495  15.432  0.00  0.00    +0.000 OA
BRANCH  10  12
ATOM     12  C   UNL     1       5.799   5.870  15.795  0.00  0.00    +0.000 C 
BRANCH  12  13
ATOM     13  C   UNL     1       6.019   6.679  17.075  0.00  0.00    +0.000 C 
BRANCH  13  15
ATOM     14  C   UNL     1       7.800   8.201  17.629  0.00  0.00    +0.000 C 
ATOM     15  N   UNL     1       7.436   6.786  17.480  0.00  0.00    +0.000 NA
ATOM     16  C   UNL     1       7.728   6.075  18.724  0.00  0.00    +0.000 C 
ENDBRANCH  13  15
ENDBRANCH  12  13
ENDBRANCH  10  12
ENDBRANCH   1  10
TORSDOF 5
ENDMDL
MODEL 5
REMARK VINA RESULT:      -6.1      1.183      1.260
REMARK  Name = 
REMARK  7 active torsions:
REMARK  status: ('A' for Active; 'I' for Inactive)
REMARK    1  A    between atoms: C_1  and  N_2
REMARK    2  A    between atoms: N_2  and  C_3
REMARK    3  A    between atoms: N_2  and  C_4
REMARK    4  A    between atoms: C_4  and  C_5
REMARK    5  A    between atoms: C_5  and  C_6
REMARK    6  A    between atoms: C_6  and  C_8
REMARK    7  A    between atoms: C_9  and  C_10
REMARK                            x       y       z     vdW  Elec       q    Type
REMARK                         _______ _______ _______ _____ _____    ______ ____
ROOT
ATOM      1  C   UNL     1       5.527   5.324  19.183  0.00  0.00    +0.000 C 
ATOM      2  C   UNL     1       4.979   4.103  19.221  0.00  0.00    +0.000 C 
ENDROOT
BRANCH   2   3
ATOM      3  C   UNL     1       3.557   3.912  19.526  0.00  0.00    +0.000 A 
ATOM      4  C   UNL     1       2.873   4.972  20.140  0.00  0.00    +0.000 A 
ATOM      5  C   UNL     1       1.515   4.858  20.451  0.00  0.00    +0.000 A 
ATOM      6  C   UNL     1       0.828   3.685  20.153  0.00  0.00    +0.000 A 
ATOM      7  C   UNL     1       1.497   2.620  19.550  0.00  0.00    +0.000 A 
ATOM      8  C   UNL     1       2.858   2.728  19.241  0.00  0.00    +0.000 A 
ATOM      9 CL   UNL     1       3.630   1.368  18.505  0.00  0.00    +0.000 Cl
ENDBRANCH   2   3
BRANCH   1  10
ATOM     10  C   UNL     1       6.963   5.495  18.811  0.00  0.00    +0.000 C 
ATOM     11  O   UNL     1       7.859   4.989  19.484  0.00  0.00    +0.000 OA
BRANCH  10  12
ATOM     12  C   UNL     1       7.251   6.290  17.555  0.00  0.00    +0.000 C 
BRANCH  12  13
ATOM     13  C   UNL     1       5.967   6.454  16.740  0.00  0.00    +0.000 C 
BRANCH  13  15
ATOM     14  C   UNL     1       7.280   5.135  15.212  0.00  0.00    +0.000 C 
ATOM     15  N   UNL     1       5.935   5.648  15.501  0.00  0.00    +0.000 NA
ATOM     16  C   UNL     1       4.993   4.532  15.574  0.00  0.00    +0.000 C 
ENDBRANCH  13  15
ENDBRANCH  12  13
ENDBRANCH  10  12
ENDBRANCH   1  10
TORSDOF 5
ENDMDL
MODEL 6
REMARK VINA RESULT:      -6.1      2.273      3.088
REMARK  Name = 
REMARK  7 active torsions:
REMARK  status: ('A' for Active; 'I' for Inactive)
REMARK    1  A    between atoms: C_1  and  N_2
REMARK    2  A    between atoms: N_2  and  C_3
REMARK    3  A    between atoms: N_2  and  C_4
REMARK    4  A    between atoms: C_4  and  C_5
REMARK    5  A    between atoms: C_5  and  C_6
REMARK    6  A    between atoms: C_6  and  C_8
REMARK    7  A    between atoms: C_9  and  C_10
REMARK                            x       y       z     vdW  Elec       q    Type
REMARK                         _______ _______ _______ _____ _____    ______ ____
ROOT
ATOM      1  C   UNL     1       4.840   3.581  16.829  0.00  0.00    +0.000 C 
ATOM      2  C   UNL     1       3.862   4.417  17.198  0.00  0.00    +0.000 C 
ENDROOT
BRANCH   2   3
ATOM      3  C   UNL     1       2.801   3.996  18.120  0.00  0.00    +0.000 A 
ATOM      4  C   UNL     1       2.228   2.731  17.920  0.00  0.00    +0.000 A 
ATOM      5  C   UNL     1       1.218   2.265  18.767  0.00  0.00    +0.000 A 
ATOM      6  C   UNL     1       0.771   3.058  19.820  0.00  0.00    +0.000 A 
ATOM      7  C   UNL     1       1.327   4.321  20.026  0.00  0.00    +0.000 A 
ATOM      8  C   UNL     1       2.336   4.793  19.178  0.00  0.00    +0.000 A 
ATOM      9 CL   UNL     1       2.974   6.370  19.481  0.00  0.00    +0.000 Cl
ENDBRANCH   2   3
BRANCH   1  10
ATOM     10  C   UNL     1       5.940   4.053  15.936  0.00  0.00    +0.000 C 
ATOM     11  O   UNL     1       5.891   3.880  14.721  0.00  0.00    +0.000 OA
BRANCH  10  12
ATOM     12  C   UNL     1       7.092   4.778  16.600  0.00  0.00    +0.000 C 
BRANCH  12  13
ATOM     13  C   UNL     1       6.843   6.288  16.566  0.00  0.00    +0.000 C 
BRANCH  13  15
ATOM     14  C   UNL     1       7.733   6.031  18.788  0.00  0.00    +0.000 C 
ATOM     15  N   UNL     1       7.090   6.965  17.856  0.00  0.00    +0.000 NA
ATOM     16  C   UNL     1       7.917   8.164  17.719  0.00  0.00    +0.000 C 
ENDBRANCH  13  15
ENDBRANCH  12  13
ENDBRANCH  10  12
ENDBRANCH   1  10
TORSDOF 5
ENDMDL
MODEL 7
REMARK VINA RESULT:      -6.1      1.444      1.868
REMARK  Name = 
REMARK  7 active torsions:
REMARK  status: ('A' for Active; 'I' for Inactive)
REMARK    1  A    between atoms: C_1  and  N_2
REMARK    2  A    between atoms: N_2  and  C_3
REMARK    3  A    between atoms: N_2  and  C_4
REMARK    4  A    between atoms: C_4  and  C_5
REMARK    5  A    between atoms: C_5  and  C_6
REMARK    6  A    between atoms: C_6  and  C_8
REMARK    7  A    between atoms: C_9  and  C_10
REMARK                            x       y       z     vdW  Elec       q    Type
REMARK                         _______ _______ _______ _____ _____    ______ ____
ROOT
ATOM      1  C   UNL     1       5.615   4.578  18.788  0.00  0.00    +0.000 C 
ATOM      2  C   UNL     1       4.464   4.875  19.405  0.00  0.00    +0.000 C 
ENDROOT
BRANCH   2   3
ATOM      3  C   UNL     1       3.262   4.055  19.219  0.00  0.00    +0.000 A 
ATOM      4  C   UNL     1       3.377   2.896  18.437  0.00  0.00    +0.000 A 
ATOM      5  C   UNL     1       2.272   2.067  18.226  0.00  0.00    +0.000 A 
ATOM      6  C   UNL     1       1.042   2.388  18.792  0.00  0.00    +0.000 A 
ATOM      7  C   UNL     1       0.910   3.542  19.566  0.00  0.00    +0.000 A 
ATOM      8  C   UNL     1       2.014   4.377  19.776  0.00  0.00    +0.000 A 
ATOM      9 CL   UNL     1       1.782   5.797  20.734  0.00  0.00    +0.000 Cl
ENDBRANCH   2   3
BRANCH   1  10
ATOM     10  C   UNL     1       6.840   5.394  19.041  0.00  0.00    +0.000 C 
ATOM     11  O   UNL     1       7.356   5.435  20.156  0.00  0.00    +0.000 OA
BRANCH  10  12
ATOM     12  C   UNL     1       7.423   6.132  17.855  0.00  0.00    +0.000 C 
BRANCH  12  13
ATOM     13  C   UNL     1       6.300   6.564  16.909  0.00  0.00    +0.000 C 
BRANCH  13  15
ATOM     14  C   UNL     1       7.472   4.969  15.539  0.00  0.00    +0.000 C 
ATOM     15  N   UNL     1       6.355   5.921  15.580  0.00  0.00    +0.000 NA
ATOM     16  C   UNL     1       5.114   5.231  15.230  0.00  0.00    +0.000 C 
ENDBRANCH  13  15
ENDBRANCH  12  13
ENDBRANCH  10  12
ENDBRANCH   1  10
TORSDOF 5
ENDMDL
MODEL 8
REMARK VINA RESULT:      -6.0      2.964      5.923
REMARK  Name = 
REMARK  7 active torsions:
REMARK  status: ('A' for Active; 'I' for Inactive)
REMARK    1  A    between atoms: C_1  and  N_2
REMARK    2  A    between atoms: N_2  and  C_3
REMARK    3  A    between atoms: N_2  and  C_4
REMARK    4  A    between atoms: C_4  and  C_5
REMARK    5  A    between atoms: C_5  and  C_6
REMARK    6  A    between atoms: C_6  and  C_8
REMARK    7  A    between atoms: C_9  and  C_10
REMARK                            x       y       z     vdW  Elec       q    Type
REMARK                         _______ _______ _______ _____ _____    ______ ____
ROOT
ATOM      1  C   UNL     1       3.405   5.482  18.892  0.00  0.00    +0.000 C 
ATOM      2  C   UNL     1       4.342   6.213  18.274  0.00  0.00    +0.000 C 
ENDROOT
BRANCH   2   3
ATOM      3  C   UNL     1       5.295   5.605  17.340  0.00  0.00    +0.000 A 
ATOM      4  C   UNL     1       4.849   5.332  16.038  0.00  0.00    +0.000 A 
ATOM      5  C   UNL     1       5.709   4.760  15.096  0.00  0.00    +0.000 A 
ATOM      6  C   UNL     1       7.021   4.455  15.445  0.00  0.00    +0.000 A 
ATOM      7  C   UNL     1       7.476   4.713  16.739  0.00  0.00    +0.000 A 
ATOM      8  C   UNL     1       6.617   5.282  17.686  0.00  0.00    +0.000 A 
ATOM      9 CL   UNL     1       7.239   5.566  19.274  0.00  0.00    +0.000 Cl
ENDBRANCH   2   3
BRANCH   1  10
ATOM     10  C   UNL     1       2.409   6.135  19.792  0.00  0.00    +0.000 C 
ATOM     11  O   UNL     1       2.113   7.321  19.658  0.00  0.00    +0.000 OA
BRANCH  10  12
ATOM     12  C   UNL     1       1.766   5.259  20.845  0.00  0.00    +0.000 C 
BRANCH  12  13
ATOM     13  C   UNL     1       0.908   4.184  20.173  0.00  0.00    +0.000 C 
BRANCH  13  15
ATOM     14  C   UNL     1       1.790   2.103  19.344  0.00  0.00    +0.000 C 
ATOM     15  N   UNL     1       1.287   2.802  20.533  0.00  0.00    +0.000 NA
ATOM     16  C   UNL     1       2.295   2.747  21.592  0.00  0.00    +0.000 C 
ENDBRANCH  13  15
ENDBRANCH  12  13
ENDBRANCH  10  12
ENDBRANCH   1  10
TORSDOF 5
ENDMDL
MODEL 9
REMARK VINA RESULT:      -6.0      2.141      2.900
REMARK  Name = 
REMARK  7 active torsions:
REMARK  status: ('A' for Active; 'I' for Inactive)
REMARK    1  A    between atoms: C_1  and  N_2
REMARK    2  A    between atoms: N_2  and  C_3
REMARK    3  A    between atoms: N_2  and  C_4
REMARK    4  A    between atoms: C_4  and  C_5
REMARK    5  A    between atoms: C_5  and  C_6
REMARK    6  A    between atoms: C_6  and  C_8
REMARK    7  A    between atoms: C_9  and  C_10
REMARK                            x       y       z     vdW  Elec       q    Type
REMARK                         _______ _______ _______ _____ _____    ______ ____
ROOT
ATOM      1  C   UNL     1       4.812   4.113  16.963  0.00  0.00    +0.000 C 
ATOM      2  C   UNL     1       3.621   4.708  17.105  0.00  0.00    +0.000 C 
ENDROOT
BRANCH   2   3
ATOM      3  C   UNL     1       2.819   4.537  18.321  0.00  0.00    +0.000 A 
ATOM      4  C   UNL     1       2.710   5.633  19.190  0.00  0.00    +0.000 A 
ATOM      5  C   UNL     1       1.955   5.540  20.362  0.00  0.00    +0.000 A 
ATOM      6  C   UNL     1       1.302   4.352  20.678  0.00  0.00    +0.000 A 
ATOM      7  C   UNL     1       1.408   3.251  19.827  0.00  0.00    +0.000 A 
ATOM      8  C   UNL     1       2.167   3.339  18.654  0.00  0.00    +0.000 A 
ATOM      9 CL   UNL     1       2.267   1.937  17.648  0.00  0.00    +0.000 Cl
ENDBRANCH   2   3
BRANCH   1  10
ATOM     10  C   UNL     1       5.635   4.352  15.740  0.00  0.00    +0.000 C 
ATOM     11  O   UNL     1       5.136   4.298  14.618  0.00  0.00    +0.000 OA
BRANCH  10  12
ATOM     12  C   UNL     1       7.094   4.691  15.957  0.00  0.00    +0.000 C 
BRANCH  12  13
ATOM     13  C   UNL     1       7.441   4.564  17.443  0.00  0.00    +0.000 C 
BRANCH  13  15
ATOM     14  C   UNL     1       7.224   6.961  17.472  0.00  0.00    +0.000 C 
ATOM     15  N   UNL     1       7.935   5.815  18.052  0.00  0.00    +0.000 NA
ATOM     16  C   UNL     1       7.787   5.837  19.507  0.00  0.00    +0.000 C 
ENDBRANCH  13  15
ENDBRANCH  12  13
ENDBRANCH  10  12
ENDBRANCH   1  10
TORSDOF 5
ENDMDL
