MODEL 1
REMARK VINA RESULT:      -8.4      0.000      0.000
REMARK  Name = 
REMARK  10 active torsions:
REMARK  status: ('A' for Active; 'I' for Inactive)
REMARK    1  A    between atoms: C_1  and  O_2
REMARK    2  A    between atoms: O_2  and  C_3
REMARK    3  A    between atoms: C_9  and  N_10
REMARK    4  A    between atoms: C_11  and  C_13
REMARK    5  A    between atoms: N_16  and  C_17
REMARK    6  A    between atoms: C_17  and  C_18
REMARK    7  A    between atoms: N_20  and  C_21
REMARK    8  A    between atoms: C_23  and  C_24
REMARK    9  A    between atoms: C_26  and  C_27
REMARK   10  A    between atoms: C_29  and  N_30
REMARK                            x       y       z     vdW  Elec       q    Type
REMARK                         _______ _______ _______ _____ _____    ______ ____
ROOT
ATOM      1  C   UNL     1       2.259   7.195  19.229  0.00  0.00    +0.000 A 
ATOM      2  N   UNL     1       1.798   6.835  20.473  0.00  0.00    +0.000 NA
ATOM      3  N   UNL     1       1.219   7.894  21.024  0.00  0.00    +0.000 NA
ATOM      4  N   UNL     1       1.293   8.908  20.136  0.00  0.00    +0.000 N 
ATOM      5  C   UNL     1       1.983   8.535  19.009  0.00  0.00    +0.000 A 
ENDROOT
BRANCH   1   7
ATOM      6  N   UNL     1       4.242   6.513  18.053  0.00  0.00    +0.000 N 
ATOM      7  C   UNL     1       2.893   6.264  18.295  0.00  0.00    +0.000 C 
ATOM      8  O   UNL     1       2.247   5.334  17.819  0.00  0.00    +0.000 OA
ATOM      9  H   UNL     1       4.649   7.322  18.513  0.00  0.00    +0.000 HD
BRANCH   6  16
ATOM     10  C   UNL     1       6.345   5.276  17.851  0.00  0.00    +0.000 A 
ATOM     11  C   UNL     1       7.212   4.461  17.104  0.00  0.00    +0.000 A 
ATOM     12  C   UNL     1       6.914   4.124  15.784  0.00  0.00    +0.000 A 
ATOM     13  C   UNL     1       5.740   4.589  15.210  0.00  0.00    +0.000 A 
ATOM     14 CL   UNL     1       5.376   4.190  13.576  0.00  0.00    +0.000 Cl
ATOM     15  C   UNL     1       4.855   5.375  15.943  0.00  0.00    +0.000 A 
ATOM     16  C   UNL     1       5.135   5.727  17.273  0.00  0.00    +0.000 A 
BRANCH  10  18
ATOM     17  C   UNL     1       7.990   5.835  19.472  0.00  0.00    +0.000 C 
ATOM     18  O   UNL     1       6.608   5.663  19.146  0.00  0.00    +0.000 OA
ENDBRANCH  10  18
ENDBRANCH   6  16
ENDBRANCH   1   7
BRANCH   5  19
ATOM     19  N   UNL     1       2.253   9.368  17.976  0.00  0.00    +0.000 N 
ATOM     20  H   UNL     1       3.058   9.241  17.350  0.00  0.00    +0.000 HD
ATOM     21  H   UNL     1       1.961  10.345  18.037  0.00  0.00    +0.000 HD
ENDBRANCH   5  19
BRANCH   4  22
ATOM     22  C   UNL     1       0.662  10.168  20.446  0.00  0.00    +0.000 C 
BRANCH  22  23
ATOM     23  C   UNL     1      -0.092  10.714  19.256  0.00  0.00    +0.000 C 
ATOM     24  O   UNL     1       0.408  11.620  18.589  0.00  0.00    +0.000 OA
ATOM     25  N   UNL     1      -1.338  10.134  19.040  0.00  0.00    +0.000 N 
ATOM     26  H   UNL     1      -1.690   9.487  19.736  0.00  0.00    +0.000 HD
BRANCH  25  27
ATOM     27  C   UNL     1      -2.258  10.531  18.040  0.00  0.00    +0.000 A 
ATOM     28  C   UNL     1      -3.389  11.301  18.319  0.00  0.00    +0.000 A 
ATOM     29  C   UNL     1      -4.356  11.550  17.340  0.00  0.00    +0.000 A 
ATOM     30  C   UNL     1      -5.606  12.302  17.687  0.00  0.00    +0.000 C 
ATOM     31  C   UNL     1      -4.163  11.052  16.049  0.00  0.00    +0.000 A 
ATOM     32  C   UNL     1      -3.007  10.329  15.729  0.00  0.00    +0.000 A 
ATOM     33  C   UNL     1      -2.822   9.770  14.347  0.00  0.00    +0.000 C 
ATOM     34  C   UNL     1      -2.047  10.090  16.728  0.00  0.00    +0.000 A 
ENDBRANCH  25  27
ENDBRANCH  22  23
ENDBRANCH   4  22
TORSDOF 7
ENDMDL
MODEL 2
REMARK VINA RESULT:      -8.2      3.024      9.311
REMARK  Name = 
REMARK  10 active torsions:
REMARK  status: ('A' for Active; 'I' for Inactive)
REMARK    1  A    between atoms: C_1  and  O_2
REMARK    2  A    between atoms: O_2  and  C_3
REMARK    3  A    between atoms: C_9  and  N_10
REMARK    4  A    between atoms: C_11  and  C_13
REMARK    5  A    between atoms: N_16  and  C_17
REMARK    6  A    between atoms: C_17  and  C_18
REMARK    7  A    between atoms: N_20  and  C_21
REMARK    8  A    between atoms: C_23  and  C_24
REMARK    9  A    between atoms: C_26  and  C_27
REMARK   10  A    between atoms: C_29  and  N_30
REMARK                            x       y       z     vdW  Elec       q    Type
REMARK                         _______ _______ _______ _____ _____    ______ ____
ROOT
ATOM      1  C   UNL     1       2.800   7.524  18.602  0.00  0.00    +0.000 A 
ATOM      2  N   UNL     1       3.522   7.713  17.447  0.00  0.00    +0.000 NA
ATOM      3  N   UNL     1       4.320   6.666  17.280  0.00  0.00    +0.000 NA
ATOM      4  N   UNL     1       4.095   5.813  18.302  0.00  0.00    +0.000 N 
ATOM      5  C   UNL     1       3.184   6.329  19.190  0.00  0.00    +0.000 A 
ENDROOT
BRANCH   1   7
ATOM      6  N   UNL     1       1.231   9.271  18.088  0.00  0.00    +0.000 N 
ATOM      7  C   UNL     1       1.763   8.443  19.073  0.00  0.00    +0.000 C 
ATOM      8  O   UNL     1       1.405   8.417  20.247  0.00  0.00    +0.000 OA
ATOM      9  H   UNL     1       1.625   9.188  17.156  0.00  0.00    +0.000 HD
BRANCH   6  16
ATOM     10  C   UNL     1       0.418  11.501  18.689  0.00  0.00    +0.000 A 
ATOM     11  C   UNL     1      -0.632  12.429  18.787  0.00  0.00    +0.000 A 
ATOM     12  C   UNL     1      -1.940  12.062  18.473  0.00  0.00    +0.000 A 
ATOM     13  C   UNL     1      -2.202  10.769  18.047  0.00  0.00    +0.000 A 
ATOM     14 CL   UNL     1      -3.817  10.306  17.676  0.00  0.00    +0.000 Cl
ATOM     15  C   UNL     1      -1.171   9.842  17.918  0.00  0.00    +0.000 A 
ATOM     16  C   UNL     1       0.154  10.189  18.228  0.00  0.00    +0.000 A 
BRANCH  10  18
ATOM     17  C   UNL     1       2.269  12.955  18.368  0.00  0.00    +0.000 C 
ATOM     18  O   UNL     1       1.721  11.804  19.016  0.00  0.00    +0.000 OA
ENDBRANCH  10  18
ENDBRANCH   6  16
ENDBRANCH   1   7
BRANCH   5  19
ATOM     19  N   UNL     1       2.808   5.711  20.335  0.00  0.00    +0.000 N 
ATOM     20  H   UNL     1       1.973   5.116  20.403  0.00  0.00    +0.000 HD
ATOM     21  H   UNL     1       3.054   6.137  21.231  0.00  0.00    +0.000 HD
ENDBRANCH   5  19
BRANCH   4  22
ATOM     22  C   UNL     1       4.775   4.542  18.326  0.00  0.00    +0.000 C 
BRANCH  22  23
ATOM     23  C   UNL     1       5.741   4.412  17.170  0.00  0.00    +0.000 C 
ATOM     24  O   UNL     1       6.951   4.484  17.384  0.00  0.00    +0.000 OA
ATOM     25  N   UNL     1       5.140   4.245  15.927  0.00  0.00    +0.000 N 
ATOM     26  H   UNL     1       4.132   4.330  15.868  0.00  0.00    +0.000 HD
BRANCH  25  27
ATOM     27  C   UNL     1       5.830   4.180  14.692  0.00  0.00    +0.000 A 
ATOM     28  C   UNL     1       6.938   4.978  14.405  0.00  0.00    +0.000 A 
ATOM     29  C   UNL     1       7.505   5.000  13.126  0.00  0.00    +0.000 A 
ATOM     30  C   UNL     1       8.636   5.935  12.817  0.00  0.00    +0.000 C 
ATOM     31  C   UNL     1       6.975   4.174  12.131  0.00  0.00    +0.000 A 
ATOM     32  C   UNL     1       5.902   3.319  12.412  0.00  0.00    +0.000 A 
ATOM     33  C   UNL     1       5.318   2.457  11.329  0.00  0.00    +0.000 C 
ATOM     34  C   UNL     1       5.347   3.312  13.704  0.00  0.00    +0.000 A 
ENDBRANCH  25  27
ENDBRANCH  22  23
ENDBRANCH   4  22
TORSDOF 7
ENDMDL
MODEL 3
REMARK VINA RESULT:      -8.2      0.924      2.108
REMARK  Name = 
REMARK  10 active torsions:
REMARK  status: ('A' for Active; 'I' for Inactive)
REMARK    1  A    between atoms: C_1  and  O_2
REMARK    2  A    between atoms: O_2  and  C_3
REMARK    3  A    between atoms: C_9  and  N_10
REMARK    4  A    between atoms: C_11  and  C_13
REMARK    5  A    between atoms: N_16  and  C_17
REMARK    6  A    between atoms: C_17  and  C_18
REMARK    7  A    between atoms: N_20  and  C_21
REMARK    8  A    between atoms: C_23  and  C_24
REMARK    9  A    between atoms: C_26  and  C_27
REMARK   10  A    between atoms: C_29  and  N_30
REMARK                            x       y       z     vdW  Elec       q    Type
REMARK                         _______ _______ _______ _____ _____    ______ ____
ROOT
ATOM      1  C   UNL     1       2.615   7.803  18.231  0.00  0.00    +0.000 A 
ATOM      2  N   UNL     1       2.459   8.914  17.436  0.00  0.00    +0.000 NA
ATOM      3  N   UNL     1       1.762   9.815  18.115  0.00  0.00    +0.000 NA
ATOM      4  N   UNL     1       1.495   9.294  19.331  0.00  0.00    +0.000 N 
ATOM      5  C   UNL     1       1.967   8.009  19.438  0.00  0.00    +0.000 A 
ENDROOT
BRANCH   1   7
ATOM      6  N   UNL     1       4.354   6.865  16.861  0.00  0.00    +0.000 N 
ATOM      7  C   UNL     1       3.395   6.626  17.842  0.00  0.00    +0.000 C 
ATOM      8  O   UNL     1       3.200   5.548  18.396  0.00  0.00    +0.000 OA
ATOM      9  H   UNL     1       4.405   7.808  16.487  0.00  0.00    +0.000 HD
BRANCH   6  16
ATOM     10  C   UNL     1       6.461   5.649  17.133  0.00  0.00    +0.000 A 
ATOM     11  C   UNL     1       7.393   4.707  16.665  0.00  0.00    +0.000 A 
ATOM     12  C   UNL     1       7.224   4.091  15.426  0.00  0.00    +0.000 A 
ATOM     13  C   UNL     1       6.115   4.404  14.655  0.00  0.00    +0.000 A 
ATOM     14 CL   UNL     1       5.911   3.659  13.117  0.00  0.00    +0.000 Cl
ATOM     15  C   UNL     1       5.166   5.313  15.113  0.00  0.00    +0.000 A 
ATOM     16  C   UNL     1       5.315   5.945  16.358  0.00  0.00    +0.000 A 
BRANCH  10  18
ATOM     17  C   UNL     1       6.735   5.470  19.486  0.00  0.00    +0.000 C 
ATOM     18  O   UNL     1       6.598   6.307  18.334  0.00  0.00    +0.000 OA
ENDBRANCH  10  18
ENDBRANCH   6  16
ENDBRANCH   1   7
BRANCH   5  19
ATOM     19  N   UNL     1       1.794   7.227  20.529  0.00  0.00    +0.000 N 
ATOM     20  H   UNL     1       1.685   7.605  21.479  0.00  0.00    +0.000 HD
ATOM     21  H   UNL     1       2.192   6.285  20.532  0.00  0.00    +0.000 HD
ENDBRANCH   5  19
BRANCH   4  22
ATOM     22  C   UNL     1       0.813  10.102  20.313  0.00  0.00    +0.000 C 
BRANCH  22  23
ATOM     23  C   UNL     1      -0.552  10.528  19.824  0.00  0.00    +0.000 C 
ATOM     24  O   UNL     1      -1.334  11.064  20.609  0.00  0.00    +0.000 OA
ATOM     25  N   UNL     1      -0.809  10.234  18.489  0.00  0.00    +0.000 N 
ATOM     26  H   UNL     1      -0.132   9.675  17.984  0.00  0.00    +0.000 HD
BRANCH  25  27
ATOM     27  C   UNL     1      -2.040  10.462  17.828  0.00  0.00    +0.000 A 
ATOM     28  C   UNL     1      -2.268  10.083  16.505  0.00  0.00    +0.000 A 
ATOM     29  C   UNL     1      -3.438  10.456  15.834  0.00  0.00    +0.000 A 
ATOM     30  C   UNL     1      -3.618  10.116  14.385  0.00  0.00    +0.000 C 
ATOM     31  C   UNL     1      -4.412  11.187  16.518  0.00  0.00    +0.000 A 
ATOM     32  C   UNL     1      -4.234  11.527  17.865  0.00  0.00    +0.000 A 
ATOM     33  C   UNL     1      -5.273  12.339  18.584  0.00  0.00    +0.000 C 
ATOM     34  C   UNL     1      -3.051  11.142  18.521  0.00  0.00    +0.000 A 
ENDBRANCH  25  27
ENDBRANCH  22  23
ENDBRANCH   4  22
TORSDOF 7
ENDMDL
MODEL 4
REMARK VINA RESULT:      -8.2      1.808      2.512
REMARK  Name = 
REMARK  10 active torsions:
REMARK  status: ('A' for Active; 'I' for Inactive)
REMARK    1  A    between atoms: C_1  and  O_2
REMARK    2  A    between atoms: O_2  and  C_3
REMARK    3  A    between atoms: C_9  and  N_10
REMARK    4  A    between atoms: C_11  and  C_13
REMARK    5  A    between atoms: N_16  and  C_17
REMARK    6  A    between atoms: C_17  and  C_18
REMARK    7  A    between atoms: N_20  and  C_21
REMARK    8  A    between atoms: C_23  and  C_24
REMARK    9  A    between atoms: C_26  and  C_27
REMARK   10  A    between atoms: C_29  and  N_30
REMARK                            x       y       z     vdW  Elec       q    Type
REMARK                         _______ _______ _______ _____ _____    ______ ____
ROOT
ATOM      1  C   UNL     1       1.759   8.873  19.352  0.00  0.00    +0.000 A 
ATOM      2  N   UNL     1       1.197   8.411  20.519  0.00  0.00    +0.000 NA
ATOM      3  N   UNL     1       0.580   9.424  21.112  0.00  0.00    +0.000 NA
ATOM      4  N   UNL     1       0.728  10.511  20.325  0.00  0.00    +0.000 N 
ATOM      5  C   UNL     1       1.506  10.230  19.229  0.00  0.00    +0.000 A 
ENDROOT
BRANCH   1   7
ATOM      6  N   UNL     1       2.925   6.816  18.919  0.00  0.00    +0.000 N 
ATOM      7  C   UNL     1       2.463   8.020  18.394  0.00  0.00    +0.000 C 
ATOM      8  O   UNL     1       2.578   8.373  17.223  0.00  0.00    +0.000 OA
ATOM      9  H   UNL     1       2.763   6.655  19.909  0.00  0.00    +0.000 HD
BRANCH   6  16
ATOM     10  C   UNL     1       2.796   4.613  17.859  0.00  0.00    +0.000 A 
ATOM     11  C   UNL     1       3.396   3.580  17.120  0.00  0.00    +0.000 A 
ATOM     12  C   UNL     1       4.743   3.646  16.766  0.00  0.00    +0.000 A 
ATOM     13  C   UNL     1       5.492   4.752  17.137  0.00  0.00    +0.000 A 
ATOM     14 CL   UNL     1       7.160   4.830  16.717  0.00  0.00    +0.000 Cl
ATOM     15  C   UNL     1       4.909   5.800  17.845  0.00  0.00    +0.000 A 
ATOM     16  C   UNL     1       3.555   5.754  18.212  0.00  0.00    +0.000 A 
BRANCH  10  18
ATOM     17  C   UNL     1       1.173   3.656  19.305  0.00  0.00    +0.000 C 
ATOM     18  O   UNL     1       1.479   4.582  18.259  0.00  0.00    +0.000 OA
ENDBRANCH  10  18
ENDBRANCH   6  16
ENDBRANCH   1   7
BRANCH   5  19
ATOM     19  N   UNL     1       1.862  11.146  18.297  0.00  0.00    +0.000 N 
ATOM     20  H   UNL     1       1.180  11.634  17.702  0.00  0.00    +0.000 HD
ATOM     21  H   UNL     1       2.779  11.071  17.853  0.00  0.00    +0.000 HD
ENDBRANCH   5  19
BRANCH   4  22
ATOM     22  C   UNL     1       0.079  11.745  20.692  0.00  0.00    +0.000 C 
BRANCH  22  23
ATOM     23  C   UNL     1      -0.954  12.151  19.666  0.00  0.00    +0.000 C 
ATOM     24  O   UNL     1      -1.160  13.347  19.457  0.00  0.00    +0.000 OA
ATOM     25  N   UNL     1      -1.615  11.090  19.055  0.00  0.00    +0.000 N 
ATOM     26  H   UNL     1      -1.445  10.156  19.407  0.00  0.00    +0.000 HD
BRANCH  25  27
ATOM     27  C   UNL     1      -2.673  11.219  18.123  0.00  0.00    +0.000 A 
ATOM     28  C   UNL     1      -3.925  11.728  18.470  0.00  0.00    +0.000 A 
ATOM     29  C   UNL     1      -4.994  11.703  17.568  0.00  0.00    +0.000 A 
ATOM     30  C   UNL     1      -6.354  12.170  17.995  0.00  0.00    +0.000 C 
ATOM     31  C   UNL     1      -4.789  11.196  16.282  0.00  0.00    +0.000 A 
ATOM     32  C   UNL     1      -3.526  10.737  15.890  0.00  0.00    +0.000 A 
ATOM     33  C   UNL     1      -3.321  10.165  14.517  0.00  0.00    +0.000 C 
ATOM     34  C   UNL     1      -2.464  10.771  16.812  0.00  0.00    +0.000 A 
ENDBRANCH  25  27
ENDBRANCH  22  23
ENDBRANCH   4  22
TORSDOF 7
ENDMDL
MODEL 5
REMARK VINA RESULT:      -8.1      2.988      9.333
REMARK  Name = 
REMARK  10 active torsions:
REMARK  status: ('A' for Active; 'I' for Inactive)
REMARK    1  A    between atoms: C_1  and  O_2
REMARK    2  A    between atoms: O_2  and  C_3
REMARK    3  A    between atoms: C_9  and  N_10
REMARK    4  A    between atoms: C_11  and  C_13
REMARK    5  A    between atoms: N_16  and  C_17
REMARK    6  A    between atoms: C_17  and  C_18
REMARK    7  A    between atoms: N_20  and  C_21
REMARK    8  A    between atoms: C_23  and  C_24
REMARK    9  A    between atoms: C_26  and  C_27
REMARK   10  A    between atoms: C_29  and  N_30
REMARK                            x       y       z     vdW  Elec       q    Type
REMARK                         _______ _______ _______ _____ _____    ______ ____
ROOT
ATOM      1  C   UNL     1       2.852   7.525  18.581  0.00  0.00    +0.000 A 
ATOM      2  N   UNL     1       3.627   7.773  17.473  0.00  0.00    +0.000 NA
ATOM      3  N   UNL     1       4.444   6.742  17.298  0.00  0.00    +0.000 NA
ATOM      4  N   UNL     1       4.179   5.842  18.269  0.00  0.00    +0.000 N 
ATOM      5  C   UNL     1       3.220   6.308  19.134  0.00  0.00    +0.000 A 
ENDROOT
BRANCH   1   7
ATOM      6  N   UNL     1       1.263   9.252  18.061  0.00  0.00    +0.000 N 
ATOM      7  C   UNL     1       1.783   8.412  19.042  0.00  0.00    +0.000 C 
ATOM      8  O   UNL     1       1.391   8.352  20.205  0.00  0.00    +0.000 OA
ATOM      9  H   UNL     1       1.686   9.198  17.139  0.00  0.00    +0.000 HD
BRANCH   6  16
ATOM     10  C   UNL     1       0.380  11.436  18.728  0.00  0.00    +0.000 A 
ATOM     11  C   UNL     1      -0.690  12.342  18.816  0.00  0.00    +0.000 A 
ATOM     12  C   UNL     1      -1.973  11.970  18.416  0.00  0.00    +0.000 A 
ATOM     13  C   UNL     1      -2.189  10.696  17.914  0.00  0.00    +0.000 A 
ATOM     14 CL   UNL     1      -3.775  10.228  17.436  0.00  0.00    +0.000 Cl
ATOM     15  C   UNL     1      -1.137   9.793  17.793  0.00  0.00    +0.000 A 
ATOM     16  C   UNL     1       0.163  10.145  18.189  0.00  0.00    +0.000 A 
BRANCH  10  18
ATOM     17  C   UNL     1       1.754  12.556  20.309  0.00  0.00    +0.000 C 
ATOM     18  O   UNL     1       1.658  11.742  19.138  0.00  0.00    +0.000 OA
ENDBRANCH  10  18
ENDBRANCH   6  16
ENDBRANCH   1   7
BRANCH   5  19
ATOM     19  N   UNL     1       2.796   5.636  20.231  0.00  0.00    +0.000 N 
ATOM     20  H   UNL     1       3.216   4.751  20.541  0.00  0.00    +0.000 HD
ATOM     21  H   UNL     1       1.820   5.725  20.520  0.00  0.00    +0.000 HD
ENDBRANCH   5  19
BRANCH   4  22
ATOM     22  C   UNL     1       4.871   4.577  18.269  0.00  0.00    +0.000 C 
BRANCH  22  23
ATOM     23  C   UNL     1       5.747   4.428  17.046  0.00  0.00    +0.000 C 
ATOM     24  O   UNL     1       6.971   4.413  17.178  0.00  0.00    +0.000 OA
ATOM     25  N   UNL     1       5.054   4.347  15.842  0.00  0.00    +0.000 N 
ATOM     26  H   UNL     1       4.053   4.500  15.856  0.00  0.00    +0.000 HD
BRANCH  25  27
ATOM     27  C   UNL     1       5.655   4.284  14.561  0.00  0.00    +0.000 A 
ATOM     28  C   UNL     1       5.242   3.383  13.578  0.00  0.00    +0.000 A 
ATOM     29  C   UNL     1       5.951   3.241  12.380  0.00  0.00    +0.000 A 
ATOM     30  C   UNL     1       5.542   2.202  11.380  0.00  0.00    +0.000 C 
ATOM     31  C   UNL     1       7.068   4.048  12.149  0.00  0.00    +0.000 A 
ATOM     32  C   UNL     1       7.465   5.003  13.094  0.00  0.00    +0.000 A 
ATOM     33  C   UNL     1       8.685   5.845  12.852  0.00  0.00    +0.000 C 
ATOM     34  C   UNL     1       6.739   5.129  14.292  0.00  0.00    +0.000 A 
ENDBRANCH  25  27
ENDBRANCH  22  23
ENDBRANCH   4  22
TORSDOF 7
ENDMDL
MODEL 6
REMARK VINA RESULT:      -8.0      3.078      3.926
REMARK  Name = 
REMARK  10 active torsions:
REMARK  status: ('A' for Active; 'I' for Inactive)
REMARK    1  A    between atoms: C_1  and  O_2
REMARK    2  A    between atoms: O_2  and  C_3
REMARK    3  A    between atoms: C_9  and  N_10
REMARK    4  A    between atoms: C_11  and  C_13
REMARK    5  A    between atoms: N_16  and  C_17
REMARK    6  A    between atoms: C_17  and  C_18
REMARK    7  A    between atoms: N_20  and  C_21
REMARK    8  A    between atoms: C_23  and  C_24
REMARK    9  A    between atoms: C_26  and  C_27
REMARK   10  A    between atoms: C_29  and  N_30
REMARK                            x       y       z     vdW  Elec       q    Type
REMARK                         _______ _______ _______ _____ _____    ______ ____
ROOT
ATOM      1  C   UNL     1       2.429   7.725  18.339  0.00  0.00    +0.000 A 
ATOM      2  N   UNL     1       2.201   8.797  17.508  0.00  0.00    +0.000 NA
ATOM      3  N   UNL     1       1.489   9.696  18.177  0.00  0.00    +0.000 NA
ATOM      4  N   UNL     1       1.285   9.212  19.421  0.00  0.00    +0.000 N 
ATOM      5  C   UNL     1       1.813   7.953  19.559  0.00  0.00    +0.000 A 
ENDROOT
BRANCH   1   7
ATOM      6  N   UNL     1       4.251   6.838  17.045  0.00  0.00    +0.000 N 
ATOM      7  C   UNL     1       3.244   6.567  17.967  0.00  0.00    +0.000 C 
ATOM      8  O   UNL     1       3.033   5.475  18.487  0.00  0.00    +0.000 OA
ATOM      9  H   UNL     1       4.309   7.790  16.694  0.00  0.00    +0.000 HD
BRANCH   6  16
ATOM     10  C   UNL     1       6.322   5.590  17.427  0.00  0.00    +0.000 A 
ATOM     11  C   UNL     1       7.288   4.670  16.988  0.00  0.00    +0.000 A 
ATOM     12  C   UNL     1       7.226   4.129  15.705  0.00  0.00    +0.000 A 
ATOM     13  C   UNL     1       6.189   4.494  14.860  0.00  0.00    +0.000 A 
ATOM     14 CL   UNL     1       6.118   3.842  13.269  0.00  0.00    +0.000 Cl
ATOM     15  C   UNL     1       5.207   5.384  15.286  0.00  0.00    +0.000 A 
ATOM     16  C   UNL     1       5.249   5.941  16.574  0.00  0.00    +0.000 A 
BRANCH  10  18
ATOM     17  C   UNL     1       7.455   5.799  19.505  0.00  0.00    +0.000 C 
ATOM     18  O   UNL     1       6.355   6.177  18.672  0.00  0.00    +0.000 OA
ENDBRANCH  10  18
ENDBRANCH   6  16
ENDBRANCH   1   7
BRANCH   5  19
ATOM     19  N   UNL     1       1.710   7.206  20.685  0.00  0.00    +0.000 N 
ATOM     20  H   UNL     1       1.269   6.278  20.703  0.00  0.00    +0.000 HD
ATOM     21  H   UNL     1       1.656   7.679  21.589  0.00  0.00    +0.000 HD
ENDBRANCH   5  19
BRANCH   4  22
ATOM     22  C   UNL     1       0.604  10.029  20.395  0.00  0.00    +0.000 C 
BRANCH  22  23
ATOM     23  C   UNL     1       1.115  11.451  20.375  0.00  0.00    +0.000 C 
ATOM     24  O   UNL     1       1.673  11.906  21.374  0.00  0.00    +0.000 OA
ATOM     25  N   UNL     1       0.870  12.141  19.193  0.00  0.00    +0.000 N 
ATOM     26  H   UNL     1       0.288  11.697  18.493  0.00  0.00    +0.000 HD
BRANCH  25  27
ATOM     27  C   UNL     1       1.182  13.504  18.966  0.00  0.00    +0.000 A 
ATOM     28  C   UNL     1       0.252  14.529  19.140  0.00  0.00    +0.000 A 
ATOM     29  C   UNL     1       0.544  15.845  18.764  0.00  0.00    +0.000 A 
ATOM     30  C   UNL     1      -0.504  16.912  18.875  0.00  0.00    +0.000 C 
ATOM     31  C   UNL     1       1.806  16.141  18.245  0.00  0.00    +0.000 A 
ATOM     32  C   UNL     1       2.778  15.141  18.118  0.00  0.00    +0.000 A 
ATOM     33  C   UNL     1       4.122  15.461  17.529  0.00  0.00    +0.000 C 
ATOM     34  C   UNL     1       2.464  13.825  18.501  0.00  0.00    +0.000 A 
ENDBRANCH  25  27
ENDBRANCH  22  23
ENDBRANCH   4  22
TORSDOF 7
ENDMDL
MODEL 7
REMARK VINA RESULT:      -8.0      2.229      2.743
REMARK  Name = 
REMARK  10 active torsions:
REMARK  status: ('A' for Active; 'I' for Inactive)
REMARK    1  A    between atoms: C_1  and  O_2
REMARK    2  A    between atoms: O_2  and  C_3
REMARK    3  A    between atoms: C_9  and  N_10
REMARK    4  A    between atoms: C_11  and  C_13
REMARK    5  A    between atoms: N_16  and  C_17
REMARK    6  A    between atoms: C_17  and  C_18
REMARK    7  A    between atoms: N_20  and  C_21
REMARK    8  A    between atoms: C_23  and  C_24
REMARK    9  A    between atoms: C_26  and  C_27
REMARK   10  A    between atoms: C_29  and  N_30
REMARK                            x       y       z     vdW  Elec       q    Type
REMARK                         _______ _______ _______ _____ _____    ______ ____
ROOT
ATOM      1  C   UNL     1       1.691   8.696  19.811  0.00  0.00    +0.000 A 
ATOM      2  N   UNL     1       1.301   8.755  21.128  0.00  0.00    +0.000 NA
ATOM      3  N   UNL     1       0.915   9.997  21.391  0.00  0.00    +0.000 NA
ATOM      4  N   UNL     1       1.037  10.713  20.253  0.00  0.00    +0.000 N 
ATOM      5  C   UNL     1       1.569   9.953  19.241  0.00  0.00    +0.000 A 
ENDROOT
BRANCH   1   7
ATOM      6  N   UNL     1       2.371   6.398  19.998  0.00  0.00    +0.000 N 
ATOM      7  C   UNL     1       2.113   7.464  19.141  0.00  0.00    +0.000 C 
ATOM      8  O   UNL     1       2.184   7.423  17.916  0.00  0.00    +0.000 OA
ATOM      9  H   UNL     1       2.276   6.575  20.994  0.00  0.00    +0.000 HD
BRANCH   6  16
ATOM     10  C   UNL     1       4.064   4.698  19.513  0.00  0.00    +0.000 A 
ATOM     11  C   UNL     1       4.403   3.371  19.199  0.00  0.00    +0.000 A 
ATOM     12  C   UNL     1       3.413   2.419  18.963  0.00  0.00    +0.000 A 
ATOM     13  C   UNL     1       2.079   2.785  19.055  0.00  0.00    +0.000 A 
ATOM     14 CL   UNL     1       0.853   1.617  18.748  0.00  0.00    +0.000 Cl
ATOM     15  C   UNL     1       1.722   4.088  19.392  0.00  0.00    +0.000 A 
ATOM     16  C   UNL     1       2.703   5.063  19.634  0.00  0.00    +0.000 A 
BRANCH  10  18
ATOM     17  C   UNL     1       6.273   5.470  19.102  0.00  0.00    +0.000 C 
ATOM     18  O   UNL     1       5.003   5.682  19.725  0.00  0.00    +0.000 OA
ENDBRANCH  10  18
ENDBRANCH   6  16
ENDBRANCH   1   7
BRANCH   5  19
ATOM     19  N   UNL     1       1.850  10.428  18.004  0.00  0.00    +0.000 N 
ATOM     20  H   UNL     1       2.734  10.898  17.771  0.00  0.00    +0.000 HD
ATOM     21  H   UNL     1       1.081  10.731  17.403  0.00  0.00    +0.000 HD
ENDBRANCH   5  19
BRANCH   4  22
ATOM     22  C   UNL     1       0.604  12.088  20.232  0.00  0.00    +0.000 C 
BRANCH  22  23
ATOM     23  C   UNL     1      -0.436  12.321  19.160  0.00  0.00    +0.000 C 
ATOM     24  O   UNL     1      -0.317  13.285  18.403  0.00  0.00    +0.000 OA
ATOM     25  N   UNL     1      -1.481  11.403  19.154  0.00  0.00    +0.000 N 
ATOM     26  H   UNL     1      -1.530  10.731  19.910  0.00  0.00    +0.000 HD
BRANCH  25  27
ATOM     27  C   UNL     1      -2.609  11.459  18.299  0.00  0.00    +0.000 A 
ATOM     28  C   UNL     1      -3.865  11.881  18.736  0.00  0.00    +0.000 A 
ATOM     29  C   UNL     1      -4.991  11.783  17.911  0.00  0.00    +0.000 A 
ATOM     30  C   UNL     1      -6.346  12.156  18.435  0.00  0.00    +0.000 C 
ATOM     31  C   UNL     1      -4.843  11.293  16.612  0.00  0.00    +0.000 A 
ATOM     32  C   UNL     1      -3.582  10.921  16.129  0.00  0.00    +0.000 A 
ATOM     33  C   UNL     1      -3.435  10.365  14.742  0.00  0.00    +0.000 C 
ATOM     34  C   UNL     1      -2.463  11.027  16.975  0.00  0.00    +0.000 A 
ENDBRANCH  25  27
ENDBRANCH  22  23
ENDBRANCH   4  22
TORSDOF 7
ENDMDL
MODEL 8
REMARK VINA RESULT:      -8.0      1.748      2.918
REMARK  Name = 
REMARK  10 active torsions:
REMARK  status: ('A' for Active; 'I' for Inactive)
REMARK    1  A    between atoms: C_1  and  O_2
REMARK    2  A    between atoms: O_2  and  C_3
REMARK    3  A    between atoms: C_9  and  N_10
REMARK    4  A    between atoms: C_11  and  C_13
REMARK    5  A    between atoms: N_16  and  C_17
REMARK    6  A    between atoms: C_17  and  C_18
REMARK    7  A    between atoms: N_20  and  C_21
REMARK    8  A    between atoms: C_23  and  C_24
REMARK    9  A    between atoms: C_26  and  C_27
REMARK   10  A    between atoms: C_29  and  N_30
REMARK                            x       y       z     vdW  Elec       q    Type
REMARK                         _______ _______ _______ _____ _____    ______ ____
ROOT
ATOM      1  C   UNL     1       1.810   8.508  19.487  0.00  0.00    +0.000 A 
ATOM      2  N   UNL     1       1.406   8.047  20.718  0.00  0.00    +0.000 NA
ATOM      3  N   UNL     1       0.616   8.962  21.265  0.00  0.00    +0.000 NA
ATOM      4  N   UNL     1       0.503   9.982  20.388  0.00  0.00    +0.000 N 
ATOM      5  C   UNL     1       1.275   9.769  19.273  0.00  0.00    +0.000 A 
ENDROOT
BRANCH   1   7
ATOM      6  N   UNL     1       3.021   6.482  19.031  0.00  0.00    +0.000 N 
ATOM      7  C   UNL     1       2.636   7.734  18.559  0.00  0.00    +0.000 C 
ATOM      8  O   UNL     1       2.906   8.188  17.451  0.00  0.00    +0.000 OA
ATOM      9  H   UNL     1       2.727   6.236  19.972  0.00  0.00    +0.000 HD
BRANCH   6  16
ATOM     10  C   UNL     1       3.024   4.435  17.688  0.00  0.00    +0.000 A 
ATOM     11  C   UNL     1       3.720   3.466  16.946  0.00  0.00    +0.000 A 
ATOM     12  C   UNL     1       5.111   3.497  16.861  0.00  0.00    +0.000 A 
ATOM     13  C   UNL     1       5.812   4.505  17.505  0.00  0.00    +0.000 A 
ATOM     14 CL   UNL     1       7.530   4.536  17.418  0.00  0.00    +0.000 Cl
ATOM     15  C   UNL     1       5.139   5.490  18.223  0.00  0.00    +0.000 A 
ATOM     16  C   UNL     1       3.738   5.480  18.322  0.00  0.00    +0.000 A 
BRANCH  10  18
ATOM     17  C   UNL     1       1.108   3.319  18.541  0.00  0.00    +0.000 C 
ATOM     18  O   UNL     1       1.654   4.432  17.829  0.00  0.00    +0.000 OA
ENDBRANCH  10  18
ENDBRANCH   6  16
ENDBRANCH   1   7
BRANCH   5  19
ATOM     19  N   UNL     1       1.394  10.652  18.253  0.00  0.00    +0.000 N 
ATOM     20  H   UNL     1       0.694  10.743  17.507  0.00  0.00    +0.000 HD
ATOM     21  H   UNL     1       2.328  10.928  17.943  0.00  0.00    +0.000 HD
ENDBRANCH   5  19
BRANCH   4  22
ATOM     22  C   UNL     1      -0.373  11.086  20.695  0.00  0.00    +0.000 C 
BRANCH  22  23
ATOM     23  C   UNL     1      -1.173  11.508  19.484  0.00  0.00    +0.000 C 
ATOM     24  O   UNL     1      -1.082  12.665  19.074  0.00  0.00    +0.000 OA
ATOM     25  N   UNL     1      -1.986  10.513  18.950  0.00  0.00    +0.000 N 
ATOM     26  H   UNL     1      -2.069   9.640  19.457  0.00  0.00    +0.000 HD
BRANCH  25  27
ATOM     27  C   UNL     1      -2.884  10.690  17.870  0.00  0.00    +0.000 A 
ATOM     28  C   UNL     1      -2.615  10.226  16.581  0.00  0.00    +0.000 A 
ATOM     29  C   UNL     1      -3.449  10.547  15.505  0.00  0.00    +0.000 A 
ATOM     30  C   UNL     1      -3.088  10.114  14.115  0.00  0.00    +0.000 C 
ATOM     31  C   UNL     1      -4.595  11.312  15.736  0.00  0.00    +0.000 A 
ATOM     32  C   UNL     1      -4.920  11.738  17.030  0.00  0.00    +0.000 A 
ATOM     33  C   UNL     1      -6.137  12.586  17.264  0.00  0.00    +0.000 C 
ATOM     34  C   UNL     1      -4.068  11.404  18.098  0.00  0.00    +0.000 A 
ENDBRANCH  25  27
ENDBRANCH  22  23
ENDBRANCH   4  22
TORSDOF 7
ENDMDL
MODEL 9
REMARK VINA RESULT:      -8.0      2.271      2.985
REMARK  Name = 
REMARK  10 active torsions:
REMARK  status: ('A' for Active; 'I' for Inactive)
REMARK    1  A    between atoms: C_1  and  O_2
REMARK    2  A    between atoms: O_2  and  C_3
REMARK    3  A    between atoms: C_9  and  N_10
REMARK    4  A    between atoms: C_11  and  C_13
REMARK    5  A    between atoms: N_16  and  C_17
REMARK    6  A    between atoms: C_17  and  C_18
REMARK    7  A    between atoms: N_20  and  C_21
REMARK    8  A    between atoms: C_23  and  C_24
REMARK    9  A    between atoms: C_26  and  C_27
REMARK   10  A    between atoms: C_29  and  N_30
REMARK                            x       y       z     vdW  Elec       q    Type
REMARK                         _______ _______ _______ _____ _____    ______ ____
ROOT
ATOM      1  C   UNL     1       2.080   8.439  18.672  0.00  0.00    +0.000 A 
ATOM      2  N   UNL     1       2.527   9.053  17.525  0.00  0.00    +0.000 NA
ATOM      3  N   UNL     1       2.201  10.338  17.588  0.00  0.00    +0.000 NA
ATOM      4  N   UNL     1       1.574  10.543  18.766  0.00  0.00    +0.000 N 
ATOM      5  C   UNL     1       1.427   9.370  19.464  0.00  0.00    +0.000 A 
ENDROOT
BRANCH   1   7
ATOM      6  N   UNL     1       2.270   6.173  17.893  0.00  0.00    +0.000 N 
ATOM      7  C   UNL     1       2.322   7.031  18.988  0.00  0.00    +0.000 C 
ATOM      8  O   UNL     1       2.579   6.694  20.141  0.00  0.00    +0.000 OA
ATOM      9  H   UNL     1       2.043   6.588  16.994  0.00  0.00    +0.000 HD
BRANCH   6  16
ATOM     10  C   UNL     1       3.815   4.336  17.409  0.00  0.00    +0.000 A 
ATOM     11  C   UNL     1       4.123   2.966  17.433  0.00  0.00    +0.000 A 
ATOM     12  C   UNL     1       3.188   2.032  17.876  0.00  0.00    +0.000 A 
ATOM     13  C   UNL     1       1.945   2.465  18.310  0.00  0.00    +0.000 A 
ATOM     14 CL   UNL     1       0.780   1.315  18.842  0.00  0.00    +0.000 Cl
ATOM     15  C   UNL     1       1.629   3.821  18.320  0.00  0.00    +0.000 A 
ATOM     16  C   UNL     1       2.556   4.779  17.878  0.00  0.00    +0.000 A 
BRANCH  10  18
ATOM     17  C   UNL     1       5.330   5.006  15.706  0.00  0.00    +0.000 C 
ATOM     18  O   UNL     1       4.691   5.295  16.952  0.00  0.00    +0.000 OA
ENDBRANCH  10  18
ENDBRANCH   6  16
ENDBRANCH   1   7
BRANCH   5  19
ATOM     19  N   UNL     1       0.789   9.271  20.654  0.00  0.00    +0.000 N 
ATOM     20  H   UNL     1       0.722   8.392  21.182  0.00  0.00    +0.000 HD
ATOM     21  H   UNL     1       0.010   9.903  20.853  0.00  0.00    +0.000 HD
ENDBRANCH   5  19
BRANCH   4  22
ATOM     22  C   UNL     1       1.181  11.881  19.134  0.00  0.00    +0.000 C 
BRANCH  22  23
ATOM     23  C   UNL     1      -0.152  12.251  18.525  0.00  0.00    +0.000 C 
ATOM     24  O   UNL     1      -0.499  13.432  18.505  0.00  0.00    +0.000 OA
ATOM     25  N   UNL     1      -0.895  11.173  18.055  0.00  0.00    +0.000 N 
ATOM     26  H   UNL     1      -0.555  10.239  18.247  0.00  0.00    +0.000 HD
BRANCH  25  27
ATOM     27  C   UNL     1      -2.203  11.260  17.519  0.00  0.00    +0.000 A 
ATOM     28  C   UNL     1      -3.295  11.708  18.262  0.00  0.00    +0.000 A 
ATOM     29  C   UNL     1      -4.597  11.640  17.753  0.00  0.00    +0.000 A 
ATOM     30  C   UNL     1      -5.763  12.042  18.606  0.00  0.00    +0.000 C 
ATOM     31  C   UNL     1      -4.798  11.151  16.460  0.00  0.00    +0.000 A 
ATOM     32  C   UNL     1      -3.712  10.752  15.671  0.00  0.00    +0.000 A 
ATOM     33  C   UNL     1      -3.939  10.199  14.294  0.00  0.00    +0.000 C 
ATOM     34  C   UNL     1      -2.411  10.829  16.201  0.00  0.00    +0.000 A 
ENDBRANCH  25  27
ENDBRANCH  22  23
ENDBRANCH   4  22
TORSDOF 7
ENDMDL
