MODEL 1
REMARK VINA RESULT:      -5.9      0.000      0.000
REMARK  Name = 
REMARK  7 active torsions:
REMARK  status: ('A' for Active; 'I' for Inactive)
REMARK    1  A    between atoms: C_1  and  C_2
REMARK    2  A    between atoms: C_2  and  O_3
REMARK    3  A    between atoms: O_3  and  C_4
REMARK    4  A    between atoms: C_4  and  C_6
REMARK    5  A    between atoms: C_8  and  N_9
REMARK    6  A    between atoms: C_10  and  C_11
REMARK    7  A    between atoms: C_14  and  C_15
REMARK                            x       y       z     vdW  Elec       q    Type
REMARK                         _______ _______ _______ _____ _____    ______ ____
ROOT
ATOM      1  C   UNL     1       2.843   4.275  18.062  0.00  0.00    +0.000 A 
ATOM      2  S   UNL     1       3.894   3.007  17.601  0.00  0.00    +0.000 S 
ATOM      3  C   UNL     1       4.976   4.058  16.816  0.00  0.00    +0.000 A 
ATOM      4  C   UNL     1       4.590   5.387  16.917  0.00  0.00    +0.000 A 
ATOM      5  C   UNL     1       3.352   5.518  17.683  0.00  0.00    +0.000 A 
ATOM      6  C   UNL     1       2.699   6.834  18.003  0.00  0.00    +0.000 C 
ENDROOT
BRANCH   4   7
ATOM      7  C   UNL     1       5.322   6.507  16.317  0.00  0.00    +0.000 C 
ATOM      8  N   UNL     1       6.299   7.065  17.091  0.00  0.00    +0.000 N 
ATOM      9  O   UNL     1       5.078   6.967  15.206  0.00  0.00    +0.000 OA
ATOM     10  H   UNL     1       6.374   6.816  18.069  0.00  0.00    +0.000 HD
ATOM     11  H   UNL     1       6.700   7.932  16.766  0.00  0.00    +0.000 HD
ENDBRANCH   4   7
BRANCH   3  12
ATOM     12  N   UNL     1       6.047   3.530  16.172  0.00  0.00    +0.000 N 
ATOM     13  H   UNL     1       6.920   4.049  16.255  0.00  0.00    +0.000 HD
ATOM     14  H   UNL     1       6.200   2.526  16.239  0.00  0.00    +0.000 HD
ENDBRANCH   3  12
BRANCH   1  15
ATOM     15  C   UNL     1       1.598   3.903  18.722  0.00  0.00    +0.000 C 
ATOM     16  O   UNL     1       0.713   3.193  18.257  0.00  0.00    +0.000 OA
BRANCH  15  17
ATOM     17  O   UNL     1       1.500   4.537  19.925  0.00  0.00    +0.000 OA
BRANCH  17  19
ATOM     18  C   UNL     1       1.614   2.807  21.565  0.00  0.00    +0.000 C 
ATOM     19  C   UNL     1       2.315   4.022  20.984  0.00  0.00    +0.000 C 
ENDBRANCH  17  19
ENDBRANCH  15  17
ENDBRANCH   1  15
TORSDOF 5
ENDMDL
MODEL 2
REMARK VINA RESULT:      -5.9      1.636      1.964
REMARK  Name = 
REMARK  7 active torsions:
REMARK  status: ('A' for Active; 'I' for Inactive)
REMARK    1  A    between atoms: C_1  and  C_2
REMARK    2  A    between atoms: C_2  and  O_3
REMARK    3  A    between atoms: O_3  and  C_4
REMARK    4  A    between atoms: C_4  and  C_6
REMARK    5  A    between atoms: C_8  and  N_9
REMARK    6  A    between atoms: C_10  and  C_11
REMARK    7  A    between atoms: C_14  and  C_15
REMARK                            x       y       z     vdW  Elec       q    Type
REMARK                         _______ _______ _______ _____ _____    ______ ____
ROOT
ATOM      1  C   UNL     1       3.571   5.096  19.188  0.00  0.00    +0.000 A 
ATOM      2  S   UNL     1       4.846   3.971  19.371  0.00  0.00    +0.000 S 
ATOM      3  C   UNL     1       5.831   4.754  18.226  0.00  0.00    +0.000 A 
ATOM      4  C   UNL     1       5.237   5.897  17.712  0.00  0.00    +0.000 A 
ATOM      5  C   UNL     1       3.921   6.119  18.306  0.00  0.00    +0.000 A 
ATOM      6  C   UNL     1       3.044   7.298  17.986  0.00  0.00    +0.000 C 
ENDROOT
BRANCH   4   7
ATOM      7  C   UNL     1       5.848   6.757  16.693  0.00  0.00    +0.000 C 
ATOM      8  N   UNL     1       5.279   6.708  15.452  0.00  0.00    +0.000 N 
ATOM      9  O   UNL     1       6.832   7.462  16.892  0.00  0.00    +0.000 OA
ATOM     10  H   UNL     1       4.596   5.994  15.235  0.00  0.00    +0.000 HD
ATOM     11  H   UNL     1       5.780   7.162  14.702  0.00  0.00    +0.000 HD
ENDBRANCH   4   7
BRANCH   3  12
ATOM     12  N   UNL     1       7.032   4.205  17.915  0.00  0.00    +0.000 N 
ATOM     13  H   UNL     1       7.484   4.563  17.075  0.00  0.00    +0.000 HD
ATOM     14  H   UNL     1       7.702   4.058  18.667  0.00  0.00    +0.000 HD
ENDBRANCH   3  12
BRANCH   1  15
ATOM     15  C   UNL     1       2.335   4.827  19.912  0.00  0.00    +0.000 C 
ATOM     16  O   UNL     1       2.147   4.987  21.113  0.00  0.00    +0.000 OA
BRANCH  15  17
ATOM     17  O   UNL     1       1.414   4.274  19.073  0.00  0.00    +0.000 OA
BRANCH  17  19
ATOM     18  C   UNL     1       1.652   1.899  19.062  0.00  0.00    +0.000 C 
ATOM     19  C   UNL     1       0.793   3.064  19.520  0.00  0.00    +0.000 C 
ENDBRANCH  17  19
ENDBRANCH  15  17
ENDBRANCH   1  15
TORSDOF 5
ENDMDL
MODEL 3
REMARK VINA RESULT:      -5.9      3.261      5.498
REMARK  Name = 
REMARK  7 active torsions:
REMARK  status: ('A' for Active; 'I' for Inactive)
REMARK    1  A    between atoms: C_1  and  C_2
REMARK    2  A    between atoms: C_2  and  O_3
REMARK    3  A    between atoms: O_3  and  C_4
REMARK    4  A    between atoms: C_4  and  C_6
REMARK    5  A    between atoms: C_8  and  N_9
REMARK    6  A    between atoms: C_10  and  C_11
REMARK    7  A    between atoms: C_14  and  C_15
REMARK                            x       y       z     vdW  Elec       q    Type
REMARK                         _______ _______ _______ _____ _____    ______ ____
ROOT
ATOM      1  C   UNL     1       4.137   4.669  18.353  0.00  0.00    +0.000 A 
ATOM      2  S   UNL     1       3.551   6.217  18.784  0.00  0.00    +0.000 S 
ATOM      3  C   UNL     1       2.581   5.607  20.041  0.00  0.00    +0.000 A 
ATOM      4  C   UNL     1       2.707   4.233  20.186  0.00  0.00    +0.000 A 
ATOM      5  C   UNL     1       3.652   3.685  19.216  0.00  0.00    +0.000 A 
ATOM      6  C   UNL     1       4.036   2.234  19.145  0.00  0.00    +0.000 C 
ENDROOT
BRANCH   4   7
ATOM      7  C   UNL     1       1.972   3.437  21.175  0.00  0.00    +0.000 C 
ATOM      8  N   UNL     1       0.723   3.029  20.802  0.00  0.00    +0.000 N 
ATOM      9  O   UNL     1       2.401   3.165  22.291  0.00  0.00    +0.000 OA
ATOM     10  H   UNL     1       0.293   3.408  19.968  0.00  0.00    +0.000 HD
ATOM     11  H   UNL     1       0.141   2.625  21.522  0.00  0.00    +0.000 HD
ENDBRANCH   4   7
BRANCH   3  12
ATOM     12  N   UNL     1       1.792   6.467  20.732  0.00  0.00    +0.000 N 
ATOM     13  H   UNL     1       0.855   6.134  20.956  0.00  0.00    +0.000 HD
ATOM     14  H   UNL     1       2.204   6.976  21.511  0.00  0.00    +0.000 HD
ENDBRANCH   3  12
BRANCH   1  15
ATOM     15  C   UNL     1       4.991   4.584  17.175  0.00  0.00    +0.000 C 
ATOM     16  O   UNL     1       4.832   3.838  16.215  0.00  0.00    +0.000 OA
BRANCH  15  17
ATOM     17  O   UNL     1       6.072   5.401  17.323  0.00  0.00    +0.000 OA
BRANCH  17  19
ATOM     18  C   UNL     1       7.712   5.731  19.025  0.00  0.00    +0.000 C 
ATOM     19  C   UNL     1       7.238   4.814  17.911  0.00  0.00    +0.000 C 
ENDBRANCH  17  19
ENDBRANCH  15  17
ENDBRANCH   1  15
TORSDOF 5
ENDMDL
MODEL 4
REMARK VINA RESULT:      -5.9      2.232      4.788
REMARK  Name = 
REMARK  7 active torsions:
REMARK  status: ('A' for Active; 'I' for Inactive)
REMARK    1  A    between atoms: C_1  and  C_2
REMARK    2  A    between atoms: C_2  and  O_3
REMARK    3  A    between atoms: O_3  and  C_4
REMARK    4  A    between atoms: C_4  and  C_6
REMARK    5  A    between atoms: C_8  and  N_9
REMARK    6  A    between atoms: C_10  and  C_11
REMARK    7  A    between atoms: C_14  and  C_15
REMARK                            x       y       z     vdW  Elec       q    Type
REMARK                         _______ _______ _______ _____ _____    ______ ____
ROOT
ATOM      1  C   UNL     1       4.431   5.465  17.023  0.00  0.00    +0.000 A 
ATOM      2  S   UNL     1       4.961   3.865  16.734  0.00  0.00    +0.000 S 
ATOM      3  C   UNL     1       3.822   3.191  17.802  0.00  0.00    +0.000 A 
ATOM      4  C   UNL     1       2.996   4.151  18.368  0.00  0.00    +0.000 A 
ATOM      5  C   UNL     1       3.331   5.487  17.881  0.00  0.00    +0.000 A 
ATOM      6  C   UNL     1       2.590   6.734  18.275  0.00  0.00    +0.000 C 
ENDROOT
BRANCH   4   7
ATOM      7  C   UNL     1       1.938   3.859  19.341  0.00  0.00    +0.000 C 
ATOM      8  N   UNL     1       2.165   4.293  20.616  0.00  0.00    +0.000 N 
ATOM      9  O   UNL     1       0.917   3.235  19.075  0.00  0.00    +0.000 OA
ATOM     10  H   UNL     1       3.079   4.636  20.880  0.00  0.00    +0.000 HD
ATOM     11  H   UNL     1       1.532   3.963  21.330  0.00  0.00    +0.000 HD
ENDBRANCH   4   7
BRANCH   3  12
ATOM     12  N   UNL     1       3.840   1.851  18.015  0.00  0.00    +0.000 N 
ATOM     13  H   UNL     1       3.724   1.265  17.190  0.00  0.00    +0.000 HD
ATOM     14  H   UNL     1       4.545   1.476  18.646  0.00  0.00    +0.000 HD
ENDBRANCH   3  12
BRANCH   1  15
ATOM     15  C   UNL     1       5.188   6.541  16.396  0.00  0.00    +0.000 C 
ATOM     16  O   UNL     1       5.195   6.826  15.203  0.00  0.00    +0.000 OA
BRANCH  15  17
ATOM     17  O   UNL     1       5.980   7.154  17.321  0.00  0.00    +0.000 OA
BRANCH  17  19
ATOM     18  C   UNL     1       7.691   6.189  18.677  0.00  0.00    +0.000 C 
ATOM     19  C   UNL     1       7.364   6.784  17.319  0.00  0.00    +0.000 C 
ENDBRANCH  17  19
ENDBRANCH  15  17
ENDBRANCH   1  15
TORSDOF 5
ENDMDL
MODEL 5
REMARK VINA RESULT:      -5.8      2.440      2.972
REMARK  Name = 
REMARK  7 active torsions:
REMARK  status: ('A' for Active; 'I' for Inactive)
REMARK    1  A    between atoms: C_1  and  C_2
REMARK    2  A    between atoms: C_2  and  O_3
REMARK    3  A    between atoms: O_3  and  C_4
REMARK    4  A    between atoms: C_4  and  C_6
REMARK    5  A    between atoms: C_8  and  N_9
REMARK    6  A    between atoms: C_10  and  C_11
REMARK    7  A    between atoms: C_14  and  C_15
REMARK                            x       y       z     vdW  Elec       q    Type
REMARK                         _______ _______ _______ _____ _____    ______ ____
ROOT
ATOM      1  C   UNL     1       3.929   5.432  18.031  0.00  0.00    +0.000 A 
ATOM      2  S   UNL     1       4.381   6.842  17.174  0.00  0.00    +0.000 S 
ATOM      3  C   UNL     1       6.043   6.571  17.411  0.00  0.00    +0.000 A 
ATOM      4  C   UNL     1       6.293   5.396  18.106  0.00  0.00    +0.000 A 
ATOM      5  C   UNL     1       5.048   4.707  18.439  0.00  0.00    +0.000 A 
ATOM      6  C   UNL     1       4.987   3.386  19.154  0.00  0.00    +0.000 C 
ENDROOT
BRANCH   4   7
ATOM      7  C   UNL     1       7.632   4.923  18.472  0.00  0.00    +0.000 C 
ATOM      8  N   UNL     1       8.141   5.418  19.638  0.00  0.00    +0.000 N 
ATOM      9  O   UNL     1       8.300   4.160  17.783  0.00  0.00    +0.000 OA
ATOM     10  H   UNL     1       7.679   6.186  20.109  0.00  0.00    +0.000 HD
ATOM     11  H   UNL     1       9.117   5.236  19.824  0.00  0.00    +0.000 HD
ENDBRANCH   4   7
BRANCH   3  12
ATOM     12  N   UNL     1       6.927   7.491  16.950  0.00  0.00    +0.000 N 
ATOM     13  H   UNL     1       7.724   7.689  17.554  0.00  0.00    +0.000 HD
ATOM     14  H   UNL     1       7.201   7.444  15.971  0.00  0.00    +0.000 HD
ENDBRANCH   3  12
BRANCH   1  15
ATOM     15  C   UNL     1       2.504   5.210  18.244  0.00  0.00    +0.000 C 
ATOM     16  O   UNL     1       1.748   4.587  17.506  0.00  0.00    +0.000 OA
BRANCH  15  17
ATOM     17  O   UNL     1       2.089   5.878  19.357  0.00  0.00    +0.000 OA
BRANCH  17  19
ATOM     18  C   UNL     1       1.117   4.086  20.598  0.00  0.00    +0.000 C 
ATOM     19  C   UNL     1       2.182   5.168  20.597  0.00  0.00    +0.000 C 
ENDBRANCH  17  19
ENDBRANCH  15  17
ENDBRANCH   1  15
TORSDOF 5
ENDMDL
MODEL 6
REMARK VINA RESULT:      -5.8      2.535      5.166
REMARK  Name = 
REMARK  7 active torsions:
REMARK  status: ('A' for Active; 'I' for Inactive)
REMARK    1  A    between atoms: C_1  and  C_2
REMARK    2  A    between atoms: C_2  and  O_3
REMARK    3  A    between atoms: O_3  and  C_4
REMARK    4  A    between atoms: C_4  and  C_6
REMARK    5  A    between atoms: C_8  and  N_9
REMARK    6  A    between atoms: C_10  and  C_11
REMARK    7  A    between atoms: C_14  and  C_15
REMARK                            x       y       z     vdW  Elec       q    Type
REMARK                         _______ _______ _______ _____ _____    ______ ____
ROOT
ATOM      1  C   UNL     1       4.853   5.690  17.596  0.00  0.00    +0.000 A 
ATOM      2  S   UNL     1       5.721   4.259  17.949  0.00  0.00    +0.000 S 
ATOM      3  C   UNL     1       4.557   3.712  19.061  0.00  0.00    +0.000 A 
ATOM      4  C   UNL     1       3.474   4.574  19.161  0.00  0.00    +0.000 A 
ATOM      5  C   UNL     1       3.632   5.721  18.270  0.00  0.00    +0.000 A 
ATOM      6  C   UNL     1       2.609   6.812  18.118  0.00  0.00    +0.000 C 
ENDROOT
BRANCH   4   7
ATOM      7  C   UNL     1       2.333   4.365  20.058  0.00  0.00    +0.000 C 
ATOM      8  N   UNL     1       2.386   5.024  21.253  0.00  0.00    +0.000 N 
ATOM      9  O   UNL     1       1.390   3.624  19.804  0.00  0.00    +0.000 OA
ATOM     10  H   UNL     1       3.241   5.480  21.544  0.00  0.00    +0.000 HD
ATOM     11  H   UNL     1       1.697   4.769  21.946  0.00  0.00    +0.000 HD
ENDBRANCH   4   7
BRANCH   3  12
ATOM     12  N   UNL     1       4.791   2.558  19.736  0.00  0.00    +0.000 N 
ATOM     13  H   UNL     1       5.743   2.197  19.690  0.00  0.00    +0.000 HD
ATOM     14  H   UNL     1       4.398   2.460  20.670  0.00  0.00    +0.000 HD
ENDBRANCH   3  12
BRANCH   1  15
ATOM     15  C   UNL     1       5.493   6.656  16.712  0.00  0.00    +0.000 C 
ATOM     16  O   UNL     1       5.520   6.613  15.486  0.00  0.00    +0.000 OA
BRANCH  15  17
ATOM     17  O   UNL     1       6.152   7.596  17.447  0.00  0.00    +0.000 OA
BRANCH  17  19
ATOM     18  C   UNL     1       8.135   8.841  17.908  0.00  0.00    +0.000 C 
ATOM     19  C   UNL     1       7.580   7.497  17.473  0.00  0.00    +0.000 C 
ENDBRANCH  17  19
ENDBRANCH  15  17
ENDBRANCH   1  15
TORSDOF 5
ENDMDL
MODEL 7
REMARK VINA RESULT:      -5.8      2.292      2.821
REMARK  Name = 
REMARK  7 active torsions:
REMARK  status: ('A' for Active; 'I' for Inactive)
REMARK    1  A    between atoms: C_1  and  C_2
REMARK    2  A    between atoms: C_2  and  O_3
REMARK    3  A    between atoms: O_3  and  C_4
REMARK    4  A    between atoms: C_4  and  C_6
REMARK    5  A    between atoms: C_8  and  N_9
REMARK    6  A    between atoms: C_10  and  C_11
REMARK    7  A    between atoms: C_14  and  C_15
REMARK                            x       y       z     vdW  Elec       q    Type
REMARK                         _______ _______ _______ _____ _____    ______ ____
ROOT
ATOM      1  C   UNL     1       5.015   3.994  17.210  0.00  0.00    +0.000 A 
ATOM      2  S   UNL     1       5.750   3.831  15.674  0.00  0.00    +0.000 S 
ATOM      3  C   UNL     1       6.813   5.133  15.937  0.00  0.00    +0.000 A 
ATOM      4  C   UNL     1       6.663   5.692  17.198  0.00  0.00    +0.000 A 
ATOM      5  C   UNL     1       5.628   4.997  17.962  0.00  0.00    +0.000 A 
ATOM      6  C   UNL     1       5.259   5.339  19.378  0.00  0.00    +0.000 C 
ENDROOT
BRANCH   4   7
ATOM      7  C   UNL     1       7.431   6.840  17.688  0.00  0.00    +0.000 C 
ATOM      8  N   UNL     1       8.134   6.639  18.842  0.00  0.00    +0.000 N 
ATOM      9  O   UNL     1       7.440   7.940  17.145  0.00  0.00    +0.000 OA
ATOM     10  H   UNL     1       7.980   5.803  19.391  0.00  0.00    +0.000 HD
ATOM     11  H   UNL     1       8.534   7.456  19.281  0.00  0.00    +0.000 HD
ENDBRANCH   4   7
BRANCH   3  12
ATOM     12  N   UNL     1       7.647   5.507  14.935  0.00  0.00    +0.000 N 
ATOM     13  H   UNL     1       8.549   5.886  15.220  0.00  0.00    +0.000 HD
ATOM     14  H   UNL     1       7.738   4.889  14.131  0.00  0.00    +0.000 HD
ENDBRANCH   3  12
BRANCH   1  15
ATOM     15  C   UNL     1       3.876   3.132  17.498  0.00  0.00    +0.000 C 
ATOM     16  O   UNL     1       3.914   2.039  18.053  0.00  0.00    +0.000 OA
BRANCH  15  17
ATOM     17  O   UNL     1       2.738   3.674  16.978  0.00  0.00    +0.000 OA
BRANCH  17  19
ATOM     18  C   UNL     1       1.244   3.752  18.838  0.00  0.00    +0.000 C 
ATOM     19  C   UNL     1       2.018   4.577  17.825  0.00  0.00    +0.000 C 
ENDBRANCH  17  19
ENDBRANCH  15  17
ENDBRANCH   1  15
TORSDOF 5
ENDMDL
MODEL 8
REMARK VINA RESULT:      -5.8      2.220      5.043
REMARK  Name = 
REMARK  7 active torsions:
REMARK  status: ('A' for Active; 'I' for Inactive)
REMARK    1  A    between atoms: C_1  and  C_2
REMARK    2  A    between atoms: C_2  and  O_3
REMARK    3  A    between atoms: O_3  and  C_4
REMARK    4  A    between atoms: C_4  and  C_6
REMARK    5  A    between atoms: C_8  and  N_9
REMARK    6  A    between atoms: C_10  and  C_11
REMARK    7  A    between atoms: C_14  and  C_15
REMARK                            x       y       z     vdW  Elec       q    Type
REMARK                         _______ _______ _______ _____ _____    ______ ____
ROOT
ATOM      1  C   UNL     1       4.428   5.414  17.018  0.00  0.00    +0.000 A 
ATOM      2  S   UNL     1       5.042   3.847  16.717  0.00  0.00    +0.000 S 
ATOM      3  C   UNL     1       3.911   3.100  17.745  0.00  0.00    +0.000 A 
ATOM      4  C   UNL     1       3.026   4.010  18.306  0.00  0.00    +0.000 A 
ATOM      5  C   UNL     1       3.308   5.369  17.849  0.00  0.00    +0.000 A 
ATOM      6  C   UNL     1       2.498   6.572  18.245  0.00  0.00    +0.000 C 
ENDROOT
BRANCH   4   7
ATOM      7  C   UNL     1       1.961   3.650  19.248  0.00  0.00    +0.000 C 
ATOM      8  N   UNL     1       0.869   3.034  18.706  0.00  0.00    +0.000 N 
ATOM      9  O   UNL     1       1.994   3.903  20.447  0.00  0.00    +0.000 OA
ATOM     10  H   UNL     1       0.754   2.995  17.702  0.00  0.00    +0.000 HD
ATOM     11  H   UNL     1       0.062   2.926  19.304  0.00  0.00    +0.000 HD
ENDBRANCH   4   7
BRANCH   3  12
ATOM     12  N   UNL     1       3.989   1.760  17.937  0.00  0.00    +0.000 N 
ATOM     13  H   UNL     1       4.917   1.347  17.846  0.00  0.00    +0.000 HD
ATOM     14  H   UNL     1       3.475   1.356  18.718  0.00  0.00    +0.000 HD
ENDBRANCH   3  12
BRANCH   1  15
ATOM     15  C   UNL     1       5.146   6.537  16.428  0.00  0.00    +0.000 C 
ATOM     16  O   UNL     1       5.185   6.830  15.238  0.00  0.00    +0.000 OA
BRANCH  15  17
ATOM     17  O   UNL     1       5.864   7.187  17.387  0.00  0.00    +0.000 OA
BRANCH  17  19
ATOM     18  C   UNL     1       7.960   8.287  17.694  0.00  0.00    +0.000 C 
ATOM     19  C   UNL     1       7.279   6.966  17.383  0.00  0.00    +0.000 C 
ENDBRANCH  17  19
ENDBRANCH  15  17
ENDBRANCH   1  15
TORSDOF 5
ENDMDL
MODEL 9
REMARK VINA RESULT:      -5.8      1.724      2.546
REMARK  Name = 
REMARK  7 active torsions:
REMARK  status: ('A' for Active; 'I' for Inactive)
REMARK    1  A    between atoms: C_1  and  C_2
REMARK    2  A    between atoms: C_2  and  O_3
REMARK    3  A    between atoms: O_3  and  C_4
REMARK    4  A    between atoms: C_4  and  C_6
REMARK    5  A    between atoms: C_8  and  N_9
REMARK    6  A    between atoms: C_10  and  C_11
REMARK    7  A    between atoms: C_14  and  C_15
REMARK                            x       y       z     vdW  Elec       q    Type
REMARK                         _______ _______ _______ _____ _____    ______ ____
ROOT
ATOM      1  C   UNL     1       2.215   3.783  18.385  0.00  0.00    +0.000 A 
ATOM      2  S   UNL     1       2.169   5.478  18.165  0.00  0.00    +0.000 S 
ATOM      3  C   UNL     1       3.758   5.541  17.561  0.00  0.00    +0.000 A 
ATOM      4  C   UNL     1       4.341   4.284  17.476  0.00  0.00    +0.000 A 
ATOM      5  C   UNL     1       3.419   3.245  17.928  0.00  0.00    +0.000 A 
ATOM      6  C   UNL     1       3.740   1.777  17.919  0.00  0.00    +0.000 C 
ENDROOT
BRANCH   4   7
ATOM      7  C   UNL     1       5.710   4.040  17.012  0.00  0.00    +0.000 C 
ATOM      8  N   UNL     1       6.691   4.162  17.955  0.00  0.00    +0.000 N 
ATOM      9  O   UNL     1       6.002   3.777  15.850  0.00  0.00    +0.000 OA
ATOM     10  H   UNL     1       6.478   4.561  18.860  0.00  0.00    +0.000 HD
ATOM     11  H   UNL     1       7.645   4.159  17.624  0.00  0.00    +0.000 HD
ENDBRANCH   4   7
BRANCH   3  12
ATOM     12  N   UNL     1       4.294   6.750  17.258  0.00  0.00    +0.000 N 
ATOM     13  H   UNL     1       4.420   7.392  18.039  0.00  0.00    +0.000 HD
ATOM     14  H   UNL     1       5.086   6.777  16.619  0.00  0.00    +0.000 HD
ENDBRANCH   3  12
BRANCH   1  15
ATOM     15  C   UNL     1       1.063   3.163  19.027  0.00  0.00    +0.000 C 
ATOM     16  O   UNL     1       0.289   2.362  18.513  0.00  0.00    +0.000 OA
BRANCH  15  17
ATOM     17  O   UNL     1       0.899   3.669  20.282  0.00  0.00    +0.000 OA
BRANCH  17  19
ATOM     18  C   UNL     1       2.673   2.745  21.584  0.00  0.00    +0.000 C 
ATOM     19  C   UNL     1       1.170   2.777  21.368  0.00  0.00    +0.000 C 
ENDBRANCH  17  19
ENDBRANCH  15  17
ENDBRANCH   1  15
TORSDOF 5
ENDMDL
