MODEL 1
REMARK VINA RESULT:      -9.1      0.000      0.000
REMARK  Name = 
REMARK  12 active torsions:
REMARK  status: ('A' for Active; 'I' for Inactive)
REMARK    1  A    between atoms: C_1  and  O_2
REMARK    2  A    between atoms: O_2  and  C_3
REMARK    3  A    between atoms: C_5  and  C_6
REMARK    4  A    between atoms: C_6  and  N_7
REMARK    5  A    between atoms: N_7  and  C_8
REMARK    6  A    between atoms: C_8  and  C_9
REMARK    7  A    between atoms: C_9  and  C_10
REMARK    8  A    between atoms: C_9  and  C_11
REMARK    9  A    between atoms: C_19  and  C_20
REMARK   10  A    between atoms: C_28  and  O_29
REMARK   11  A    between atoms: O_29  and  C_30
REMARK   12  A    between atoms: C_31  and  O_32
REMARK                            x       y       z     vdW  Elec       q    Type
REMARK                         _______ _______ _______ _____ _____    ______ ____
ROOT
ATOM      1  C   UNL     1       1.449   3.311  20.727  0.00  0.00    +0.000 C 
ATOM      2  C   UNL     1       2.063   3.159  22.131  0.00  0.00    +0.000 C 
ENDROOT
BRANCH   1   3
ATOM      3  C   UNL     1       2.364   2.777  19.577  0.00  0.00    +0.000 C 
ATOM      4  C   UNL     1       1.791   3.045  18.168  0.00  0.00    +0.000 C 
ATOM      5  C   UNL     1       2.741   2.589  17.060  0.00  0.00    +0.000 C 
ATOM      6  C   UNL     1       4.025   3.323  17.267  0.00  0.00    +0.000 C 
ATOM      7  C   UNL     1       4.416   4.333  16.471  0.00  0.00    +0.000 C 
ATOM      8  C   UNL     1       5.475   5.193  16.919  0.00  0.00    +0.000 A 
ATOM      9  C   UNL     1       6.176   4.875  18.022  0.00  0.00    +0.000 A 
ATOM     10  C   UNL     1       7.179   5.762  18.539  0.00  0.00    +0.000 A 
ATOM     11  C   UNL     1       7.372   6.951  17.952  0.00  0.00    +0.000 A 
ATOM     12  C   UNL     1       8.326   7.996  18.422  0.00  0.00    +0.000 C 
ATOM     13  O   UNL     1       6.648   7.323  16.796  0.00  0.00    +0.000 OA
ATOM     14  C   UNL     1       5.721   6.490  16.234  0.00  0.00    +0.000 A 
ATOM     15  O   UNL     1       5.102   6.812  15.223  0.00  0.00    +0.000 OA
ATOM     16  O   UNL     1       5.974   3.739  18.773  0.00  0.00    +0.000 OA
ATOM     17  C   UNL     1       4.744   3.004  18.557  0.00  0.00    +0.000 C 
ATOM     18  C   UNL     1       3.816   3.288  19.746  0.00  0.00    +0.000 C 
ENDBRANCH   1   3
BRANCH   1  19
ATOM     19  C   UNL     1       1.005   4.780  20.529  0.00  0.00    +0.000 C 
BRANCH  19  20
ATOM     20  N   UNL     1       2.044   5.774  20.796  0.00  0.00    +0.000 NA
ATOM     21  H   UNL     1       1.780   6.328  21.611  0.00  0.00    +0.000 HD
BRANCH  20  22
ATOM     22  C   UNL     1       2.277   6.682  19.674  0.00  0.00    +0.000 C 
BRANCH  22  25
ATOM     23  C   UNL     1       1.278  10.349  19.244  0.00  0.00    +0.000 A 
ATOM     24  C   UNL     1       1.765   9.058  18.994  0.00  0.00    +0.000 A 
ATOM     25  C   UNL     1       1.790   8.075  19.992  0.00  0.00    +0.000 A 
ATOM     26  C   UNL     1       1.333   8.413  21.270  0.00  0.00    +0.000 A 
ATOM     27  C   UNL     1       0.839   9.693  21.549  0.00  0.00    +0.000 A 
ATOM     28  C   UNL     1       0.804  10.660  20.529  0.00  0.00    +0.000 A 
BRANCH  23  30
ATOM     29  C   UNL     1       2.357  12.190  18.146  0.00  0.00    +0.000 C 
ATOM     30  O   UNL     1       1.382  11.160  18.145  0.00  0.00    +0.000 OA
ENDBRANCH  23  30
BRANCH  27  31
ATOM     31  O   UNL     1       0.540   9.883  22.873  0.00  0.00    +0.000 OA
ATOM     32  C   UNL     1      -0.823  10.036  23.248  0.00  0.00    +0.000 C 
ENDBRANCH  27  31
BRANCH  28  33
ATOM     33  O   UNL     1       0.362  11.926  20.797  0.00  0.00    +0.000 OA
ATOM     34  H   UNL     1       0.187  11.948  21.751  0.00  0.00    +0.000 HD
ENDBRANCH  28  33
ENDBRANCH  22  25
ENDBRANCH  20  22
ENDBRANCH  19  20
ENDBRANCH   1  19
TORSDOF 8
ENDMDL
MODEL 2
REMARK VINA RESULT:      -8.9      0.206      2.218
REMARK  Name = 
REMARK  12 active torsions:
REMARK  status: ('A' for Active; 'I' for Inactive)
REMARK    1  A    between atoms: C_1  and  O_2
REMARK    2  A    between atoms: O_2  and  C_3
REMARK    3  A    between atoms: C_5  and  C_6
REMARK    4  A    between atoms: C_6  and  N_7
REMARK    5  A    between atoms: N_7  and  C_8
REMARK    6  A    between atoms: C_8  and  C_9
REMARK    7  A    between atoms: C_9  and  C_10
REMARK    8  A    between atoms: C_9  and  C_11
REMARK    9  A    between atoms: C_19  and  C_20
REMARK   10  A    between atoms: C_28  and  O_29
REMARK   11  A    between atoms: O_29  and  C_30
REMARK   12  A    between atoms: C_31  and  O_32
REMARK                            x       y       z     vdW  Elec       q    Type
REMARK                         _______ _______ _______ _____ _____    ______ ____
ROOT
ATOM      1  C   UNL     1       1.436   3.378  20.670  0.00  0.00    +0.000 C 
ATOM      2  C   UNL     1       2.009   3.269  22.095  0.00  0.00    +0.000 C 
ENDROOT
BRANCH   1   3
ATOM      3  C   UNL     1       2.389   2.818  19.564  0.00  0.00    +0.000 C 
ATOM      4  C   UNL     1       1.844   3.021  18.132  0.00  0.00    +0.000 C 
ATOM      5  C   UNL     1       2.829   2.541  17.065  0.00  0.00    +0.000 C 
ATOM      6  C   UNL     1       4.095   3.306  17.274  0.00  0.00    +0.000 C 
ATOM      7  C   UNL     1       4.486   4.292  16.449  0.00  0.00    +0.000 C 
ATOM      8  C   UNL     1       5.519   5.188  16.888  0.00  0.00    +0.000 A 
ATOM      9  C   UNL     1       6.198   4.926  18.018  0.00  0.00    +0.000 A 
ATOM     10  C   UNL     1       7.173   5.850  18.523  0.00  0.00    +0.000 A 
ATOM     11  C   UNL     1       7.360   7.019  17.896  0.00  0.00    +0.000 A 
ATOM     12  C   UNL     1       8.283   8.099  18.347  0.00  0.00    +0.000 C 
ATOM     13  O   UNL     1       6.657   7.334  16.710  0.00  0.00    +0.000 OA
ATOM     14  C   UNL     1       5.758   6.462  16.159  0.00  0.00    +0.000 A 
ATOM     15  O   UNL     1       5.159   6.734  15.122  0.00  0.00    +0.000 OA
ATOM     16  O   UNL     1       5.999   3.816  18.807  0.00  0.00    +0.000 OA
ATOM     17  C   UNL     1       4.788   3.050  18.591  0.00  0.00    +0.000 C 
ATOM     18  C   UNL     1       3.827   3.362  19.747  0.00  0.00    +0.000 C 
ENDBRANCH   1   3
BRANCH   1  19
ATOM     19  C   UNL     1       0.992   4.838  20.418  0.00  0.00    +0.000 C 
BRANCH  19  20
ATOM     20  N   UNL     1       2.008   5.847  20.714  0.00  0.00    +0.000 NA
ATOM     21  H   UNL     1       1.739   6.361  21.554  0.00  0.00    +0.000 HD
BRANCH  20  22
ATOM     22  C   UNL     1       2.205   6.806  19.629  0.00  0.00    +0.000 C 
BRANCH  22  25
ATOM     23  C   UNL     1       1.021   9.735  21.786  0.00  0.00    +0.000 A 
ATOM     24  C   UNL     1       1.402   8.453  21.365  0.00  0.00    +0.000 A 
ATOM     25  C   UNL     1       1.753   8.189  20.035  0.00  0.00    +0.000 A 
ATOM     26  C   UNL     1       1.698   9.237  19.111  0.00  0.00    +0.000 A 
ATOM     27  C   UNL     1       1.323  10.529  19.502  0.00  0.00    +0.000 A 
ATOM     28  C   UNL     1       0.992  10.778  20.846  0.00  0.00    +0.000 A 
BRANCH  23  30
ATOM     29  C   UNL     1      -0.692   9.707  23.467  0.00  0.00    +0.000 C 
ATOM     30  O   UNL     1       0.681   9.761  23.112  0.00  0.00    +0.000 OA
ENDBRANCH  23  30
BRANCH  27  31
ATOM     31  O   UNL     1       1.215  11.404  18.452  0.00  0.00    +0.000 OA
ATOM     32  C   UNL     1       2.271  12.329  18.227  0.00  0.00    +0.000 C 
ENDBRANCH  27  31
BRANCH  28  33
ATOM     33  O   UNL     1       0.586  12.025  21.234  0.00  0.00    +0.000 OA
ATOM     34  H   UNL     1      -0.324  11.919  21.553  0.00  0.00    +0.000 HD
ENDBRANCH  28  33
ENDBRANCH  22  25
ENDBRANCH  20  22
ENDBRANCH  19  20
ENDBRANCH   1  19
TORSDOF 8
ENDMDL
MODEL 3
REMARK VINA RESULT:      -8.3      1.030      1.314
REMARK  Name = 
REMARK  12 active torsions:
REMARK  status: ('A' for Active; 'I' for Inactive)
REMARK    1  A    between atoms: C_1  and  O_2
REMARK    2  A    between atoms: O_2  and  C_3
REMARK    3  A    between atoms: C_5  and  C_6
REMARK    4  A    between atoms: C_6  and  N_7
REMARK    5  A    between atoms: N_7  and  C_8
REMARK    6  A    between atoms: C_8  and  C_9
REMARK    7  A    between atoms: C_9  and  C_10
REMARK    8  A    between atoms: C_9  and  C_11
REMARK    9  A    between atoms: C_19  and  C_20
REMARK   10  A    between atoms: C_28  and  O_29
REMARK   11  A    between atoms: O_29  and  C_30
REMARK   12  A    between atoms: C_31  and  O_32
REMARK                            x       y       z     vdW  Elec       q    Type
REMARK                         _______ _______ _______ _____ _____    ______ ____
ROOT
ATOM      1  C   UNL     1       1.502   3.557  20.756  0.00  0.00    +0.000 C 
ATOM      2  C   UNL     1       1.317   2.634  21.974  0.00  0.00    +0.000 C 
ENDROOT
BRANCH   1   3
ATOM      3  C   UNL     1       2.440   2.966  19.653  0.00  0.00    +0.000 C 
ATOM      4  C   UNL     1       1.873   3.121  18.224  0.00  0.00    +0.000 C 
ATOM      5  C   UNL     1       2.844   2.611  17.158  0.00  0.00    +0.000 C 
ATOM      6  C   UNL     1       4.108   3.389  17.322  0.00  0.00    +0.000 C 
ATOM      7  C   UNL     1       4.482   4.349  16.460  0.00  0.00    +0.000 C 
ATOM      8  C   UNL     1       5.516   5.264  16.854  0.00  0.00    +0.000 A 
ATOM      9  C   UNL     1       6.215   5.042  17.981  0.00  0.00    +0.000 A 
ATOM     10  C   UNL     1       7.192   5.987  18.442  0.00  0.00    +0.000 A 
ATOM     11  C   UNL     1       7.363   7.136  17.774  0.00  0.00    +0.000 A 
ATOM     12  C   UNL     1       8.287   8.234  18.176  0.00  0.00    +0.000 C 
ATOM     13  O   UNL     1       6.640   7.409  16.589  0.00  0.00    +0.000 OA
ATOM     14  C   UNL     1       5.738   6.515  16.081  0.00  0.00    +0.000 A 
ATOM     15  O   UNL     1       5.121   6.750  15.045  0.00  0.00    +0.000 OA
ATOM     16  O   UNL     1       6.033   3.957  18.809  0.00  0.00    +0.000 OA
ATOM     17  C   UNL     1       4.823   3.179  18.636  0.00  0.00    +0.000 C 
ATOM     18  C   UNL     1       3.878   3.523  19.796  0.00  0.00    +0.000 C 
ENDBRANCH   1   3
BRANCH   1  19
ATOM     19  C   UNL     1       1.938   4.958  21.249  0.00  0.00    +0.000 C 
BRANCH  19  20
ATOM     20  N   UNL     1       1.222   6.074  20.632  0.00  0.00    +0.000 NA
ATOM     21  H   UNL     1       1.677   6.322  19.752  0.00  0.00    +0.000 HD
BRANCH  20  22
ATOM     22  C   UNL     1       1.168   7.265  21.477  0.00  0.00    +0.000 C 
BRANCH  22  25
ATOM     23  C   UNL     1       1.359   9.764  18.588  0.00  0.00    +0.000 A 
ATOM     24  C   UNL     1       1.571   8.641  19.400  0.00  0.00    +0.000 A 
ATOM     25  C   UNL     1       0.954   8.510  20.651  0.00  0.00    +0.000 A 
ATOM     26  C   UNL     1       0.122   9.544  21.094  0.00  0.00    +0.000 A 
ATOM     27  C   UNL     1      -0.110  10.676  20.304  0.00  0.00    +0.000 A 
ATOM     28  C   UNL     1       0.504  10.780  19.043  0.00  0.00    +0.000 A 
BRANCH  23  30
ATOM     29  C   UNL     1       2.980   8.619  17.238  0.00  0.00    +0.000 C 
ATOM     30  O   UNL     1       2.089   9.706  17.430  0.00  0.00    +0.000 OA
ENDBRANCH  23  30
BRANCH  27  31
ATOM     31  O   UNL     1      -0.856  11.636  20.937  0.00  0.00    +0.000 OA
ATOM     32  C   UNL     1      -0.864  11.664  22.359  0.00  0.00    +0.000 C 
ENDBRANCH  27  31
BRANCH  28  33
ATOM     33  O   UNL     1       0.318  11.898  18.278  0.00  0.00    +0.000 OA
ATOM     34  H   UNL     1       1.188  12.321  18.211  0.00  0.00    +0.000 HD
ENDBRANCH  28  33
ENDBRANCH  22  25
ENDBRANCH  20  22
ENDBRANCH  19  20
ENDBRANCH   1  19
TORSDOF 8
ENDMDL
MODEL 4
REMARK VINA RESULT:      -8.3      3.381      9.203
REMARK  Name = 
REMARK  12 active torsions:
REMARK  status: ('A' for Active; 'I' for Inactive)
REMARK    1  A    between atoms: C_1  and  O_2
REMARK    2  A    between atoms: O_2  and  C_3
REMARK    3  A    between atoms: C_5  and  C_6
REMARK    4  A    between atoms: C_6  and  N_7
REMARK    5  A    between atoms: N_7  and  C_8
REMARK    6  A    between atoms: C_8  and  C_9
REMARK    7  A    between atoms: C_9  and  C_10
REMARK    8  A    between atoms: C_9  and  C_11
REMARK    9  A    between atoms: C_19  and  C_20
REMARK   10  A    between atoms: C_28  and  O_29
REMARK   11  A    between atoms: O_29  and  C_30
REMARK   12  A    between atoms: C_31  and  O_32
REMARK                            x       y       z     vdW  Elec       q    Type
REMARK                         _______ _______ _______ _____ _____    ______ ____
ROOT
ATOM      1  C   UNL     1       0.925   9.555  21.787  0.00  0.00    +0.000 C 
ATOM      2  C   UNL     1       0.136   9.441  23.104  0.00  0.00    +0.000 C 
ENDROOT
BRANCH   1   3
ATOM      3  C   UNL     1       0.670  10.889  21.012  0.00  0.00    +0.000 C 
ATOM      4  C   UNL     1       1.227  10.871  19.570  0.00  0.00    +0.000 C 
ATOM      5  C   UNL     1       0.894  12.153  18.806  0.00  0.00    +0.000 C 
ATOM      6  C   UNL     1      -0.594  12.279  18.807  0.00  0.00    +0.000 C 
ATOM      7  C   UNL     1      -1.338  12.051  17.712  0.00  0.00    +0.000 C 
ATOM      8  C   UNL     1      -2.754  11.868  17.866  0.00  0.00    +0.000 A 
ATOM      9  C   UNL     1      -3.335  12.106  19.055  0.00  0.00    +0.000 A 
ATOM     10  C   UNL     1      -4.731  11.846  19.259  0.00  0.00    +0.000 A 
ATOM     11  C   UNL     1      -5.450  11.298  18.270  0.00  0.00    +0.000 A 
ATOM     12  C   UNL     1      -6.887  10.911  18.365  0.00  0.00    +0.000 C 
ATOM     13  O   UNL     1      -4.872  11.025  17.009  0.00  0.00    +0.000 OA
ATOM     14  C   UNL     1      -3.559  11.306  16.749  0.00  0.00    +0.000 A 
ATOM     15  O   UNL     1      -3.063  11.079  15.649  0.00  0.00    +0.000 OA
ATOM     16  O   UNL     1      -2.666  12.552  20.173  0.00  0.00    +0.000 OA
ATOM     17  C   UNL     1      -1.220  12.460  20.169  0.00  0.00    +0.000 C 
ATOM     18  C   UNL     1      -0.824  11.288  21.077  0.00  0.00    +0.000 C 
ENDBRANCH   1   3
BRANCH   1  19
ATOM     19  C   UNL     1       0.664   8.289  20.936  0.00  0.00    +0.000 C 
BRANCH  19  20
ATOM     20  N   UNL     1       1.714   7.274  21.011  0.00  0.00    +0.000 NA
ATOM     21  H   UNL     1       2.353   7.504  21.773  0.00  0.00    +0.000 HD
BRANCH  20  22
ATOM     22  C   UNL     1       2.489   7.150  19.778  0.00  0.00    +0.000 C 
BRANCH  22  25
ATOM     23  C   UNL     1       5.093   4.392  19.287  0.00  0.00    +0.000 A 
ATOM     24  C   UNL     1       4.473   5.647  19.358  0.00  0.00    +0.000 A 
ATOM     25  C   UNL     1       3.112   5.779  19.662  0.00  0.00    +0.000 A 
ATOM     26  C   UNL     1       2.362   4.618  19.878  0.00  0.00    +0.000 A 
ATOM     27  C   UNL     1       2.954   3.351  19.815  0.00  0.00    +0.000 A 
ATOM     28  C   UNL     1       4.326   3.240  19.527  0.00  0.00    +0.000 A 
BRANCH  23  30
ATOM     29  C   UNL     1       6.989   5.779  18.795  0.00  0.00    +0.000 C 
ATOM     30  O   UNL     1       6.414   4.489  18.937  0.00  0.00    +0.000 OA
ENDBRANCH  23  30
BRANCH  27  31
ATOM     31  O   UNL     1       2.054   2.324  19.940  0.00  0.00    +0.000 OA
ATOM     32  C   UNL     1       0.846   2.384  19.192  0.00  0.00    +0.000 C 
ENDBRANCH  27  31
BRANCH  28  33
ATOM     33  O   UNL     1       4.909   2.007  19.423  0.00  0.00    +0.000 OA
ATOM     34  H   UNL     1       5.297   1.972  18.535  0.00  0.00    +0.000 HD
ENDBRANCH  28  33
ENDBRANCH  22  25
ENDBRANCH  20  22
ENDBRANCH  19  20
ENDBRANCH   1  19
TORSDOF 8
ENDMDL
MODEL 5
REMARK VINA RESULT:      -8.3      3.410     10.259
REMARK  Name = 
REMARK  12 active torsions:
REMARK  status: ('A' for Active; 'I' for Inactive)
REMARK    1  A    between atoms: C_1  and  O_2
REMARK    2  A    between atoms: O_2  and  C_3
REMARK    3  A    between atoms: C_5  and  C_6
REMARK    4  A    between atoms: C_6  and  N_7
REMARK    5  A    between atoms: N_7  and  C_8
REMARK    6  A    between atoms: C_8  and  C_9
REMARK    7  A    between atoms: C_9  and  C_10
REMARK    8  A    between atoms: C_9  and  C_11
REMARK    9  A    between atoms: C_19  and  C_20
REMARK   10  A    between atoms: C_28  and  O_29
REMARK   11  A    between atoms: O_29  and  C_30
REMARK   12  A    between atoms: C_31  and  O_32
REMARK                            x       y       z     vdW  Elec       q    Type
REMARK                         _______ _______ _______ _____ _____    ______ ____
ROOT
ATOM      1  C   UNL     1       0.885   9.668  21.801  0.00  0.00    +0.000 C 
ATOM      2  C   UNL     1       0.267   9.418  23.189  0.00  0.00    +0.000 C 
ENDROOT
BRANCH   1   3
ATOM      3  C   UNL     1       0.379  10.977  21.112  0.00  0.00    +0.000 C 
ATOM      4  C   UNL     1      -0.219  10.734  19.708  0.00  0.00    +0.000 C 
ATOM      5  C   UNL     1      -0.780  12.014  19.089  0.00  0.00    +0.000 C 
ATOM      6  C   UNL     1      -1.816  12.529  20.034  0.00  0.00    +0.000 C 
ATOM      7  C   UNL     1      -3.132  12.446  19.776  0.00  0.00    +0.000 C 
ATOM      8  C   UNL     1      -4.059  12.652  20.853  0.00  0.00    +0.000 A 
ATOM      9  C   UNL     1      -3.617  13.100  22.042  0.00  0.00    +0.000 A 
ATOM     10  C   UNL     1      -4.509  13.230  23.159  0.00  0.00    +0.000 A 
ATOM     11  C   UNL     1      -5.785  12.838  23.033  0.00  0.00    +0.000 A 
ATOM     12  C   UNL     1      -6.799  12.850  24.125  0.00  0.00    +0.000 C 
ATOM     13  O   UNL     1      -6.283  12.354  21.801  0.00  0.00    +0.000 OA
ATOM     14  C   UNL     1      -5.486  12.263  20.693  0.00  0.00    +0.000 A 
ATOM     15  O   UNL     1      -5.925  11.853  19.623  0.00  0.00    +0.000 OA
ATOM     16  O   UNL     1      -2.306  13.414  22.317  0.00  0.00    +0.000 OA
ATOM     17  C   UNL     1      -1.296  12.944  21.389  0.00  0.00    +0.000 C 
ATOM     18  C   UNL     1      -0.574  11.760  22.047  0.00  0.00    +0.000 C 
ENDBRANCH   1   3
BRANCH   1  19
ATOM     19  C   UNL     1       0.694   8.402  20.933  0.00  0.00    +0.000 C 
BRANCH  19  20
ATOM     20  N   UNL     1       1.831   7.482  20.934  0.00  0.00    +0.000 NA
ATOM     21  H   UNL     1       2.589   7.882  21.488  0.00  0.00    +0.000 HD
BRANCH  20  22
ATOM     22  C   UNL     1       2.341   7.190  19.595  0.00  0.00    +0.000 C 
BRANCH  22  25
ATOM     23  C   UNL     1       2.903   3.407  19.623  0.00  0.00    +0.000 A 
ATOM     24  C   UNL     1       2.296   4.668  19.697  0.00  0.00    +0.000 A 
ATOM     25  C   UNL     1       3.035   5.850  19.557  0.00  0.00    +0.000 A 
ATOM     26  C   UNL     1       4.416   5.751  19.359  0.00  0.00    +0.000 A 
ATOM     27  C   UNL     1       5.050   4.505  19.279  0.00  0.00    +0.000 A 
ATOM     28  C   UNL     1       4.287   3.330  19.403  0.00  0.00    +0.000 A 
BRANCH  23  30
ATOM     29  C   UNL     1       1.016   2.147  18.839  0.00  0.00    +0.000 C 
ATOM     30  O   UNL     1       2.005   2.392  19.827  0.00  0.00    +0.000 OA
ENDBRANCH  23  30
BRANCH  27  31
ATOM     31  O   UNL     1       6.415   4.594  19.196  0.00  0.00    +0.000 OA
ATOM     32  C   UNL     1       7.007   4.807  17.920  0.00  0.00    +0.000 C 
ENDBRANCH  27  31
BRANCH  28  33
ATOM     33  O   UNL     1       4.898   2.107  19.366  0.00  0.00    +0.000 OA
ATOM     34  H   UNL     1       5.307   1.989  20.238  0.00  0.00    +0.000 HD
ENDBRANCH  28  33
ENDBRANCH  22  25
ENDBRANCH  20  22
ENDBRANCH  19  20
ENDBRANCH   1  19
TORSDOF 8
ENDMDL
MODEL 6
REMARK VINA RESULT:      -8.2      3.650      9.744
REMARK  Name = 
REMARK  12 active torsions:
REMARK  status: ('A' for Active; 'I' for Inactive)
REMARK    1  A    between atoms: C_1  and  O_2
REMARK    2  A    between atoms: O_2  and  C_3
REMARK    3  A    between atoms: C_5  and  C_6
REMARK    4  A    between atoms: C_6  and  N_7
REMARK    5  A    between atoms: N_7  and  C_8
REMARK    6  A    between atoms: C_8  and  C_9
REMARK    7  A    between atoms: C_9  and  C_10
REMARK    8  A    between atoms: C_9  and  C_11
REMARK    9  A    between atoms: C_19  and  C_20
REMARK   10  A    between atoms: C_28  and  O_29
REMARK   11  A    between atoms: O_29  and  C_30
REMARK   12  A    between atoms: C_31  and  O_32
REMARK                            x       y       z     vdW  Elec       q    Type
REMARK                         _______ _______ _______ _____ _____    ______ ____
ROOT
ATOM      1  C   UNL     1       0.508   9.668  21.844  0.00  0.00    +0.000 C 
ATOM      2  C   UNL     1      -0.277   9.675  23.167  0.00  0.00    +0.000 C 
ENDROOT
BRANCH   1   3
ATOM      3  C   UNL     1       0.101  10.815  20.862  0.00  0.00    +0.000 C 
ATOM      4  C   UNL     1      -0.164  10.319  19.422  0.00  0.00    +0.000 C 
ATOM      5  C   UNL     1      -0.640  11.443  18.502  0.00  0.00    +0.000 C 
ATOM      6  C   UNL     1      -1.881  12.005  19.116  0.00  0.00    +0.000 C 
ATOM      7  C   UNL     1      -3.103  11.776  18.608  0.00  0.00    +0.000 C 
ATOM      8  C   UNL     1      -4.251  12.062  19.422  0.00  0.00    +0.000 A 
ATOM      9  C   UNL     1      -4.101  12.715  20.588  0.00  0.00    +0.000 A 
ATOM     10  C   UNL     1      -5.220  12.934  21.460  0.00  0.00    +0.000 A 
ATOM     11  C   UNL     1      -6.416  12.424  21.137  0.00  0.00    +0.000 A 
ATOM     12  C   UNL     1      -7.644  12.513  21.979  0.00  0.00    +0.000 C 
ATOM     13  O   UNL     1      -6.611  11.724  19.924  0.00  0.00    +0.000 OA
ATOM     14  C   UNL     1      -5.588  11.537  19.035  0.00  0.00    +0.000 A 
ATOM     15  O   UNL     1      -5.763  10.939  17.977  0.00  0.00    +0.000 OA
ATOM     16  O   UNL     1      -2.898  13.173  21.075  0.00  0.00    +0.000 OA
ATOM     17  C   UNL     1      -1.689  12.656  20.465  0.00  0.00    +0.000 C 
ATOM     18  C   UNL     1      -1.070  11.646  21.441  0.00  0.00    +0.000 C 
ENDBRANCH   1   3
BRANCH   1  19
ATOM     19  C   UNL     1       0.417   8.257  21.214  0.00  0.00    +0.000 C 
BRANCH  19  20
ATOM     20  N   UNL     1       1.701   7.579  21.042  0.00  0.00    +0.000 NA
ATOM     21  H   UNL     1       2.403   8.031  21.629  0.00  0.00    +0.000 HD
BRANCH  20  22
ATOM     22  C   UNL     1       2.178   7.585  19.661  0.00  0.00    +0.000 C 
BRANCH  22  25
ATOM     23  C   UNL     1       3.991   4.860  17.681  0.00  0.00    +0.000 A 
ATOM     24  C   UNL     1       3.403   6.079  18.047  0.00  0.00    +0.000 A 
ATOM     25  C   UNL     1       2.758   6.243  19.280  0.00  0.00    +0.000 A 
ATOM     26  C   UNL     1       2.690   5.148  20.147  0.00  0.00    +0.000 A 
ATOM     27  C   UNL     1       3.269   3.919  19.810  0.00  0.00    +0.000 A 
ATOM     28  C   UNL     1       3.929   3.779  18.576  0.00  0.00    +0.000 A 
BRANCH  23  30
ATOM     29  C   UNL     1       5.475   5.920  16.122  0.00  0.00    +0.000 C 
ATOM     30  O   UNL     1       4.529   4.906  16.423  0.00  0.00    +0.000 OA
ENDBRANCH  23  30
BRANCH  27  31
ATOM     31  O   UNL     1       3.012   2.929  20.722  0.00  0.00    +0.000 OA
ATOM     32  C   UNL     1       1.934   3.106  21.633  0.00  0.00    +0.000 C 
ENDBRANCH  27  31
BRANCH  28  33
ATOM     33  O   UNL     1       4.465   2.573  18.216  0.00  0.00    +0.000 OA
ATOM     34  H   UNL     1       4.540   2.062  19.037  0.00  0.00    +0.000 HD
ENDBRANCH  28  33
ENDBRANCH  22  25
ENDBRANCH  20  22
ENDBRANCH  19  20
ENDBRANCH   1  19
TORSDOF 8
ENDMDL
MODEL 7
REMARK VINA RESULT:      -8.1      1.704      7.375
REMARK  Name = 
REMARK  12 active torsions:
REMARK  status: ('A' for Active; 'I' for Inactive)
REMARK    1  A    between atoms: C_1  and  O_2
REMARK    2  A    between atoms: O_2  and  C_3
REMARK    3  A    between atoms: C_5  and  C_6
REMARK    4  A    between atoms: C_6  and  N_7
REMARK    5  A    between atoms: N_7  and  C_8
REMARK    6  A    between atoms: C_8  and  C_9
REMARK    7  A    between atoms: C_9  and  C_10
REMARK    8  A    between atoms: C_9  and  C_11
REMARK    9  A    between atoms: C_19  and  C_20
REMARK   10  A    between atoms: C_28  and  O_29
REMARK   11  A    between atoms: O_29  and  C_30
REMARK   12  A    between atoms: C_31  and  O_32
REMARK                            x       y       z     vdW  Elec       q    Type
REMARK                         _______ _______ _______ _____ _____    ______ ____
ROOT
ATOM      1  C   UNL     1       1.300   3.902  19.968  0.00  0.00    +0.000 C 
ATOM      2  C   UNL     1       0.465   3.363  18.792  0.00  0.00    +0.000 C 
ENDROOT
BRANCH   1   3
ATOM      3  C   UNL     1       2.111   5.194  19.626  0.00  0.00    +0.000 C 
ATOM      4  C   UNL     1       1.914   5.669  18.169  0.00  0.00    +0.000 C 
ATOM      5  C   UNL     1       2.650   6.979  17.883  0.00  0.00    +0.000 C 
ATOM      6  C   UNL     1       2.127   7.986  18.854  0.00  0.00    +0.000 C 
ATOM      7  C   UNL     1       1.298   8.978  18.488  0.00  0.00    +0.000 C 
ATOM      8  C   UNL     1       0.585   9.692  19.509  0.00  0.00    +0.000 A 
ATOM      9  C   UNL     1       0.888   9.491  20.804  0.00  0.00    +0.000 A 
ATOM     10  C   UNL     1       0.132  10.126  21.845  0.00  0.00    +0.000 A 
ATOM     11  C   UNL     1      -0.931  10.877  21.524  0.00  0.00    +0.000 A 
ATOM     12  C   UNL     1      -1.845  11.535  22.501  0.00  0.00    +0.000 C 
ATOM     13  O   UNL     1      -1.286  11.103  20.174  0.00  0.00    +0.000 OA
ATOM     14  C   UNL     1      -0.563  10.565  19.145  0.00  0.00    +0.000 A 
ATOM     15  O   UNL     1      -0.867  10.774  17.974  0.00  0.00    +0.000 OA
ATOM     16  O   UNL     1       1.878   8.646  21.250  0.00  0.00    +0.000 OA
ATOM     17  C   UNL     1       2.413   7.685  20.306  0.00  0.00    +0.000 C 
ATOM     18  C   UNL     1       1.839   6.307  20.667  0.00  0.00    +0.000 C 
ENDBRANCH   1   3
BRANCH   1  19
ATOM     19  C   UNL     1       2.176   2.756  20.528  0.00  0.00    +0.000 C 
BRANCH  19  20
ATOM     20  N   UNL     1       3.582   2.809  20.130  0.00  0.00    +0.000 NA
ATOM     21  H   UNL     1       3.941   3.753  20.282  0.00  0.00    +0.000 HD
BRANCH  20  22
ATOM     22  C   UNL     1       3.801   2.450  18.730  0.00  0.00    +0.000 C 
BRANCH  22  25
ATOM     23  C   UNL     1       6.348   5.249  18.173  0.00  0.00    +0.000 A 
ATOM     24  C   UNL     1       5.494   4.321  18.787  0.00  0.00    +0.000 A 
ATOM     25  C   UNL     1       4.672   3.470  18.037  0.00  0.00    +0.000 A 
ATOM     26  C   UNL     1       4.702   3.574  16.642  0.00  0.00    +0.000 A 
ATOM     27  C   UNL     1       5.545   4.490  16.001  0.00  0.00    +0.000 A 
ATOM     28  C   UNL     1       6.377   5.323  16.771  0.00  0.00    +0.000 A 
BRANCH  23  30
ATOM     29  C   UNL     1       8.257   5.515  19.603  0.00  0.00    +0.000 C 
ATOM     30  O   UNL     1       7.029   6.005  19.090  0.00  0.00    +0.000 OA
ENDBRANCH  23  30
BRANCH  27  31
ATOM     31  O   UNL     1       5.365   4.536  14.644  0.00  0.00    +0.000 OA
ATOM     32  C   UNL     1       6.329   3.910  13.807  0.00  0.00    +0.000 C 
ENDBRANCH  27  31
BRANCH  28  33
ATOM     33  O   UNL     1       7.177   6.249  16.161  0.00  0.00    +0.000 OA
ATOM     34  H   UNL     1       7.148   7.037  16.726  0.00  0.00    +0.000 HD
ENDBRANCH  28  33
ENDBRANCH  22  25
ENDBRANCH  20  22
ENDBRANCH  19  20
ENDBRANCH   1  19
TORSDOF 8
ENDMDL
MODEL 8
REMARK VINA RESULT:      -8.1      1.017      2.286
REMARK  Name = 
REMARK  12 active torsions:
REMARK  status: ('A' for Active; 'I' for Inactive)
REMARK    1  A    between atoms: C_1  and  O_2
REMARK    2  A    between atoms: O_2  and  C_3
REMARK    3  A    between atoms: C_5  and  C_6
REMARK    4  A    between atoms: C_6  and  N_7
REMARK    5  A    between atoms: N_7  and  C_8
REMARK    6  A    between atoms: C_8  and  C_9
REMARK    7  A    between atoms: C_9  and  C_10
REMARK    8  A    between atoms: C_9  and  C_11
REMARK    9  A    between atoms: C_19  and  C_20
REMARK   10  A    between atoms: C_28  and  O_29
REMARK   11  A    between atoms: O_29  and  C_30
REMARK   12  A    between atoms: C_31  and  O_32
REMARK                            x       y       z     vdW  Elec       q    Type
REMARK                         _______ _______ _______ _____ _____    ______ ____
ROOT
ATOM      1  C   UNL     1       1.455   3.671  20.680  0.00  0.00    +0.000 C 
ATOM      2  C   UNL     1       1.285   2.797  21.935  0.00  0.00    +0.000 C 
ENDROOT
BRANCH   1   3
ATOM      3  C   UNL     1       2.418   3.060  19.611  0.00  0.00    +0.000 C 
ATOM      4  C   UNL     1       1.891   3.199  18.165  0.00  0.00    +0.000 C 
ATOM      5  C   UNL     1       2.886   2.670  17.132  0.00  0.00    +0.000 C 
ATOM      6  C   UNL     1       4.151   3.440  17.321  0.00  0.00    +0.000 C 
ATOM      7  C   UNL     1       4.556   4.386  16.457  0.00  0.00    +0.000 C 
ATOM      8  C   UNL     1       5.585   5.299  16.867  0.00  0.00    +0.000 A 
ATOM      9  C   UNL     1       6.251   5.087  18.016  0.00  0.00    +0.000 A 
ATOM     10  C   UNL     1       7.223   6.030  18.490  0.00  0.00    +0.000 A 
ATOM     11  C   UNL     1       7.420   7.170  17.813  0.00  0.00    +0.000 A 
ATOM     12  C   UNL     1       8.342   8.267  18.226  0.00  0.00    +0.000 C 
ATOM     13  O   UNL     1       6.732   7.432  16.606  0.00  0.00    +0.000 OA
ATOM     14  C   UNL     1       5.837   6.539  16.084  0.00  0.00    +0.000 A 
ATOM     15  O   UNL     1       5.250   6.765  15.029  0.00  0.00    +0.000 OA
ATOM     16  O   UNL     1       6.040   4.014  18.852  0.00  0.00    +0.000 OA
ATOM     17  C   UNL     1       4.828   3.242  18.656  0.00  0.00    +0.000 C 
ATOM     18  C   UNL     1       3.855   3.608  19.786  0.00  0.00    +0.000 C 
ENDBRANCH   1   3
BRANCH   1  19
ATOM     19  C   UNL     1       1.848   5.103  21.115  0.00  0.00    +0.000 C 
BRANCH  19  20
ATOM     20  N   UNL     1       0.877   6.138  20.760  0.00  0.00    +0.000 NA
ATOM     21  H   UNL     1       0.975   6.368  19.771  0.00  0.00    +0.000 HD
BRANCH  20  22
ATOM     22  C   UNL     1       1.032   7.367  21.538  0.00  0.00    +0.000 C 
BRANCH  22  25
ATOM     23  C   UNL     1       0.130  10.865  20.283  0.00  0.00    +0.000 A 
ATOM     24  C   UNL     1       0.198   9.701  21.061  0.00  0.00    +0.000 A 
ATOM     25  C   UNL     1       0.942   8.586  20.652  0.00  0.00    +0.000 A 
ATOM     26  C   UNL     1       1.611   8.646  19.426  0.00  0.00    +0.000 A 
ATOM     27  C   UNL     1       1.563   9.796  18.628  0.00  0.00    +0.000 A 
ATOM     28  C   UNL     1       0.826  10.912  19.065  0.00  0.00    +0.000 A 
BRANCH  23  30
ATOM     29  C   UNL     1      -0.760  11.891  22.262  0.00  0.00    +0.000 C 
ATOM     30  O   UNL     1      -0.682  11.814  20.848  0.00  0.00    +0.000 OA
ENDBRANCH  23  30
BRANCH  27  31
ATOM     31  O   UNL     1       2.179   9.641  17.414  0.00  0.00    +0.000 OA
ATOM     32  C   UNL     1       2.897   8.440  17.163  0.00  0.00    +0.000 C 
ENDBRANCH  27  31
BRANCH  28  33
ATOM     33  O   UNL     1       0.737  12.027  18.278  0.00  0.00    +0.000 OA
ATOM     34  H   UNL     1      -0.207  12.142  18.088  0.00  0.00    +0.000 HD
ENDBRANCH  28  33
ENDBRANCH  22  25
ENDBRANCH  20  22
ENDBRANCH  19  20
ENDBRANCH   1  19
TORSDOF 8
ENDMDL
MODEL 9
REMARK VINA RESULT:      -8.0      3.967     10.207
REMARK  Name = 
REMARK  12 active torsions:
REMARK  status: ('A' for Active; 'I' for Inactive)
REMARK    1  A    between atoms: C_1  and  O_2
REMARK    2  A    between atoms: O_2  and  C_3
REMARK    3  A    between atoms: C_5  and  C_6
REMARK    4  A    between atoms: C_6  and  N_7
REMARK    5  A    between atoms: N_7  and  C_8
REMARK    6  A    between atoms: C_8  and  C_9
REMARK    7  A    between atoms: C_9  and  C_10
REMARK    8  A    between atoms: C_9  and  C_11
REMARK    9  A    between atoms: C_19  and  C_20
REMARK   10  A    between atoms: C_28  and  O_29
REMARK   11  A    between atoms: O_29  and  C_30
REMARK   12  A    between atoms: C_31  and  O_32
REMARK                            x       y       z     vdW  Elec       q    Type
REMARK                         _______ _______ _______ _____ _____    ______ ____
ROOT
ATOM      1  C   UNL     1       0.226  10.093  21.604  0.00  0.00    +0.000 C 
ATOM      2  C   UNL     1      -0.550  10.176  22.931  0.00  0.00    +0.000 C 
ENDROOT
BRANCH   1   3
ATOM      3  C   UNL     1      -0.304  11.065  20.500  0.00  0.00    +0.000 C 
ATOM      4  C   UNL     1      -0.713  10.341  19.197  0.00  0.00    +0.000 C 
ATOM      5  C   UNL     1      -1.305  11.301  18.164  0.00  0.00    +0.000 C 
ATOM      6  C   UNL     1      -2.483  11.953  18.810  0.00  0.00    +0.000 C 
ATOM      7  C   UNL     1      -3.748  11.644  18.481  0.00  0.00    +0.000 C 
ATOM      8  C   UNL     1      -4.808  12.057  19.358  0.00  0.00    +0.000 A 
ATOM      9  C   UNL     1      -4.546  12.891  20.380  0.00  0.00    +0.000 A 
ATOM     10  C   UNL     1      -5.569  13.248  21.321  0.00  0.00    +0.000 A 
ATOM     11  C   UNL     1      -6.784  12.691  21.217  0.00  0.00    +0.000 A 
ATOM     12  C   UNL     1      -7.916  12.915  22.161  0.00  0.00    +0.000 C 
ATOM     13  O   UNL     1      -7.094  11.803  20.161  0.00  0.00    +0.000 OA
ATOM     14  C   UNL     1      -6.169  11.475  19.208  0.00  0.00    +0.000 A 
ATOM     15  O   UNL     1      -6.445  10.713  18.286  0.00  0.00    +0.000 OA
ATOM     16  O   UNL     1      -3.306  13.424  20.653  0.00  0.00    +0.000 OA
ATOM     17  C   UNL     1      -2.161  12.815  20.007  0.00  0.00    +0.000 C 
ATOM     18  C   UNL     1      -1.422  11.978  21.060  0.00  0.00    +0.000 C 
ENDBRANCH   1   3
BRANCH   1  19
ATOM     19  C   UNL     1       0.283   8.616  21.148  0.00  0.00    +0.000 C 
BRANCH  19  20
ATOM     20  N   UNL     1       1.633   8.074  20.995  0.00  0.00    +0.000 NA
ATOM     21  H   UNL     1       2.303   8.704  21.437  0.00  0.00    +0.000 HD
BRANCH  20  22
ATOM     22  C   UNL     1       2.026   7.885  19.599  0.00  0.00    +0.000 C 
BRANCH  22  25
ATOM     23  C   UNL     1       2.979   4.219  20.124  0.00  0.00    +0.000 A 
ATOM     24  C   UNL     1       2.439   5.499  20.310  0.00  0.00    +0.000 A 
ATOM     25  C   UNL     1       2.663   6.533  19.391  0.00  0.00    +0.000 A 
ATOM     26  C   UNL     1       3.465   6.270  18.276  0.00  0.00    +0.000 A 
ATOM     27  C   UNL     1       4.017   5.000  18.062  0.00  0.00    +0.000 A 
ATOM     28  C   UNL     1       3.764   3.971  18.986  0.00  0.00    +0.000 A 
BRANCH  23  30
ATOM     29  C   UNL     1       1.386   2.773  21.188  0.00  0.00    +0.000 C 
ATOM     30  O   UNL     1       2.671   3.375  21.158  0.00  0.00    +0.000 OA
ENDBRANCH  23  30
BRANCH  27  31
ATOM     31  O   UNL     1       4.863   4.950  16.986  0.00  0.00    +0.000 OA
ATOM     32  C   UNL     1       5.047   6.127  16.209  0.00  0.00    +0.000 C 
ENDBRANCH  27  31
BRANCH  28  33
ATOM     33  O   UNL     1       4.329   2.737  18.812  0.00  0.00    +0.000 OA
ATOM     34  H   UNL     1       4.456   2.376  19.703  0.00  0.00    +0.000 HD
ENDBRANCH  28  33
ENDBRANCH  22  25
ENDBRANCH  20  22
ENDBRANCH  19  20
ENDBRANCH   1  19
TORSDOF 8
ENDMDL
