MODEL 1
REMARK VINA RESULT:      -6.1      0.000      0.000
REMARK  Name = 
REMARK  1 active torsions:
REMARK  status: ('A' for Active; 'I' for Inactive)
REMARK    1  A    between atoms: C_5  and  C_7
REMARK                            x       y       z     vdW  Elec       q    Type
REMARK                         _______ _______ _______ _____ _____    ______ ____
ROOT
ATOM      1  N   UNL     1       5.766   2.583  11.962  0.00  0.00    +0.000 NA
ATOM      2  C   UNL     1       6.456   3.487  12.554  0.00  0.00    +0.000 C 
ATOM      3  N   UNL     1       7.340   4.280  11.915  0.00  0.00    +0.000 N 
ATOM      4  N   UNL     1       6.242   3.619  13.892  0.00  0.00    +0.000 N 
ATOM      5  C   UNL     1       6.809   4.544  14.751  0.00  0.00    +0.000 C 
ATOM      6  O   UNL     1       7.601   5.421  14.410  0.00  0.00    +0.000 OA
ATOM      7  H   UNL     1       6.038   2.561  10.976  0.00  0.00    +0.000 HD
ATOM      8  H   UNL     1       7.155   4.492  10.946  0.00  0.00    +0.000 HD
ATOM      9  H   UNL     1       7.644   5.090  12.458  0.00  0.00    +0.000 HD
ATOM     10  H   UNL     1       5.574   2.964  14.284  0.00  0.00    +0.000 HD
ENDROOT
BRANCH   5  11
ATOM     11  C   UNL     1       6.361   4.427  16.162  0.00  0.00    +0.000 A 
ATOM     12  C   UNL     1       7.265   4.633  17.194  0.00  0.00    +0.000 A 
ATOM     13  N   UNL     1       6.898   4.572  18.500  0.00  0.00    +0.000 NA
ATOM     14  C   UNL     1       5.592   4.299  18.722  0.00  0.00    +0.000 A 
ATOM     15  C   UNL     1       4.689   4.088  17.691  0.00  0.00    +0.000 A 
ATOM     16  N   UNL     1       5.045   4.144  16.384  0.00  0.00    +0.000 NA
ENDBRANCH   5  11
TORSDOF 1
ENDMDL
MODEL 2
REMARK VINA RESULT:      -6.0      3.971      5.185
REMARK  Name = 
REMARK  1 active torsions:
REMARK  status: ('A' for Active; 'I' for Inactive)
REMARK    1  A    between atoms: C_5  and  C_7
REMARK                            x       y       z     vdW  Elec       q    Type
REMARK                         _______ _______ _______ _____ _____    ______ ____
ROOT
ATOM      1  N   UNL     1       8.124   5.431  20.512  0.00  0.00    +0.000 NA
ATOM      2  C   UNL     1       7.481   5.673  19.430  0.00  0.00    +0.000 C 
ATOM      3  N   UNL     1       7.856   6.615  18.541  0.00  0.00    +0.000 N 
ATOM      4  N   UNL     1       6.377   4.909  19.209  0.00  0.00    +0.000 N 
ATOM      5  C   UNL     1       5.543   4.926  18.104  0.00  0.00    +0.000 C 
ATOM      6  O   UNL     1       5.699   5.650  17.123  0.00  0.00    +0.000 OA
ATOM      7  H   UNL     1       8.907   6.087  20.578  0.00  0.00    +0.000 HD
ATOM      8  H   UNL     1       8.843   6.818  18.471  0.00  0.00    +0.000 HD
ATOM      9  H   UNL     1       7.391   6.544  17.635  0.00  0.00    +0.000 HD
ATOM     10  H   UNL     1       6.165   4.243  19.945  0.00  0.00    +0.000 HD
ENDROOT
BRANCH   5  11
ATOM     11  C   UNL     1       4.420   3.958  18.167  0.00  0.00    +0.000 A 
ATOM     12  C   UNL     1       3.419   3.995  17.207  0.00  0.00    +0.000 A 
ATOM     13  N   UNL     1       2.389   3.110  17.199  0.00  0.00    +0.000 NA
ATOM     14  C   UNL     1       2.410   2.190  18.191  0.00  0.00    +0.000 A 
ATOM     15  C   UNL     1       3.407   2.155  19.154  0.00  0.00    +0.000 A 
ATOM     16  N   UNL     1       4.438   3.035  19.172  0.00  0.00    +0.000 NA
ENDBRANCH   5  11
TORSDOF 1
ENDMDL
MODEL 3
REMARK VINA RESULT:      -6.0      3.232      4.240
REMARK  Name = 
REMARK  1 active torsions:
REMARK  status: ('A' for Active; 'I' for Inactive)
REMARK    1  A    between atoms: C_5  and  C_7
REMARK                            x       y       z     vdW  Elec       q    Type
REMARK                         _______ _______ _______ _____ _____    ______ ____
ROOT
ATOM      1  N   UNL     1       8.239   4.108  17.665  0.00  0.00    +0.000 NA
ATOM      2  C   UNL     1       7.240   4.784  17.232  0.00  0.00    +0.000 C 
ATOM      3  N   UNL     1       7.369   5.931  16.536  0.00  0.00    +0.000 N 
ATOM      4  N   UNL     1       6.010   4.271  17.508  0.00  0.00    +0.000 N 
ATOM      5  C   UNL     1       4.779   4.768  17.114  0.00  0.00    +0.000 C 
ATOM      6  O   UNL     1       4.620   5.769  16.418  0.00  0.00    +0.000 OA
ATOM      7  H   UNL     1       9.099   4.609  17.424  0.00  0.00    +0.000 HD
ATOM      8  H   UNL     1       8.196   6.037  15.967  0.00  0.00    +0.000 HD
ATOM      9  H   UNL     1       6.513   6.235  16.069  0.00  0.00    +0.000 HD
ATOM     10  H   UNL     1       6.017   3.416  18.054  0.00  0.00    +0.000 HD
ENDROOT
BRANCH   5  11
ATOM     11  C   UNL     1       3.618   3.967  17.576  0.00  0.00    +0.000 A 
ATOM     12  C   UNL     1       3.786   2.629  17.905  0.00  0.00    +0.000 A 
ATOM     13  N   UNL     1       2.765   1.863  18.367  0.00  0.00    +0.000 NA
ATOM     14  C   UNL     1       1.575   2.495  18.485  0.00  0.00    +0.000 A 
ATOM     15  C   UNL     1       1.405   3.830  18.152  0.00  0.00    +0.000 A 
ATOM     16  N   UNL     1       2.416   4.604  17.688  0.00  0.00    +0.000 NA
ENDBRANCH   5  11
TORSDOF 1
ENDMDL
MODEL 4
REMARK VINA RESULT:      -6.0      0.839      1.414
REMARK  Name = 
REMARK  1 active torsions:
REMARK  status: ('A' for Active; 'I' for Inactive)
REMARK    1  A    between atoms: C_5  and  C_7
REMARK                            x       y       z     vdW  Elec       q    Type
REMARK                         _______ _______ _______ _____ _____    ______ ____
ROOT
ATOM      1  N   UNL     1       5.689   2.506  11.968  0.00  0.00    +0.000 NA
ATOM      2  C   UNL     1       6.419   3.439  12.457  0.00  0.00    +0.000 C 
ATOM      3  N   UNL     1       7.265   4.182  11.715  0.00  0.00    +0.000 N 
ATOM      4  N   UNL     1       6.291   3.657  13.794  0.00  0.00    +0.000 N 
ATOM      5  C   UNL     1       6.916   4.630  14.556  0.00  0.00    +0.000 C 
ATOM      6  O   UNL     1       7.689   5.475  14.111  0.00  0.00    +0.000 OA
ATOM      7  H   UNL     1       5.898   2.419  10.969  0.00  0.00    +0.000 HD
ATOM      8  H   UNL     1       7.021   4.335  10.747  0.00  0.00    +0.000 HD
ATOM      9  H   UNL     1       7.607   5.022  12.185  0.00  0.00    +0.000 HD
ATOM     10  H   UNL     1       5.645   3.035  14.268  0.00  0.00    +0.000 HD
ENDROOT
BRANCH   5  11
ATOM     11  C   UNL     1       6.556   4.606  15.996  0.00  0.00    +0.000 A 
ATOM     12  C   UNL     1       5.279   4.225  16.384  0.00  0.00    +0.000 A 
ATOM     13  N   UNL     1       4.911   4.152  17.689  0.00  0.00    +0.000 NA
ATOM     14  C   UNL     1       5.875   4.475  18.581  0.00  0.00    +0.000 A 
ATOM     15  C   UNL     1       7.149   4.861  18.194  0.00  0.00    +0.000 A 
ATOM     16  N   UNL     1       7.527   4.939  16.895  0.00  0.00    +0.000 NA
ENDBRANCH   5  11
TORSDOF 1
ENDMDL
MODEL 5
REMARK VINA RESULT:      -5.9      3.676      4.944
REMARK  Name = 
REMARK  1 active torsions:
REMARK  status: ('A' for Active; 'I' for Inactive)
REMARK    1  A    between atoms: C_5  and  C_7
REMARK                            x       y       z     vdW  Elec       q    Type
REMARK                         _______ _______ _______ _____ _____    ______ ____
ROOT
ATOM      1  N   UNL     1       8.056   4.201  17.024  0.00  0.00    +0.000 NA
ATOM      2  C   UNL     1       7.314   4.708  17.937  0.00  0.00    +0.000 C 
ATOM      3  N   UNL     1       7.662   5.797  18.652  0.00  0.00    +0.000 N 
ATOM      4  N   UNL     1       6.124   4.085  18.153  0.00  0.00    +0.000 N 
ATOM      5  C   UNL     1       5.122   4.455  19.035  0.00  0.00    +0.000 C 
ATOM      6  O   UNL     1       5.162   5.447  19.760  0.00  0.00    +0.000 OA
ATOM      7  H   UNL     1       8.928   4.735  16.980  0.00  0.00    +0.000 HD
ATOM      8  H   UNL     1       8.256   6.477  18.201  0.00  0.00    +0.000 HD
ATOM      9  H   UNL     1       6.892   6.216  19.177  0.00  0.00    +0.000 HD
ATOM     10  H   UNL     1       5.963   3.263  17.580  0.00  0.00    +0.000 HD
ENDROOT
BRANCH   5  11
ATOM     11  C   UNL     1       3.937   3.562  19.027  0.00  0.00    +0.000 A 
ATOM     12  C   UNL     1       3.122   3.485  20.148  0.00  0.00    +0.000 A 
ATOM     13  N   UNL     1       2.007   2.711  20.180  0.00  0.00    +0.000 NA
ATOM     14  C   UNL     1       1.748   2.023  19.045  0.00  0.00    +0.000 A 
ATOM     15  C   UNL     1       2.565   2.094  17.927  0.00  0.00    +0.000 A 
ATOM     16  N   UNL     1       3.681   2.862  17.885  0.00  0.00    +0.000 NA
ENDBRANCH   5  11
TORSDOF 1
ENDMDL
MODEL 6
REMARK VINA RESULT:      -5.9      3.815      4.748
REMARK  Name = 
REMARK  1 active torsions:
REMARK  status: ('A' for Active; 'I' for Inactive)
REMARK    1  A    between atoms: C_5  and  C_7
REMARK                            x       y       z     vdW  Elec       q    Type
REMARK                         _______ _______ _______ _____ _____    ______ ____
ROOT
ATOM      1  N   UNL     1       4.070   0.667  18.490  0.00  0.00    +0.000 NA
ATOM      2  C   UNL     1       3.582   1.792  18.120  0.00  0.00    +0.000 C 
ATOM      3  N   UNL     1       2.275   1.976  17.843  0.00  0.00    +0.000 N 
ATOM      4  N   UNL     1       4.465   2.823  18.026  0.00  0.00    +0.000 N 
ATOM      5  C   UNL     1       4.194   4.142  17.704  0.00  0.00    +0.000 C 
ATOM      6  O   UNL     1       3.072   4.587  17.468  0.00  0.00    +0.000 OA
ATOM      7  H   UNL     1       3.319  -0.029  18.491  0.00  0.00    +0.000 HD
ATOM      8  H   UNL     1       1.611   1.398  18.338  0.00  0.00    +0.000 HD
ATOM      9  H   UNL     1       1.994   2.956  17.782  0.00  0.00    +0.000 HD
ATOM     10  H   UNL     1       5.428   2.581  18.235  0.00  0.00    +0.000 HD
ENDROOT
BRANCH   5  11
ATOM     11  C   UNL     1       5.385   5.028  17.692  0.00  0.00    +0.000 A 
ATOM     12  C   UNL     1       5.360   6.211  16.967  0.00  0.00    +0.000 A 
ATOM     13  N   UNL     1       6.409   7.073  16.951  0.00  0.00    +0.000 NA
ATOM     14  C   UNL     1       7.477   6.697  17.691  0.00  0.00    +0.000 A 
ATOM     15  C   UNL     1       7.505   5.513  18.411  0.00  0.00    +0.000 A 
ATOM     16  N   UNL     1       6.464   4.645  18.432  0.00  0.00    +0.000 NA
ENDBRANCH   5  11
TORSDOF 1
ENDMDL
MODEL 7
REMARK VINA RESULT:      -5.9      2.928      4.443
REMARK  Name = 
REMARK  1 active torsions:
REMARK  status: ('A' for Active; 'I' for Inactive)
REMARK    1  A    between atoms: C_5  and  C_7
REMARK                            x       y       z     vdW  Elec       q    Type
REMARK                         _______ _______ _______ _____ _____    ______ ____
ROOT
ATOM      1  N   UNL     1       6.751   4.313  15.220  0.00  0.00    +0.000 NA
ATOM      2  C   UNL     1       6.658   4.231  16.495  0.00  0.00    +0.000 C 
ATOM      3  N   UNL     1       7.695   4.448  17.328  0.00  0.00    +0.000 N 
ATOM      4  N   UNL     1       5.428   3.914  16.984  0.00  0.00    +0.000 N 
ATOM      5  C   UNL     1       5.044   3.817  18.311  0.00  0.00    +0.000 C 
ATOM      6  O   UNL     1       5.785   4.027  19.269  0.00  0.00    +0.000 OA
ATOM      7  H   UNL     1       7.723   4.522  14.978  0.00  0.00    +0.000 HD
ATOM      8  H   UNL     1       8.406   5.096  17.023  0.00  0.00    +0.000 HD
ATOM      9  H   UNL     1       7.428   4.569  18.307  0.00  0.00    +0.000 HD
ATOM     10  H   UNL     1       4.718   3.750  16.278  0.00  0.00    +0.000 HD
ENDROOT
BRANCH   5  11
ATOM     11  C   UNL     1       3.618   3.456  18.512  0.00  0.00    +0.000 A 
ATOM     12  C   UNL     1       2.670   3.833  17.572  0.00  0.00    +0.000 A 
ATOM     13  N   UNL     1       1.359   3.498  17.691  0.00  0.00    +0.000 NA
ATOM     14  C   UNL     1       1.045   2.771  18.787  0.00  0.00    +0.000 A 
ATOM     15  C   UNL     1       1.992   2.399  19.730  0.00  0.00    +0.000 A 
ATOM     16  N   UNL     1       3.301   2.730  19.622  0.00  0.00    +0.000 NA
ENDBRANCH   5  11
TORSDOF 1
ENDMDL
MODEL 8
REMARK VINA RESULT:      -5.8      3.922      5.087
REMARK  Name = 
REMARK  1 active torsions:
REMARK  status: ('A' for Active; 'I' for Inactive)
REMARK    1  A    between atoms: C_5  and  C_7
REMARK                            x       y       z     vdW  Elec       q    Type
REMARK                         _______ _______ _______ _____ _____    ______ ____
ROOT
ATOM      1  N   UNL     1       8.182   4.085  17.541  0.00  0.00    +0.000 NA
ATOM      2  C   UNL     1       7.311   4.707  18.246  0.00  0.00    +0.000 C 
ATOM      3  N   UNL     1       7.567   5.867  18.883  0.00  0.00    +0.000 N 
ATOM      4  N   UNL     1       6.080   4.131  18.317  0.00  0.00    +0.000 N 
ATOM      5  C   UNL     1       4.954   4.617  18.960  0.00  0.00    +0.000 C 
ATOM      6  O   UNL     1       4.902   5.687  19.564  0.00  0.00    +0.000 OA
ATOM      7  H   UNL     1       9.067   4.596  17.592  0.00  0.00    +0.000 HD
ATOM      8  H   UNL     1       8.255   6.480  18.470  0.00  0.00    +0.000 HD
ATOM      9  H   UNL     1       6.733   6.356  19.213  0.00  0.00    +0.000 HD
ATOM     10  H   UNL     1       5.992   3.250  17.822  0.00  0.00    +0.000 HD
ENDROOT
BRANCH   5  11
ATOM     11  C   UNL     1       3.757   3.747  18.844  0.00  0.00    +0.000 A 
ATOM     12  C   UNL     1       3.254   3.424  17.592  0.00  0.00    +0.000 A 
ATOM     13  N   UNL     1       2.185   2.604  17.430  0.00  0.00    +0.000 NA
ATOM     14  C   UNL     1       1.647   2.123  18.575  0.00  0.00    +0.000 A 
ATOM     15  C   UNL     1       2.145   2.449  19.827  0.00  0.00    +0.000 A 
ATOM     16  N   UNL     1       3.210   3.269  19.999  0.00  0.00    +0.000 NA
ENDBRANCH   5  11
TORSDOF 1
ENDMDL
MODEL 9
REMARK VINA RESULT:      -5.8      1.488      4.982
REMARK  Name = 
REMARK  1 active torsions:
REMARK  status: ('A' for Active; 'I' for Inactive)
REMARK    1  A    between atoms: C_5  and  C_7
REMARK                            x       y       z     vdW  Elec       q    Type
REMARK                         _______ _______ _______ _____ _____    ______ ____
ROOT
ATOM      1  N   UNL     1       5.632   3.544  19.002  0.00  0.00    +0.000 NA
ATOM      2  C   UNL     1       6.207   4.526  18.414  0.00  0.00    +0.000 C 
ATOM      3  N   UNL     1       6.652   5.620  19.064  0.00  0.00    +0.000 N 
ATOM      4  N   UNL     1       6.359   4.408  17.067  0.00  0.00    +0.000 N 
ATOM      5  C   UNL     1       6.989   5.290  16.205  0.00  0.00    +0.000 C 
ATOM      6  O   UNL     1       7.534   6.336  16.553  0.00  0.00    +0.000 OA
ATOM      7  H   UNL     1       5.549   3.765  19.998  0.00  0.00    +0.000 HD
ATOM      8  H   UNL     1       6.951   5.500  20.021  0.00  0.00    +0.000 HD
ATOM      9  H   UNL     1       7.280   6.208  18.513  0.00  0.00    +0.000 HD
ATOM     10  H   UNL     1       5.974   3.558  16.667  0.00  0.00    +0.000 HD
ENDROOT
BRANCH   5  11
ATOM     11  C   UNL     1       6.990   4.864  14.783  0.00  0.00    +0.000 A 
ATOM     12  C   UNL     1       6.123   3.867  14.359  0.00  0.00    +0.000 A 
ATOM     13  N   UNL     1       6.059   3.466  13.064  0.00  0.00    +0.000 NA
ATOM     14  C   UNL     1       6.898   4.107  12.218  0.00  0.00    +0.000 A 
ATOM     15  C   UNL     1       7.768   5.100  12.642  0.00  0.00    +0.000 A 
ATOM     16  N   UNL     1       7.841   5.506  13.933  0.00  0.00    +0.000 NA
ENDBRANCH   5  11
TORSDOF 1
ENDMDL
