MODEL 1
REMARK VINA RESULT:      -7.5      0.000      0.000
REMARK  Name = 
REMARK  6 active torsions:
REMARK  status: ('A' for Active; 'I' for Inactive)
REMARK    1  A    between atoms: C_1  and  N_2
REMARK    2  A    between atoms: N_2  and  C_3
REMARK    3  A    between atoms: N_2  and  C_7
REMARK    4  A    between atoms: C_3  and  C_4
REMARK    5  A    between atoms: C_7  and  C_8
REMARK    6  A    between atoms: C_13  and  C_14
REMARK                            x       y       z     vdW  Elec       q    Type
REMARK                         _______ _______ _______ _____ _____    ______ ____
ROOT
ATOM      1  C   UNL     1       3.019   5.958  18.738  0.00  0.00    +0.000 C 
ATOM      2  O   UNL     1       2.252   6.904  18.534  0.00  0.00    +0.000 OA
ATOM      3  N   UNL     1       4.205   5.796  18.037  0.00  0.00    +0.000 N 
ATOM      4  C   UNL     1       4.665   6.863  17.158  0.00  0.00    +0.000 C 
ATOM      5  C   UNL     1       5.296   6.319  15.925  0.00  0.00    +0.000 C 
ATOM      6  C   UNL     1       5.515   5.011  15.663  0.00  0.00    +0.000 C 
ATOM      7  C   UNL     1       5.113   3.968  16.673  0.00  0.00    +0.000 C 
ATOM      8  C   UNL     1       5.011   4.577  18.073  0.00  0.00    +0.000 C 
ENDROOT
BRANCH   6   9
ATOM      9  C   UNL     1       6.073   4.600  14.361  0.00  0.00    +0.000 A 
ATOM     10  C   UNL     1       7.264   5.171  13.874  0.00  0.00    +0.000 A 
ATOM     11  C   UNL     1       7.746   4.868  12.601  0.00  0.00    +0.000 A 
ATOM     12  C   UNL     1       7.064   3.962  11.802  0.00  0.00    +0.000 A 
ATOM     13  C   UNL     1       5.908   3.357  12.296  0.00  0.00    +0.000 A 
ATOM     14  C   UNL     1       5.413   3.667  13.559  0.00  0.00    +0.000 A 
ENDBRANCH   6   9
BRANCH   1  15
ATOM     15  C   UNL     1       2.674   4.910  19.819  0.00  0.00    +0.000 C 
BRANCH  15  17
ATOM     16  C   UNL     1       1.439   4.069  17.931  0.00  0.00    +0.000 C 
ATOM     17  N   UNL     1       1.563   3.988  19.394  0.00  0.00    +0.000 NA
BRANCH  17  18
ATOM     18  C   UNL     1       1.890   2.595  19.820  0.00  0.00    +0.000 C 
BRANCH  18  19
ATOM     19  C   UNL     1       2.283   2.467  21.305  0.00  0.00    +0.000 C 
ATOM     20  N   UNL     1       1.294   2.645  22.226  0.00  0.00    +0.000 N 
ATOM     21  O   UNL     1       3.441   2.276  21.672  0.00  0.00    +0.000 OA
ATOM     22  H   UNL     1       0.350   2.865  21.936  0.00  0.00    +0.000 HD
ATOM     23  H   UNL     1       1.519   2.553  23.207  0.00  0.00    +0.000 HD
ENDBRANCH  18  19
ENDBRANCH  17  18
ENDBRANCH  15  17
ENDBRANCH   1  15
TORSDOF 5
ENDMDL
MODEL 2
REMARK VINA RESULT:      -7.4      1.399      2.142
REMARK  Name = 
REMARK  6 active torsions:
REMARK  status: ('A' for Active; 'I' for Inactive)
REMARK    1  A    between atoms: C_1  and  N_2
REMARK    2  A    between atoms: N_2  and  C_3
REMARK    3  A    between atoms: N_2  and  C_7
REMARK    4  A    between atoms: C_3  and  C_4
REMARK    5  A    between atoms: C_7  and  C_8
REMARK    6  A    between atoms: C_13  and  C_14
REMARK                            x       y       z     vdW  Elec       q    Type
REMARK                         _______ _______ _______ _____ _____    ______ ____
ROOT
ATOM      1  C   UNL     1       3.439   5.968  19.027  0.00  0.00    +0.000 C 
ATOM      2  O   UNL     1       2.488   6.741  18.874  0.00  0.00    +0.000 OA
ATOM      3  N   UNL     1       4.523   5.941  18.162  0.00  0.00    +0.000 N 
ATOM      4  C   UNL     1       4.649   6.975  17.142  0.00  0.00    +0.000 C 
ATOM      5  C   UNL     1       5.190   6.422  15.871  0.00  0.00    +0.000 C 
ATOM      6  C   UNL     1       5.610   5.152  15.680  0.00  0.00    +0.000 C 
ATOM      7  C   UNL     1       5.556   4.166  16.818  0.00  0.00    +0.000 C 
ATOM      8  C   UNL     1       5.539   4.891  18.166  0.00  0.00    +0.000 C 
ENDROOT
BRANCH   6   9
ATOM      9  C   UNL     1       6.047   4.710  14.342  0.00  0.00    +0.000 A 
ATOM     10  C   UNL     1       5.284   3.789  13.601  0.00  0.00    +0.000 A 
ATOM     11  C   UNL     1       5.737   3.286  12.382  0.00  0.00    +0.000 A 
ATOM     12  C   UNL     1       6.949   3.720  11.864  0.00  0.00    +0.000 A 
ATOM     13  C   UNL     1       7.688   4.669  12.570  0.00  0.00    +0.000 A 
ATOM     14  C   UNL     1       7.249   5.162  13.794  0.00  0.00    +0.000 A 
ENDBRANCH   6   9
BRANCH   1  15
ATOM     15  C   UNL     1       3.450   4.994  20.226  0.00  0.00    +0.000 C 
BRANCH  15  17
ATOM     16  C   UNL     1       3.194   2.737  21.022  0.00  0.00    +0.000 C 
ATOM     17  N   UNL     1       3.058   3.595  19.836  0.00  0.00    +0.000 NA
BRANCH  17  18
ATOM     18  C   UNL     1       1.648   3.599  19.345  0.00  0.00    +0.000 C 
BRANCH  18  19
ATOM     19  C   UNL     1       1.283   2.385  18.469  0.00  0.00    +0.000 C 
ATOM     20  N   UNL     1       2.287   1.823  17.738  0.00  0.00    +0.000 N 
ATOM     21  O   UNL     1       0.133   1.960  18.367  0.00  0.00    +0.000 OA
ATOM     22  H   UNL     1       3.223   2.204  17.767  0.00  0.00    +0.000 HD
ATOM     23  H   UNL     1       2.080   1.016  17.165  0.00  0.00    +0.000 HD
ENDBRANCH  18  19
ENDBRANCH  17  18
ENDBRANCH  15  17
ENDBRANCH   1  15
TORSDOF 5
ENDMDL
MODEL 3
REMARK VINA RESULT:      -7.4      1.023      1.233
REMARK  Name = 
REMARK  6 active torsions:
REMARK  status: ('A' for Active; 'I' for Inactive)
REMARK    1  A    between atoms: C_1  and  N_2
REMARK    2  A    between atoms: N_2  and  C_3
REMARK    3  A    between atoms: N_2  and  C_7
REMARK    4  A    between atoms: C_3  and  C_4
REMARK    5  A    between atoms: C_7  and  C_8
REMARK    6  A    between atoms: C_13  and  C_14
REMARK                            x       y       z     vdW  Elec       q    Type
REMARK                         _______ _______ _______ _____ _____    ______ ____
ROOT
ATOM      1  C   UNL     1       3.222   5.853  18.807  0.00  0.00    +0.000 C 
ATOM      2  O   UNL     1       2.321   6.672  18.604  0.00  0.00    +0.000 OA
ATOM      3  N   UNL     1       4.377   5.812  18.040  0.00  0.00    +0.000 N 
ATOM      4  C   UNL     1       4.633   6.876  17.078  0.00  0.00    +0.000 C 
ATOM      5  C   UNL     1       5.262   6.348  15.837  0.00  0.00    +0.000 C 
ATOM      6  C   UNL     1       5.646   5.070  15.631  0.00  0.00    +0.000 C 
ATOM      7  C   UNL     1       5.453   4.045  16.718  0.00  0.00    +0.000 C 
ATOM      8  C   UNL     1       5.346   4.719  18.088  0.00  0.00    +0.000 C 
ENDROOT
BRANCH   6   9
ATOM      9  C   UNL     1       6.182   4.660  14.318  0.00  0.00    +0.000 A 
ATOM     10  C   UNL     1       7.333   5.270  13.786  0.00  0.00    +0.000 A 
ATOM     11  C   UNL     1       7.788   4.965  12.504  0.00  0.00    +0.000 A 
ATOM     12  C   UNL     1       7.119   4.019  11.740  0.00  0.00    +0.000 A 
ATOM     13  C   UNL     1       6.004   3.377  12.279  0.00  0.00    +0.000 A 
ATOM     14  C   UNL     1       5.536   3.688  13.551  0.00  0.00    +0.000 A 
ENDBRANCH   6   9
BRANCH   1  15
ATOM     15  C   UNL     1       3.089   4.835  19.962  0.00  0.00    +0.000 C 
BRANCH  15  17
ATOM     16  C   UNL     1       1.719   3.786  18.284  0.00  0.00    +0.000 C 
ATOM     17  N   UNL     1       1.984   3.841  19.729  0.00  0.00    +0.000 NA
BRANCH  17  18
ATOM     18  C   UNL     1       2.411   2.504  20.238  0.00  0.00    +0.000 C 
BRANCH  18  19
ATOM     19  C   UNL     1       3.791   2.046  19.727  0.00  0.00    +0.000 C 
ATOM     20  N   UNL     1       3.821   1.377  18.540  0.00  0.00    +0.000 N 
ATOM     21  O   UNL     1       4.826   2.210  20.370  0.00  0.00    +0.000 OA
ATOM     22  H   UNL     1       2.967   1.182  18.034  0.00  0.00    +0.000 HD
ATOM     23  H   UNL     1       4.714   1.077  18.172  0.00  0.00    +0.000 HD
ENDBRANCH  18  19
ENDBRANCH  17  18
ENDBRANCH  15  17
ENDBRANCH   1  15
TORSDOF 5
ENDMDL
MODEL 4
REMARK VINA RESULT:      -7.4      1.364      1.676
REMARK  Name = 
REMARK  6 active torsions:
REMARK  status: ('A' for Active; 'I' for Inactive)
REMARK    1  A    between atoms: C_1  and  N_2
REMARK    2  A    between atoms: N_2  and  C_3
REMARK    3  A    between atoms: N_2  and  C_7
REMARK    4  A    between atoms: C_3  and  C_4
REMARK    5  A    between atoms: C_7  and  C_8
REMARK    6  A    between atoms: C_13  and  C_14
REMARK                            x       y       z     vdW  Elec       q    Type
REMARK                         _______ _______ _______ _____ _____    ______ ____
ROOT
ATOM      1  C   UNL     1       3.552   5.319  18.978  0.00  0.00    +0.000 C 
ATOM      2  O   UNL     1       2.471   5.897  18.829  0.00  0.00    +0.000 OA
ATOM      3  N   UNL     1       4.628   5.522  18.127  0.00  0.00    +0.000 N 
ATOM      4  C   UNL     1       4.560   6.582  17.130  0.00  0.00    +0.000 C 
ATOM      5  C   UNL     1       5.208   6.172  15.854  0.00  0.00    +0.000 C 
ATOM      6  C   UNL     1       5.867   5.012  15.643  0.00  0.00    +0.000 C 
ATOM      7  C   UNL     1       5.996   4.010  16.760  0.00  0.00    +0.000 C 
ATOM      8  C   UNL     1       5.829   4.688  18.122  0.00  0.00    +0.000 C 
ENDROOT
BRANCH   6   9
ATOM      9  C   UNL     1       6.393   4.692  14.302  0.00  0.00    +0.000 A 
ATOM     10  C   UNL     1       7.474   5.411  13.760  0.00  0.00    +0.000 A 
ATOM     11  C   UNL     1       7.912   5.189  12.456  0.00  0.00    +0.000 A 
ATOM     12  C   UNL     1       7.298   4.219  11.677  0.00  0.00    +0.000 A 
ATOM     13  C   UNL     1       6.254   3.471  12.223  0.00  0.00    +0.000 A 
ATOM     14  C   UNL     1       5.803   3.698  13.518  0.00  0.00    +0.000 A 
ENDBRANCH   6   9
BRANCH   1  15
ATOM     15  C   UNL     1       3.742   4.340  20.158  0.00  0.00    +0.000 C 
BRANCH  15  17
ATOM     16  C   UNL     1       4.570   2.080  20.176  0.00  0.00    +0.000 C 
ATOM     17  N   UNL     1       3.427   2.918  19.782  0.00  0.00    +0.000 NA
BRANCH  17  18
ATOM     18  C   UNL     1       2.186   2.486  20.491  0.00  0.00    +0.000 C 
BRANCH  18  19
ATOM     19  C   UNL     1       0.881   2.935  19.806  0.00  0.00    +0.000 C 
ATOM     20  N   UNL     1       0.310   4.087  20.256  0.00  0.00    +0.000 N 
ATOM     21  O   UNL     1       0.326   2.271  18.933  0.00  0.00    +0.000 OA
ATOM     22  H   UNL     1       0.726   4.608  21.017  0.00  0.00    +0.000 HD
ATOM     23  H   UNL     1      -0.540   4.415  19.816  0.00  0.00    +0.000 HD
ENDBRANCH  18  19
ENDBRANCH  17  18
ENDBRANCH  15  17
ENDBRANCH   1  15
TORSDOF 5
ENDMDL
MODEL 5
REMARK VINA RESULT:      -7.4      1.051      1.633
REMARK  Name = 
REMARK  6 active torsions:
REMARK  status: ('A' for Active; 'I' for Inactive)
REMARK    1  A    between atoms: C_1  and  N_2
REMARK    2  A    between atoms: N_2  and  C_3
REMARK    3  A    between atoms: N_2  and  C_7
REMARK    4  A    between atoms: C_3  and  C_4
REMARK    5  A    between atoms: C_7  and  C_8
REMARK    6  A    between atoms: C_13  and  C_14
REMARK                            x       y       z     vdW  Elec       q    Type
REMARK                         _______ _______ _______ _____ _____    ______ ____
ROOT
ATOM      1  C   UNL     1       3.377   5.878  18.853  0.00  0.00    +0.000 C 
ATOM      2  O   UNL     1       2.514   6.751  18.715  0.00  0.00    +0.000 OA
ATOM      3  N   UNL     1       4.491   5.796  18.030  0.00  0.00    +0.000 N 
ATOM      4  C   UNL     1       4.761   6.872  17.086  0.00  0.00    +0.000 C 
ATOM      5  C   UNL     1       5.301   6.346  15.802  0.00  0.00    +0.000 C 
ATOM      6  C   UNL     1       5.603   5.055  15.545  0.00  0.00    +0.000 C 
ATOM      7  C   UNL     1       5.403   4.012  16.613  0.00  0.00    +0.000 C 
ATOM      8  C   UNL     1       5.398   4.651  18.004  0.00  0.00    +0.000 C 
ENDROOT
BRANCH   6   9
ATOM      9  C   UNL     1       6.053   4.655  14.198  0.00  0.00    +0.000 A 
ATOM     10  C   UNL     1       5.317   3.728  13.436  0.00  0.00    +0.000 A 
ATOM     11  C   UNL     1       5.785   3.264  12.208  0.00  0.00    +0.000 A 
ATOM     12  C   UNL     1       6.984   3.743  11.700  0.00  0.00    +0.000 A 
ATOM     13  C   UNL     1       7.697   4.697  12.428  0.00  0.00    +0.000 A 
ATOM     14  C   UNL     1       7.243   5.152  13.661  0.00  0.00    +0.000 A 
ENDBRANCH   6   9
BRANCH   1  15
ATOM     15  C   UNL     1       3.241   4.837  19.986  0.00  0.00    +0.000 C 
BRANCH  15  17
ATOM     16  C   UNL     1       1.822   3.841  18.315  0.00  0.00    +0.000 C 
ATOM     17  N   UNL     1       2.098   3.885  19.759  0.00  0.00    +0.000 NA
BRANCH  17  18
ATOM     18  C   UNL     1       2.477   2.533  20.266  0.00  0.00    +0.000 C 
BRANCH  18  19
ATOM     19  C   UNL     1       3.836   2.024  19.747  0.00  0.00    +0.000 C 
ATOM     20  N   UNL     1       3.838   1.368  18.553  0.00  0.00    +0.000 N 
ATOM     21  O   UNL     1       4.877   2.138  20.391  0.00  0.00    +0.000 OA
ATOM     22  H   UNL     1       2.976   1.215  18.046  0.00  0.00    +0.000 HD
ATOM     23  H   UNL     1       4.717   1.035  18.181  0.00  0.00    +0.000 HD
ENDBRANCH  18  19
ENDBRANCH  17  18
ENDBRANCH  15  17
ENDBRANCH   1  15
TORSDOF 5
ENDMDL
MODEL 6
REMARK VINA RESULT:      -7.4      3.206      7.418
REMARK  Name = 
REMARK  6 active torsions:
REMARK  status: ('A' for Active; 'I' for Inactive)
REMARK    1  A    between atoms: C_1  and  N_2
REMARK    2  A    between atoms: N_2  and  C_3
REMARK    3  A    between atoms: N_2  and  C_7
REMARK    4  A    between atoms: C_3  and  C_4
REMARK    5  A    between atoms: C_7  and  C_8
REMARK    6  A    between atoms: C_13  and  C_14
REMARK                            x       y       z     vdW  Elec       q    Type
REMARK                         _______ _______ _______ _____ _____    ______ ____
ROOT
ATOM      1  C   UNL     1       6.761   5.423  15.595  0.00  0.00    +0.000 C 
ATOM      2  O   UNL     1       7.530   6.293  16.015  0.00  0.00    +0.000 OA
ATOM      3  N   UNL     1       5.460   5.292  16.060  0.00  0.00    +0.000 N 
ATOM      4  C   UNL     1       4.908   6.318  16.935  0.00  0.00    +0.000 C 
ATOM      5  C   UNL     1       4.035   5.725  17.984  0.00  0.00    +0.000 C 
ATOM      6  C   UNL     1       3.699   4.420  18.085  0.00  0.00    +0.000 C 
ATOM      7  C   UNL     1       4.218   3.433  17.073  0.00  0.00    +0.000 C 
ATOM      8  C   UNL     1       4.607   4.140  15.773  0.00  0.00    +0.000 C 
ENDROOT
BRANCH   6   9
ATOM      9  C   UNL     1       2.891   3.950  19.227  0.00  0.00    +0.000 A 
ATOM     10  C   UNL     1       3.459   3.143  20.230  0.00  0.00    +0.000 A 
ATOM     11  C   UNL     1       2.682   2.608  21.257  0.00  0.00    +0.000 A 
ATOM     12  C   UNL     1       1.327   2.897  21.320  0.00  0.00    +0.000 A 
ATOM     13  C   UNL     1       0.766   3.735  20.355  0.00  0.00    +0.000 A 
ATOM     14  C   UNL     1       1.532   4.259  19.319  0.00  0.00    +0.000 A 
ENDBRANCH   6   9
BRANCH   1  15
ATOM     15  C   UNL     1       7.237   4.440  14.503  0.00  0.00    +0.000 C 
BRANCH  15  17
ATOM     16  C   UNL     1       8.408   5.857  12.949  0.00  0.00    +0.000 C 
ATOM     17  N   UNL     1       7.195   5.044  13.126  0.00  0.00    +0.000 NA
BRANCH  17  18
ATOM     18  C   UNL     1       7.140   3.951  12.111  0.00  0.00    +0.000 C 
BRANCH  18  19
ATOM     19  C   UNL     1       5.833   3.135  12.134  0.00  0.00    +0.000 C 
ATOM     20  N   UNL     1       5.931   1.800  11.882  0.00  0.00    +0.000 N 
ATOM     21  O   UNL     1       4.731   3.651  12.309  0.00  0.00    +0.000 OA
ATOM     22  H   UNL     1       6.826   1.377  11.675  0.00  0.00    +0.000 HD
ATOM     23  H   UNL     1       5.091   1.236  11.905  0.00  0.00    +0.000 HD
ENDBRANCH  18  19
ENDBRANCH  17  18
ENDBRANCH  15  17
ENDBRANCH   1  15
TORSDOF 5
ENDMDL
MODEL 7
REMARK VINA RESULT:      -7.3      1.346      1.958
REMARK  Name = 
REMARK  6 active torsions:
REMARK  status: ('A' for Active; 'I' for Inactive)
REMARK    1  A    between atoms: C_1  and  N_2
REMARK    2  A    between atoms: N_2  and  C_3
REMARK    3  A    between atoms: N_2  and  C_7
REMARK    4  A    between atoms: C_3  and  C_4
REMARK    5  A    between atoms: C_7  and  C_8
REMARK    6  A    between atoms: C_13  and  C_14
REMARK                            x       y       z     vdW  Elec       q    Type
REMARK                         _______ _______ _______ _____ _____    ______ ____
ROOT
ATOM      1  C   UNL     1       3.575   5.369  19.040  0.00  0.00    +0.000 C 
ATOM      2  O   UNL     1       2.534   6.028  18.948  0.00  0.00    +0.000 OA
ATOM      3  N   UNL     1       4.630   5.517  18.152  0.00  0.00    +0.000 N 
ATOM      4  C   UNL     1       4.601   6.606  17.184  0.00  0.00    +0.000 C 
ATOM      5  C   UNL     1       5.170   6.185  15.875  0.00  0.00    +0.000 C 
ATOM      6  C   UNL     1       5.734   4.986  15.609  0.00  0.00    +0.000 C 
ATOM      7  C   UNL     1       5.831   3.948  16.696  0.00  0.00    +0.000 C 
ATOM      8  C   UNL     1       5.765   4.599  18.079  0.00  0.00    +0.000 C 
ENDROOT
BRANCH   6   9
ATOM      9  C   UNL     1       6.183   4.667  14.241  0.00  0.00    +0.000 A 
ATOM     10  C   UNL     1       5.498   3.718  13.459  0.00  0.00    +0.000 A 
ATOM     11  C   UNL     1       5.972   3.332  12.206  0.00  0.00    +0.000 A 
ATOM     12  C   UNL     1       7.125   3.912  11.695  0.00  0.00    +0.000 A 
ATOM     13  C   UNL     1       7.783   4.887  12.445  0.00  0.00    +0.000 A 
ATOM     14  C   UNL     1       7.325   5.265  13.702  0.00  0.00    +0.000 A 
ENDBRANCH   6   9
BRANCH   1  15
ATOM     15  C   UNL     1       3.737   4.348  20.187  0.00  0.00    +0.000 C 
BRANCH  15  17
ATOM     16  C   UNL     1       4.550   2.083  20.109  0.00  0.00    +0.000 C 
ATOM     17  N   UNL     1       3.410   2.943  19.758  0.00  0.00    +0.000 NA
BRANCH  17  18
ATOM     18  C   UNL     1       2.172   2.491  20.459  0.00  0.00    +0.000 C 
BRANCH  18  19
ATOM     19  C   UNL     1       0.865   2.991  19.814  0.00  0.00    +0.000 C 
ATOM     20  N   UNL     1       0.344   4.156  20.293  0.00  0.00    +0.000 N 
ATOM     21  O   UNL     1       0.265   2.356  18.949  0.00  0.00    +0.000 OA
ATOM     22  H   UNL     1       0.797   4.653  21.048  0.00  0.00    +0.000 HD
ATOM     23  H   UNL     1      -0.506   4.517  19.880  0.00  0.00    +0.000 HD
ENDBRANCH  18  19
ENDBRANCH  17  18
ENDBRANCH  15  17
ENDBRANCH   1  15
TORSDOF 5
ENDMDL
MODEL 8
REMARK VINA RESULT:      -7.3      0.211      1.069
REMARK  Name = 
REMARK  6 active torsions:
REMARK  status: ('A' for Active; 'I' for Inactive)
REMARK    1  A    between atoms: C_1  and  N_2
REMARK    2  A    between atoms: N_2  and  C_3
REMARK    3  A    between atoms: N_2  and  C_7
REMARK    4  A    between atoms: C_3  and  C_4
REMARK    5  A    between atoms: C_7  and  C_8
REMARK    6  A    between atoms: C_13  and  C_14
REMARK                            x       y       z     vdW  Elec       q    Type
REMARK                         _______ _______ _______ _____ _____    ______ ____
ROOT
ATOM      1  C   UNL     1       3.207   5.863  18.899  0.00  0.00    +0.000 C 
ATOM      2  O   UNL     1       2.545   6.902  18.809  0.00  0.00    +0.000 OA
ATOM      3  N   UNL     1       4.363   5.651  18.161  0.00  0.00    +0.000 N 
ATOM      4  C   UNL     1       4.928   6.749  17.388  0.00  0.00    +0.000 C 
ATOM      5  C   UNL     1       5.486   6.273  16.093  0.00  0.00    +0.000 C 
ATOM      6  C   UNL     1       5.561   4.984  15.694  0.00  0.00    +0.000 C 
ATOM      7  C   UNL     1       5.058   3.890  16.599  0.00  0.00    +0.000 C 
ATOM      8  C   UNL     1       5.033   4.356  18.056  0.00  0.00    +0.000 C 
ENDROOT
BRANCH   6   9
ATOM      9  C   UNL     1       6.061   4.655  14.346  0.00  0.00    +0.000 A 
ATOM     10  C   UNL     1       5.371   3.747  13.521  0.00  0.00    +0.000 A 
ATOM     11  C   UNL     1       5.887   3.349  12.289  0.00  0.00    +0.000 A 
ATOM     12  C   UNL     1       7.089   3.878  11.841  0.00  0.00    +0.000 A 
ATOM     13  C   UNL     1       7.756   4.814  12.632  0.00  0.00    +0.000 A 
ATOM     14  C   UNL     1       7.254   5.203  13.869  0.00  0.00    +0.000 A 
ENDBRANCH   6   9
BRANCH   1  15
ATOM     15  C   UNL     1       2.761   4.750  19.872  0.00  0.00    +0.000 C 
BRANCH  15  17
ATOM     16  C   UNL     1       1.467   4.080  17.956  0.00  0.00    +0.000 C 
ATOM     17  N   UNL     1       1.496   4.068  19.426  0.00  0.00    +0.000 NA
BRANCH  17  18
ATOM     18  C   UNL     1       1.484   2.668  19.944  0.00  0.00    +0.000 C 
BRANCH  18  19
ATOM     19  C   UNL     1       2.135   2.504  21.331  0.00  0.00    +0.000 C 
ATOM     20  N   UNL     1       1.321   2.633  22.417  0.00  0.00    +0.000 N 
ATOM     21  O   UNL     1       3.342   2.327  21.482  0.00  0.00    +0.000 OA
ATOM     22  H   UNL     1       0.338   2.841  22.304  0.00  0.00    +0.000 HD
ATOM     23  H   UNL     1       1.717   2.516  23.340  0.00  0.00    +0.000 HD
ENDBRANCH  18  19
ENDBRANCH  17  18
ENDBRANCH  15  17
ENDBRANCH   1  15
TORSDOF 5
ENDMDL
MODEL 9
REMARK VINA RESULT:      -7.2      1.479      2.009
REMARK  Name = 
REMARK  6 active torsions:
REMARK  status: ('A' for Active; 'I' for Inactive)
REMARK    1  A    between atoms: C_1  and  N_2
REMARK    2  A    between atoms: N_2  and  C_3
REMARK    3  A    between atoms: N_2  and  C_7
REMARK    4  A    between atoms: C_3  and  C_4
REMARK    5  A    between atoms: C_7  and  C_8
REMARK    6  A    between atoms: C_13  and  C_14
REMARK                            x       y       z     vdW  Elec       q    Type
REMARK                         _______ _______ _______ _____ _____    ______ ____
ROOT
ATOM      1  C   UNL     1       2.815   6.006  19.352  0.00  0.00    +0.000 C 
ATOM      2  O   UNL     1       1.819   6.686  19.087  0.00  0.00    +0.000 OA
ATOM      3  N   UNL     1       3.966   6.038  18.578  0.00  0.00    +0.000 N 
ATOM      4  C   UNL     1       4.088   7.034  17.522  0.00  0.00    +0.000 C 
ATOM      5  C   UNL     1       4.778   6.477  16.326  0.00  0.00    +0.000 C 
ATOM      6  C   UNL     1       5.316   5.242  16.232  0.00  0.00    +0.000 C 
ATOM      7  C   UNL     1       5.251   4.304  17.408  0.00  0.00    +0.000 C 
ATOM      8  C   UNL     1       5.062   5.081  18.714  0.00  0.00    +0.000 C 
ENDROOT
BRANCH   6   9
ATOM      9  C   UNL     1       5.898   4.784  14.955  0.00  0.00    +0.000 A 
ATOM     10  C   UNL     1       7.166   5.229  14.539  0.00  0.00    +0.000 A 
ATOM     11  C   UNL     1       7.682   4.886  13.290  0.00  0.00    +0.000 A 
ATOM     12  C   UNL     1       6.952   4.064  12.444  0.00  0.00    +0.000 A 
ATOM     13  C   UNL     1       5.713   3.581  12.869  0.00  0.00    +0.000 A 
ATOM     14  C   UNL     1       5.187   3.932  14.107  0.00  0.00    +0.000 A 
ENDBRANCH   6   9
BRANCH   1  15
ATOM     15  C   UNL     1       2.808   5.089  20.595  0.00  0.00    +0.000 C 
BRANCH  15  17
ATOM     16  C   UNL     1       2.345   2.897  21.477  0.00  0.00    +0.000 C 
ATOM     17  N   UNL     1       2.632   3.637  20.239  0.00  0.00    +0.000 NA
BRANCH  17  18
ATOM     18  C   UNL     1       1.504   3.503  19.270  0.00  0.00    +0.000 C 
BRANCH  18  19
ATOM     19  C   UNL     1       1.908   2.891  17.914  0.00  0.00    +0.000 C 
ATOM     20  N   UNL     1       2.308   1.588  17.917  0.00  0.00    +0.000 N 
ATOM     21  O   UNL     1       1.938   3.543  16.873  0.00  0.00    +0.000 OA
ATOM     22  H   UNL     1       2.346   1.060  18.779  0.00  0.00    +0.000 HD
ATOM     23  H   UNL     1       2.565   1.155  17.040  0.00  0.00    +0.000 HD
ENDBRANCH  18  19
ENDBRANCH  17  18
ENDBRANCH  15  17
ENDBRANCH   1  15
TORSDOF 5
ENDMDL
