MODEL 1
REMARK VINA RESULT:      -7.2      0.000      0.000
REMARK  Name = 
REMARK  4 active torsions:
REMARK  status: ('A' for Active; 'I' for Inactive)
REMARK    1  A    between atoms: C_2  and  C_3
REMARK    2  A    between atoms: C_3  and  O_4
REMARK    3  A    between atoms: O_4  and  C_5
REMARK    4  A    between atoms: C_8  and  C_9
REMARK                            x       y       z     vdW  Elec       q    Type
REMARK                         _______ _______ _______ _____ _____    ______ ____
ROOT
ATOM      1  C   UNL     1       2.661   6.254  18.698  0.00  0.00    +0.000 C 
ATOM      2  O   UNL     1       1.997   5.541  19.446  0.00  0.00    +0.000 OA
ATOM      3  N   UNL     1       2.595   7.628  18.620  0.00  0.00    +0.000 N 
ATOM      4  C   UNL     1       1.716   8.370  19.418  0.00  0.00    +0.000 A 
ATOM      5  C   UNL     1       1.546   8.098  20.768  0.00  0.00    +0.000 A 
ATOM      6  C   UNL     1       0.625   8.844  21.498  0.00  0.00    +0.000 A 
ATOM      7  C   UNL     1      -0.121   9.814  20.840  0.00  0.00    +0.000 A 
ATOM      8  C   UNL     1       0.125  10.026  19.493  0.00  0.00    +0.000 A 
ATOM      9 BR   UNL     1      -0.955  11.278  18.558  0.00  0.00    +0.000 Br
ATOM     10  N   UNL     1       1.064   9.364  18.781  0.00  0.00    +0.000 NA
ATOM     11  H   UNL     1       2.799   8.057  17.729  0.00  0.00    +0.000 HD
ENDROOT
BRANCH   1  15
ATOM     12  C   UNL     1       5.328   4.260  16.012  0.00  0.00    +0.000 A 
ATOM     13  C   UNL     1       4.418   3.534  16.781  0.00  0.00    +0.000 A 
ATOM     14  C   UNL     1       3.534   4.200  17.629  0.00  0.00    +0.000 A 
ATOM     15  C   UNL     1       3.564   5.596  17.721  0.00  0.00    +0.000 A 
ATOM     16  C   UNL     1       4.490   6.327  16.972  0.00  0.00    +0.000 A 
ATOM     17  C   UNL     1       5.377   5.652  16.126  0.00  0.00    +0.000 A 
BRANCH  12  18
ATOM     18  O   UNL     1       6.225   3.706  15.135  0.00  0.00    +0.000 OA
BRANCH  18  19
ATOM     19  C   UNL     1       6.458   4.466  13.945  0.00  0.00    +0.000 C 
BRANCH  19  21
ATOM     20  C   UNL     1       5.125   3.379  12.125  0.00  0.00    +0.000 C 
ATOM     21  C   UNL     1       6.287   3.561  12.767  0.00  0.00    +0.000 C 
ENDBRANCH  19  21
ENDBRANCH  18  19
ENDBRANCH  12  18
ENDBRANCH   1  15
TORSDOF 4
ENDMDL
MODEL 2
REMARK VINA RESULT:      -7.1      0.474      1.200
REMARK  Name = 
REMARK  4 active torsions:
REMARK  status: ('A' for Active; 'I' for Inactive)
REMARK    1  A    between atoms: C_2  and  C_3
REMARK    2  A    between atoms: C_3  and  O_4
REMARK    3  A    between atoms: O_4  and  C_5
REMARK    4  A    between atoms: C_8  and  C_9
REMARK                            x       y       z     vdW  Elec       q    Type
REMARK                         _______ _______ _______ _____ _____    ______ ____
ROOT
ATOM      1  C   UNL     1       2.550   6.283  19.108  0.00  0.00    +0.000 C 
ATOM      2  O   UNL     1       1.859   5.608  19.868  0.00  0.00    +0.000 OA
ATOM      3  N   UNL     1       2.491   7.651  18.961  0.00  0.00    +0.000 N 
ATOM      4  C   UNL     1       1.588   8.433  19.692  0.00  0.00    +0.000 A 
ATOM      5  C   UNL     1       1.372   8.227  21.048  0.00  0.00    +0.000 A 
ATOM      6  C   UNL     1       0.429   9.009  21.708  0.00  0.00    +0.000 A 
ATOM      7  C   UNL     1      -0.292   9.947  20.979  0.00  0.00    +0.000 A 
ATOM      8  C   UNL     1      -0.000  10.092  19.632  0.00  0.00    +0.000 A 
ATOM      9 BR   UNL     1      -1.045  11.298  18.602  0.00  0.00    +0.000 Br
ATOM     10  N   UNL     1       0.961   9.395  18.985  0.00  0.00    +0.000 NA
ATOM     11  H   UNL     1       2.726   8.036  18.057  0.00  0.00    +0.000 HD
ENDROOT
BRANCH   1  15
ATOM     12  C   UNL     1       5.183   4.344  16.348  0.00  0.00    +0.000 A 
ATOM     13  C   UNL     1       5.226   5.727  16.521  0.00  0.00    +0.000 A 
ATOM     14  C   UNL     1       4.384   6.343  17.447  0.00  0.00    +0.000 A 
ATOM     15  C   UNL     1       3.484   5.576  18.196  0.00  0.00    +0.000 A 
ATOM     16  C   UNL     1       3.418   4.192  18.010  0.00  0.00    +0.000 A 
ATOM     17  C   UNL     1       4.264   3.583  17.076  0.00  0.00    +0.000 A 
BRANCH  12  18
ATOM     18  O   UNL     1       5.979   3.640  15.482  0.00  0.00    +0.000 OA
BRANCH  18  19
ATOM     19  C   UNL     1       6.436   4.378  14.344  0.00  0.00    +0.000 C 
BRANCH  19  21
ATOM     20  C   UNL     1       6.772   3.631  11.977  0.00  0.00    +0.000 C 
ATOM     21  C   UNL     1       6.057   3.622  13.110  0.00  0.00    +0.000 C 
ENDBRANCH  19  21
ENDBRANCH  18  19
ENDBRANCH  12  18
ENDBRANCH   1  15
TORSDOF 4
ENDMDL
MODEL 3
REMARK VINA RESULT:      -7.1      4.322      8.034
REMARK  Name = 
REMARK  4 active torsions:
REMARK  status: ('A' for Active; 'I' for Inactive)
REMARK    1  A    between atoms: C_2  and  C_3
REMARK    2  A    between atoms: C_3  and  O_4
REMARK    3  A    between atoms: O_4  and  C_5
REMARK    4  A    between atoms: C_8  and  C_9
REMARK                            x       y       z     vdW  Elec       q    Type
REMARK                         _______ _______ _______ _____ _____    ______ ____
ROOT
ATOM      1  C   UNL     1       5.204   5.556  16.140  0.00  0.00    +0.000 C 
ATOM      2  O   UNL     1       5.277   6.670  15.625  0.00  0.00    +0.000 OA
ATOM      3  N   UNL     1       5.685   4.383  15.601  0.00  0.00    +0.000 N 
ATOM      4  C   UNL     1       6.323   4.351  14.355  0.00  0.00    +0.000 A 
ATOM      5  C   UNL     1       7.264   5.304  13.990  0.00  0.00    +0.000 A 
ATOM      6  C   UNL     1       7.831   5.242  12.720  0.00  0.00    +0.000 A 
ATOM      7  C   UNL     1       7.408   4.248  11.846  0.00  0.00    +0.000 A 
ATOM      8  C   UNL     1       6.473   3.332  12.302  0.00  0.00    +0.000 A 
ATOM      9 BR   UNL     1       5.812   2.028  11.088  0.00  0.00    +0.000 Br
ATOM     10  N   UNL     1       5.962   3.328  13.554  0.00  0.00    +0.000 NA
ATOM     11  H   UNL     1       5.202   3.527  15.835  0.00  0.00    +0.000 HD
ENDROOT
BRANCH   1  15
ATOM     12  C   UNL     1       3.115   5.331  19.866  0.00  0.00    +0.000 A 
ATOM     13  C   UNL     1       2.831   6.345  18.952  0.00  0.00    +0.000 A 
ATOM     14  C   UNL     1       3.498   6.389  17.727  0.00  0.00    +0.000 A 
ATOM     15  C   UNL     1       4.462   5.423  17.418  0.00  0.00    +0.000 A 
ATOM     16  C   UNL     1       4.769   4.418  18.340  0.00  0.00    +0.000 A 
ATOM     17  C   UNL     1       4.098   4.384  19.568  0.00  0.00    +0.000 A 
BRANCH  12  18
ATOM     18  O   UNL     1       2.504   5.187  21.086  0.00  0.00    +0.000 OA
BRANCH  18  19
ATOM     19  C   UNL     1       1.939   3.896  21.332  0.00  0.00    +0.000 C 
BRANCH  19  21
ATOM     20  C   UNL     1       0.788   2.708  19.451  0.00  0.00    +0.000 C 
ATOM     21  C   UNL     1       0.814   3.684  20.368  0.00  0.00    +0.000 C 
ENDBRANCH  19  21
ENDBRANCH  18  19
ENDBRANCH  12  18
ENDBRANCH   1  15
TORSDOF 4
ENDMDL
MODEL 4
REMARK VINA RESULT:      -7.0      1.214      1.715
REMARK  Name = 
REMARK  4 active torsions:
REMARK  status: ('A' for Active; 'I' for Inactive)
REMARK    1  A    between atoms: C_2  and  C_3
REMARK    2  A    between atoms: C_3  and  O_4
REMARK    3  A    between atoms: O_4  and  C_5
REMARK    4  A    between atoms: C_8  and  C_9
REMARK                            x       y       z     vdW  Elec       q    Type
REMARK                         _______ _______ _______ _____ _____    ______ ____
ROOT
ATOM      1  C   UNL     1       2.478   7.282  18.701  0.00  0.00    +0.000 C 
ATOM      2  O   UNL     1       2.170   6.998  19.856  0.00  0.00    +0.000 OA
ATOM      3  N   UNL     1       1.994   8.348  17.974  0.00  0.00    +0.000 N 
ATOM      4  C   UNL     1       1.057   9.240  18.508  0.00  0.00    +0.000 A 
ATOM      5  C   UNL     1       1.169   9.733  19.800  0.00  0.00    +0.000 A 
ATOM      6  C   UNL     1       0.180  10.583  20.288  0.00  0.00    +0.000 A 
ATOM      7  C   UNL     1      -0.907  10.880  19.476  0.00  0.00    +0.000 A 
ATOM      8  C   UNL     1      -0.929  10.352  18.195  0.00  0.00    +0.000 A 
ATOM      9 BR   UNL     1      -2.455  10.668  17.108  0.00  0.00    +0.000 Br
ATOM     10  N   UNL     1       0.054   9.584  17.674  0.00  0.00    +0.000 NA
ATOM     11  H   UNL     1       1.932   8.242  16.971  0.00  0.00    +0.000 HD
ENDROOT
BRANCH   1  15
ATOM     12  C   UNL     1       5.064   4.720  16.453  0.00  0.00    +0.000 A 
ATOM     13  C   UNL     1       5.243   6.103  16.437  0.00  0.00    +0.000 A 
ATOM     14  C   UNL     1       4.412   6.924  17.199  0.00  0.00    +0.000 A 
ATOM     15  C   UNL     1       3.388   6.365  17.972  0.00  0.00    +0.000 A 
ATOM     16  C   UNL     1       3.188   4.981  17.973  0.00  0.00    +0.000 A 
ATOM     17  C   UNL     1       4.023   4.164  17.202  0.00  0.00    +0.000 A 
BRANCH  12  18
ATOM     18  O   UNL     1       5.835   3.825  15.757  0.00  0.00    +0.000 OA
BRANCH  18  19
ATOM     19  C   UNL     1       6.466   4.351  14.586  0.00  0.00    +0.000 C 
BRANCH  19  21
ATOM     20  C   UNL     1       6.474   3.547  12.214  0.00  0.00    +0.000 C 
ATOM     21  C   UNL     1       5.847   3.705  13.387  0.00  0.00    +0.000 C 
ENDBRANCH  19  21
ENDBRANCH  18  19
ENDBRANCH  12  18
ENDBRANCH   1  15
TORSDOF 4
ENDMDL
MODEL 5
REMARK VINA RESULT:      -7.0      4.409      8.023
REMARK  Name = 
REMARK  4 active torsions:
REMARK  status: ('A' for Active; 'I' for Inactive)
REMARK    1  A    between atoms: C_2  and  C_3
REMARK    2  A    between atoms: C_3  and  O_4
REMARK    3  A    between atoms: O_4  and  C_5
REMARK    4  A    between atoms: C_8  and  C_9
REMARK                            x       y       z     vdW  Elec       q    Type
REMARK                         _______ _______ _______ _____ _____    ______ ____
ROOT
ATOM      1  C   UNL     1       5.303   5.547  16.053  0.00  0.00    +0.000 C 
ATOM      2  O   UNL     1       5.317   6.650  15.510  0.00  0.00    +0.000 OA
ATOM      3  N   UNL     1       5.814   4.381  15.526  0.00  0.00    +0.000 N 
ATOM      4  C   UNL     1       6.414   4.343  14.262  0.00  0.00    +0.000 A 
ATOM      5  C   UNL     1       7.304   5.322  13.845  0.00  0.00    +0.000 A 
ATOM      6  C   UNL     1       7.833   5.251  12.559  0.00  0.00    +0.000 A 
ATOM      7  C   UNL     1       7.423   4.220  11.722  0.00  0.00    +0.000 A 
ATOM      8  C   UNL     1       6.540   3.280  12.229  0.00  0.00    +0.000 A 
ATOM      9 BR   UNL     1       5.894   1.923  11.067  0.00  0.00    +0.000 Br
ATOM     10  N   UNL     1       6.069   3.288  13.496  0.00  0.00    +0.000 NA
ATOM     11  H   UNL     1       5.372   3.513  15.795  0.00  0.00    +0.000 HD
ENDROOT
BRANCH   1  15
ATOM     12  C   UNL     1       3.253   5.007  19.769  0.00  0.00    +0.000 A 
ATOM     13  C   UNL     1       4.281   4.143  19.391  0.00  0.00    +0.000 A 
ATOM     14  C   UNL     1       4.961   4.349  18.191  0.00  0.00    +0.000 A 
ATOM     15  C   UNL     1       4.608   5.416  17.357  0.00  0.00    +0.000 A 
ATOM     16  C   UNL     1       3.562   6.271  17.718  0.00  0.00    +0.000 A 
ATOM     17  C   UNL     1       2.881   6.055  18.922  0.00  0.00    +0.000 A 
BRANCH  12  18
ATOM     18  O   UNL     1       2.536   4.905  20.933  0.00  0.00    +0.000 OA
BRANCH  18  19
ATOM     19  C   UNL     1       1.159   4.552  20.768  0.00  0.00    +0.000 C 
BRANCH  19  21
ATOM     20  C   UNL     1       0.729   2.631  19.220  0.00  0.00    +0.000 C 
ATOM     21  C   UNL     1       1.083   3.098  20.424  0.00  0.00    +0.000 C 
ENDBRANCH  19  21
ENDBRANCH  18  19
ENDBRANCH  12  18
ENDBRANCH   1  15
TORSDOF 4
ENDMDL
MODEL 6
REMARK VINA RESULT:      -6.8      1.054      1.132
REMARK  Name = 
REMARK  4 active torsions:
REMARK  status: ('A' for Active; 'I' for Inactive)
REMARK    1  A    between atoms: C_2  and  C_3
REMARK    2  A    between atoms: C_3  and  O_4
REMARK    3  A    between atoms: O_4  and  C_5
REMARK    4  A    between atoms: C_8  and  C_9
REMARK                            x       y       z     vdW  Elec       q    Type
REMARK                         _______ _______ _______ _____ _____    ______ ____
ROOT
ATOM      1  C   UNL     1       2.571   7.142  18.631  0.00  0.00    +0.000 C 
ATOM      2  O   UNL     1       2.109   6.583  19.623  0.00  0.00    +0.000 OA
ATOM      3  N   UNL     1       2.177   8.365  18.135  0.00  0.00    +0.000 N 
ATOM      4  C   UNL     1       1.159   9.112  18.738  0.00  0.00    +0.000 A 
ATOM      5  C   UNL     1       1.080   9.264  20.116  0.00  0.00    +0.000 A 
ATOM      6  C   UNL     1       0.019   9.983  20.658  0.00  0.00    +0.000 A 
ATOM      7  C   UNL     1      -0.948  10.496  19.802  0.00  0.00    +0.000 A 
ATOM      8  C   UNL     1      -0.781  10.306  18.439  0.00  0.00    +0.000 A 
ATOM      9 BR   UNL     1      -2.144  10.914  17.264  0.00  0.00    +0.000 Br
ATOM     10  N   UNL     1       0.278   9.674  17.886  0.00  0.00    +0.000 NA
ATOM     11  H   UNL     1       2.258   8.514  17.139  0.00  0.00    +0.000 HD
ENDROOT
BRANCH   1  15
ATOM     12  C   UNL     1       5.557   4.974  16.465  0.00  0.00    +0.000 A 
ATOM     13  C   UNL     1       4.571   4.300  17.186  0.00  0.00    +0.000 A 
ATOM     14  C   UNL     1       3.585   5.019  17.862  0.00  0.00    +0.000 A 
ATOM     15  C   UNL     1       3.590   6.419  17.830  0.00  0.00    +0.000 A 
ATOM     16  C   UNL     1       4.590   7.100  17.131  0.00  0.00    +0.000 A 
ATOM     17  C   UNL     1       5.578   6.372  16.458  0.00  0.00    +0.000 A 
BRANCH  12  18
ATOM     18  O   UNL     1       6.557   4.364  15.753  0.00  0.00    +0.000 OA
BRANCH  18  19
ATOM     19  C   UNL     1       6.707   4.821  14.405  0.00  0.00    +0.000 C 
BRANCH  19  21
ATOM     20  C   UNL     1       6.468   3.719  12.169  0.00  0.00    +0.000 C 
ATOM     21  C   UNL     1       6.228   3.742  13.486  0.00  0.00    +0.000 C 
ENDBRANCH  19  21
ENDBRANCH  18  19
ENDBRANCH  12  18
ENDBRANCH   1  15
TORSDOF 4
ENDMDL
MODEL 7
REMARK VINA RESULT:      -6.8      1.030      1.324
REMARK  Name = 
REMARK  4 active torsions:
REMARK  status: ('A' for Active; 'I' for Inactive)
REMARK    1  A    between atoms: C_2  and  C_3
REMARK    2  A    between atoms: C_3  and  O_4
REMARK    3  A    between atoms: O_4  and  C_5
REMARK    4  A    between atoms: C_8  and  C_9
REMARK                            x       y       z     vdW  Elec       q    Type
REMARK                         _______ _______ _______ _____ _____    ______ ____
ROOT
ATOM      1  C   UNL     1       2.147   6.513  19.767  0.00  0.00    +0.000 C 
ATOM      2  O   UNL     1       1.578   5.885  20.658  0.00  0.00    +0.000 OA
ATOM      3  N   UNL     1       2.067   7.872  19.559  0.00  0.00    +0.000 N 
ATOM      4  C   UNL     1       1.287   8.699  20.376  0.00  0.00    +0.000 A 
ATOM      5  C   UNL     1       1.280   8.567  21.758  0.00  0.00    +0.000 A 
ATOM      6  C   UNL     1       0.449   9.390  22.512  0.00  0.00    +0.000 A 
ATOM      7  C   UNL     1      -0.373  10.296  21.852  0.00  0.00    +0.000 A 
ATOM      8  C   UNL     1      -0.290  10.367  20.471  0.00  0.00    +0.000 A 
ATOM      9 BR   UNL     1      -1.478  11.528  19.549  0.00  0.00    +0.000 Br
ATOM     10  N   UNL     1       0.560   9.629  19.723  0.00  0.00    +0.000 NA
ATOM     11  H   UNL     1       2.162   8.207  18.610  0.00  0.00    +0.000 HD
ENDROOT
BRANCH   1  15
ATOM     12  C   UNL     1       4.399   4.180  16.976  0.00  0.00    +0.000 A 
ATOM     13  C   UNL     1       3.148   3.749  17.418  0.00  0.00    +0.000 A 
ATOM     14  C   UNL     1       2.411   4.534  18.305  0.00  0.00    +0.000 A 
ATOM     15  C   UNL     1       2.929   5.751  18.762  0.00  0.00    +0.000 A 
ATOM     16  C   UNL     1       4.192   6.178  18.342  0.00  0.00    +0.000 A 
ATOM     17  C   UNL     1       4.927   5.382  17.456  0.00  0.00    +0.000 A 
BRANCH  12  18
ATOM     18  O   UNL     1       5.193   3.495  16.093  0.00  0.00    +0.000 OA
BRANCH  18  19
ATOM     19  C   UNL     1       6.347   4.207  15.637  0.00  0.00    +0.000 C 
BRANCH  19  21
ATOM     20  C   UNL     1       6.191   3.699  13.190  0.00  0.00    +0.000 C 
ATOM     21  C   UNL     1       6.137   4.574  14.202  0.00  0.00    +0.000 C 
ENDBRANCH  19  21
ENDBRANCH  18  19
ENDBRANCH  12  18
ENDBRANCH   1  15
TORSDOF 4
ENDMDL
MODEL 8
REMARK VINA RESULT:      -6.7      3.518      9.151
REMARK  Name = 
REMARK  4 active torsions:
REMARK  status: ('A' for Active; 'I' for Inactive)
REMARK    1  A    between atoms: C_2  and  C_3
REMARK    2  A    between atoms: C_3  and  O_4
REMARK    3  A    between atoms: O_4  and  C_5
REMARK    4  A    between atoms: C_8  and  C_9
REMARK                            x       y       z     vdW  Elec       q    Type
REMARK                         _______ _______ _______ _____ _____    ______ ____
ROOT
ATOM      1  C   UNL     1       1.847   8.193  19.324  0.00  0.00    +0.000 C 
ATOM      2  O   UNL     1       1.847   8.660  18.187  0.00  0.00    +0.000 OA
ATOM      3  N   UNL     1       2.423   7.003  19.710  0.00  0.00    +0.000 N 
ATOM      4  C   UNL     1       3.085   6.173  18.796  0.00  0.00    +0.000 A 
ATOM      5  C   UNL     1       3.959   6.682  17.845  0.00  0.00    +0.000 A 
ATOM      6  C   UNL     1       4.552   5.810  16.937  0.00  0.00    +0.000 A 
ATOM      7  C   UNL     1       4.219   4.462  16.989  0.00  0.00    +0.000 A 
ATOM      8  C   UNL     1       3.346   4.042  17.980  0.00  0.00    +0.000 A 
ATOM      9 BR   UNL     1       2.805   2.221  18.002  0.00  0.00    +0.000 Br
ATOM     10  N   UNL     1       2.815   4.858  18.918  0.00  0.00    +0.000 NA
ATOM     11  H   UNL     1       2.001   6.506  20.481  0.00  0.00    +0.000 HD
ENDROOT
BRANCH   1  15
ATOM     12  C   UNL     1      -0.245  10.425  22.315  0.00  0.00    +0.000 A 
ATOM     13  C   UNL     1      -0.341  10.776  20.968  0.00  0.00    +0.000 A 
ATOM     14  C   UNL     1       0.322  10.021  20.001  0.00  0.00    +0.000 A 
ATOM     15  C   UNL     1       1.095   8.917  20.379  0.00  0.00    +0.000 A 
ATOM     16  C   UNL     1       1.214   8.575  21.729  0.00  0.00    +0.000 A 
ATOM     17  C   UNL     1       0.549   9.340  22.694  0.00  0.00    +0.000 A 
BRANCH  12  18
ATOM     18  O   UNL     1      -0.871  11.088  23.340  0.00  0.00    +0.000 OA
BRANCH  18  19
ATOM     19  C   UNL     1      -1.585  12.265  22.954  0.00  0.00    +0.000 C 
BRANCH  19  21
ATOM     20  C   UNL     1      -3.756  13.169  23.815  0.00  0.00    +0.000 C 
ATOM     21  C   UNL     1      -2.998  12.135  23.428  0.00  0.00    +0.000 C 
ENDBRANCH  19  21
ENDBRANCH  18  19
ENDBRANCH  12  18
ENDBRANCH   1  15
TORSDOF 4
ENDMDL
MODEL 9
REMARK VINA RESULT:      -6.7      3.622      8.263
REMARK  Name = 
REMARK  4 active torsions:
REMARK  status: ('A' for Active; 'I' for Inactive)
REMARK    1  A    between atoms: C_2  and  C_3
REMARK    2  A    between atoms: C_3  and  O_4
REMARK    3  A    between atoms: O_4  and  C_5
REMARK    4  A    between atoms: C_8  and  C_9
REMARK                            x       y       z     vdW  Elec       q    Type
REMARK                         _______ _______ _______ _____ _____    ______ ____
ROOT
ATOM      1  C   UNL     1       5.026   6.258  16.502  0.00  0.00    +0.000 C 
ATOM      2  O   UNL     1       5.697   7.202  16.088  0.00  0.00    +0.000 OA
ATOM      3  N   UNL     1       4.966   5.001  15.941  0.00  0.00    +0.000 N 
ATOM      4  C   UNL     1       5.691   4.672  14.790  0.00  0.00    +0.000 A 
ATOM      5  C   UNL     1       7.015   5.055  14.623  0.00  0.00    +0.000 A 
ATOM      6  C   UNL     1       7.668   4.735  13.437  0.00  0.00    +0.000 A 
ATOM      7  C   UNL     1       6.960   4.072  12.441  0.00  0.00    +0.000 A 
ATOM      8  C   UNL     1       5.645   3.717  12.701  0.00  0.00    +0.000 A 
ATOM      9 BR   UNL     1       4.635   2.899  11.315  0.00  0.00    +0.000 Br
ATOM     10  N   UNL     1       5.013   3.954  13.872  0.00  0.00    +0.000 NA
ATOM     11  H   UNL     1       4.106   4.483  16.044  0.00  0.00    +0.000 HD
ENDROOT
BRANCH   1  15
ATOM     12  C   UNL     1       2.363   6.777  19.810  0.00  0.00    +0.000 A 
ATOM     13  C   UNL     1       3.214   5.674  19.748  0.00  0.00    +0.000 A 
ATOM     14  C   UNL     1       4.099   5.533  18.679  0.00  0.00    +0.000 A 
ATOM     15  C   UNL     1       4.128   6.492  17.659  0.00  0.00    +0.000 A 
ATOM     16  C   UNL     1       3.260   7.587  17.703  0.00  0.00    +0.000 A 
ATOM     17  C   UNL     1       2.372   7.719  18.777  0.00  0.00    +0.000 A 
BRANCH  12  18
ATOM     18  O   UNL     1       1.472   7.019  20.823  0.00  0.00    +0.000 OA
BRANCH  18  19
ATOM     19  C   UNL     1       1.323   8.395  21.184  0.00  0.00    +0.000 C 
BRANCH  19  21
ATOM     20  C   UNL     1      -0.443   9.310  22.705  0.00  0.00    +0.000 C 
ATOM     21  C   UNL     1      -0.093   8.619  21.613  0.00  0.00    +0.000 C 
ENDBRANCH  19  21
ENDBRANCH  18  19
ENDBRANCH  12  18
ENDBRANCH   1  15
TORSDOF 4
ENDMDL
