MODEL 1
REMARK VINA RESULT:      -9.4      0.000      0.000
REMARK  Name = 
REMARK  4 active torsions:
REMARK  status: ('A' for Active; 'I' for Inactive)
REMARK    1  A    between atoms: N_3  and  C_4
REMARK    2  A    between atoms: N_13  and  C_14
REMARK    3  A    between atoms: C_14  and  C_15
REMARK    4  A    between atoms: C_19  and  C_20
REMARK                            x       y       z     vdW  Elec       q    Type
REMARK                         _______ _______ _______ _____ _____    ______ ____
ROOT
ATOM      1  O   UNL     1       2.069   8.736  19.122  0.00  0.00    +0.000 OA
ATOM      2  C   UNL     1       1.963   7.863  19.980  0.00  0.00    +0.000 C 
ATOM      3  N   UNL     1       1.280   8.034  21.162  0.00  0.00    +0.000 N 
ATOM      4  N   UNL     1       2.533   6.614  19.791  0.00  0.00    +0.000 N 
ATOM      5  C   UNL     1       2.483   5.450  20.688  0.00  0.00    +0.000 C 
ATOM      6  C   UNL     1       2.011   4.175  19.950  0.00  0.00    +0.000 C 
ATOM      7  N   UNL     1       2.719   3.886  18.678  0.00  0.00    +0.000 NA
ATOM      8  C   UNL     1       2.652   5.104  17.834  0.00  0.00    +0.000 C 
ATOM      9  C   UNL     1       3.211   6.366  18.511  0.00  0.00    +0.000 C 
ATOM     10  H   UNL     1       1.524   7.420  21.920  0.00  0.00    +0.000 HD
ENDROOT
BRANCH   3  11
ATOM     11  C   UNL     1       0.473   9.138  21.514  0.00  0.00    +0.000 A 
ATOM     12  C   UNL     1       0.263  10.242  20.686  0.00  0.00    +0.000 A 
ATOM     13  C   UNL     1      -0.505  11.323  21.119  0.00  0.00    +0.000 A 
ATOM     14  C   UNL     1      -1.089  11.303  22.381  0.00  0.00    +0.000 A 
ATOM     15  C   UNL     1      -0.924  10.191  23.204  0.00  0.00    +0.000 A 
ATOM     16  C   UNL     1      -0.149   9.110  22.770  0.00  0.00    +0.000 A 
ENDBRANCH   3  11
BRANCH   7  17
ATOM     17  C   UNL     1       4.100   3.452  18.958  0.00  0.00    +0.000 C 
BRANCH  17  18
ATOM     18  C   UNL     1       5.188   4.221  18.240  0.00  0.00    +0.000 A 
ATOM     19  C   UNL     1       5.955   5.182  18.903  0.00  0.00    +0.000 A 
ATOM     20  C   UNL     1       6.888   5.938  18.196  0.00  0.00    +0.000 A 
ATOM     21  C   UNL     1       7.069   5.733  16.823  0.00  0.00    +0.000 A 
ATOM     22  C   UNL     1       6.325   4.771  16.120  0.00  0.00    +0.000 A 
ATOM     23  C   UNL     1       5.384   4.028  16.858  0.00  0.00    +0.000 A 
BRANCH  22  24
ATOM     24  C   UNL     1       6.498   4.553  14.661  0.00  0.00    +0.000 A 
ATOM     25  C   UNL     1       7.511   5.210  13.936  0.00  0.00    +0.000 A 
ATOM     26  C   UNL     1       7.697   4.987  12.567  0.00  0.00    +0.000 A 
ATOM     27  C   UNL     1       6.862   4.111  11.884  0.00  0.00    +0.000 A 
ATOM     28  C   UNL     1       5.846   3.455  12.569  0.00  0.00    +0.000 A 
ATOM     29  C   UNL     1       5.671   3.670  13.941  0.00  0.00    +0.000 A 
ENDBRANCH  22  24
ENDBRANCH  17  18
ENDBRANCH   7  17
TORSDOF 4
ENDMDL
MODEL 2
REMARK VINA RESULT:      -9.4      3.556      6.280
REMARK  Name = 
REMARK  4 active torsions:
REMARK  status: ('A' for Active; 'I' for Inactive)
REMARK    1  A    between atoms: N_3  and  C_4
REMARK    2  A    between atoms: N_13  and  C_14
REMARK    3  A    between atoms: C_14  and  C_15
REMARK    4  A    between atoms: C_19  and  C_20
REMARK                            x       y       z     vdW  Elec       q    Type
REMARK                         _______ _______ _______ _____ _____    ______ ____
ROOT
ATOM      1  O   UNL     1      -1.352  13.788  20.366  0.00  0.00    +0.000 OA
ATOM      2  C   UNL     1      -0.699  12.953  20.987  0.00  0.00    +0.000 C 
ATOM      3  N   UNL     1      -0.652  12.891  22.360  0.00  0.00    +0.000 N 
ATOM      4  N   UNL     1       0.037  11.989  20.317  0.00  0.00    +0.000 N 
ATOM      5  C   UNL     1       0.847  10.906  20.891  0.00  0.00    +0.000 C 
ATOM      6  C   UNL     1       0.481   9.530  20.283  0.00  0.00    +0.000 C 
ATOM      7  N   UNL     1       0.441   9.490  18.800  0.00  0.00    +0.000 NA
ATOM      8  C   UNL     1      -0.448  10.583  18.339  0.00  0.00    +0.000 C 
ATOM      9  C   UNL     1      -0.042  11.976  18.850  0.00  0.00    +0.000 C 
ATOM     10  H   UNL     1       0.141  12.423  22.767  0.00  0.00    +0.000 HD
ENDROOT
BRANCH   3  11
ATOM     11  C   UNL     1      -1.441  13.638  23.263  0.00  0.00    +0.000 A 
ATOM     12  C   UNL     1      -1.023  14.829  23.859  0.00  0.00    +0.000 A 
ATOM     13  C   UNL     1      -1.833  15.488  24.783  0.00  0.00    +0.000 A 
ATOM     14  C   UNL     1      -3.083  14.971  25.108  0.00  0.00    +0.000 A 
ATOM     15  C   UNL     1      -3.533  13.805  24.492  0.00  0.00    +0.000 A 
ATOM     16  C   UNL     1      -2.717  13.143  23.569  0.00  0.00    +0.000 A 
ENDBRANCH   3  11
BRANCH   7  17
ATOM     17  C   UNL     1       1.809   9.588  18.257  0.00  0.00    +0.000 C 
BRANCH  17  18
ATOM     18  C   UNL     1       2.564   8.282  18.143  0.00  0.00    +0.000 A 
ATOM     19  C   UNL     1       3.654   8.148  17.279  0.00  0.00    +0.000 A 
ATOM     20  C   UNL     1       4.275   6.910  17.128  0.00  0.00    +0.000 A 
ATOM     21  C   UNL     1       3.819   5.798  17.847  0.00  0.00    +0.000 A 
ATOM     22  C   UNL     1       2.732   5.891  18.732  0.00  0.00    +0.000 A 
ATOM     23  C   UNL     1       2.120   7.153  18.858  0.00  0.00    +0.000 A 
BRANCH  22  24
ATOM     24  C   UNL     1       2.231   4.717  19.490  0.00  0.00    +0.000 A 
ATOM     25  C   UNL     1       1.513   3.685  18.856  0.00  0.00    +0.000 A 
ATOM     26  C   UNL     1       1.063   2.563  19.559  0.00  0.00    +0.000 A 
ATOM     27  C   UNL     1       1.304   2.452  20.923  0.00  0.00    +0.000 A 
ATOM     28  C   UNL     1       2.001   3.459  21.582  0.00  0.00    +0.000 A 
ATOM     29  C   UNL     1       2.462   4.575  20.872  0.00  0.00    +0.000 A 
ENDBRANCH  22  24
ENDBRANCH  17  18
ENDBRANCH   7  17
TORSDOF 4
ENDMDL
MODEL 3
REMARK VINA RESULT:      -9.3      3.505      6.098
REMARK  Name = 
REMARK  4 active torsions:
REMARK  status: ('A' for Active; 'I' for Inactive)
REMARK    1  A    between atoms: N_3  and  C_4
REMARK    2  A    between atoms: N_13  and  C_14
REMARK    3  A    between atoms: C_14  and  C_15
REMARK    4  A    between atoms: C_19  and  C_20
REMARK                            x       y       z     vdW  Elec       q    Type
REMARK                         _______ _______ _______ _____ _____    ______ ____
ROOT
ATOM      1  O   UNL     1      -1.538  13.583  20.357  0.00  0.00    +0.000 OA
ATOM      2  C   UNL     1      -0.836  12.789  20.978  0.00  0.00    +0.000 C 
ATOM      3  N   UNL     1      -0.760  12.753  22.352  0.00  0.00    +0.000 N 
ATOM      4  N   UNL     1      -0.070  11.848  20.310  0.00  0.00    +0.000 N 
ATOM      5  C   UNL     1       0.799  10.811  20.886  0.00  0.00    +0.000 C 
ATOM      6  C   UNL     1       0.484   9.411  20.308  0.00  0.00    +0.000 C 
ATOM      7  N   UNL     1       0.419   9.343  18.827  0.00  0.00    +0.000 NA
ATOM      8  C   UNL     1      -0.528  10.387  18.365  0.00  0.00    +0.000 C 
ATOM      9  C   UNL     1      -0.176  11.806  18.845  0.00  0.00    +0.000 C 
ATOM     10  H   UNL     1       0.060  12.328  22.750  0.00  0.00    +0.000 HD
ENDROOT
BRANCH   3  11
ATOM     11  C   UNL     1      -1.564  13.479  23.258  0.00  0.00    +0.000 A 
ATOM     12  C   UNL     1      -2.854  13.096  23.629  0.00  0.00    +0.000 A 
ATOM     13  C   UNL     1      -3.614  13.890  24.490  0.00  0.00    +0.000 A 
ATOM     14  C   UNL     1      -3.083  15.067  25.004  0.00  0.00    +0.000 A 
ATOM     15  C   UNL     1      -1.782  15.443  24.676  0.00  0.00    +0.000 A 
ATOM     16  C   UNL     1      -1.023  14.649  23.809  0.00  0.00    +0.000 A 
ENDBRANCH   3  11
BRANCH   7  17
ATOM     17  C   UNL     1       1.769   9.493  18.256  0.00  0.00    +0.000 C 
BRANCH  17  18
ATOM     18  C   UNL     1       2.547   8.209  18.064  0.00  0.00    +0.000 A 
ATOM     19  C   UNL     1       3.720   8.178  17.306  0.00  0.00    +0.000 A 
ATOM     20  C   UNL     1       4.366   6.966  17.072  0.00  0.00    +0.000 A 
ATOM     21  C   UNL     1       3.852   5.776  17.603  0.00  0.00    +0.000 A 
ATOM     22  C   UNL     1       2.681   5.765  18.378  0.00  0.00    +0.000 A 
ATOM     23  C   UNL     1       2.045   7.003  18.591  0.00  0.00    +0.000 A 
BRANCH  22  24
ATOM     24  C   UNL     1       2.118   4.509  18.936  0.00  0.00    +0.000 A 
ATOM     25  C   UNL     1       1.827   4.381  20.308  0.00  0.00    +0.000 A 
ATOM     26  C   UNL     1       1.271   3.211  20.836  0.00  0.00    +0.000 A 
ATOM     27  C   UNL     1       1.006   2.129  20.004  0.00  0.00    +0.000 A 
ATOM     28  C   UNL     1       1.293   2.219  18.647  0.00  0.00    +0.000 A 
ATOM     29  C   UNL     1       1.837   3.397  18.120  0.00  0.00    +0.000 A 
ENDBRANCH  22  24
ENDBRANCH  17  18
ENDBRANCH   7  17
TORSDOF 4
ENDMDL
MODEL 4
REMARK VINA RESULT:      -9.2      3.068     11.499
REMARK  Name = 
REMARK  4 active torsions:
REMARK  status: ('A' for Active; 'I' for Inactive)
REMARK    1  A    between atoms: N_3  and  C_4
REMARK    2  A    between atoms: N_13  and  C_14
REMARK    3  A    between atoms: C_14  and  C_15
REMARK    4  A    between atoms: C_19  and  C_20
REMARK                            x       y       z     vdW  Elec       q    Type
REMARK                         _______ _______ _______ _____ _____    ______ ____
ROOT
ATOM      1  O   UNL     1       2.094   6.556  20.744  0.00  0.00    +0.000 OA
ATOM      2  C   UNL     1       1.978   7.396  19.855  0.00  0.00    +0.000 C 
ATOM      3  N   UNL     1       2.386   7.193  18.557  0.00  0.00    +0.000 N 
ATOM      4  N   UNL     1       1.399   8.628  20.117  0.00  0.00    +0.000 N 
ATOM      5  C   UNL     1       1.156   9.732  19.178  0.00  0.00    +0.000 C 
ATOM      6  C   UNL     1      -0.312  10.220  19.232  0.00  0.00    +0.000 C 
ATOM      7  N   UNL     1      -0.831  10.501  20.593  0.00  0.00    +0.000 NA
ATOM      8  C   UNL     1      -0.586   9.302  21.431  0.00  0.00    +0.000 C 
ATOM      9  C   UNL     1       0.886   8.859  21.474  0.00  0.00    +0.000 C 
ATOM     10  H   UNL     1       2.565   8.014  18.004  0.00  0.00    +0.000 HD
ENDROOT
BRANCH   3  11
ATOM     11  C   UNL     1       2.839   5.977  17.999  0.00  0.00    +0.000 A 
ATOM     12  C   UNL     1       2.057   4.825  17.908  0.00  0.00    +0.000 A 
ATOM     13  C   UNL     1       2.586   3.642  17.392  0.00  0.00    +0.000 A 
ATOM     14  C   UNL     1       3.901   3.604  16.942  0.00  0.00    +0.000 A 
ATOM     15  C   UNL     1       4.683   4.756  16.987  0.00  0.00    +0.000 A 
ATOM     16  C   UNL     1       4.153   5.941  17.510  0.00  0.00    +0.000 A 
ENDBRANCH   3  11
BRANCH   7  17
ATOM     17  C   UNL     1      -0.199  11.720  21.130  0.00  0.00    +0.000 C 
BRANCH  17  18
ATOM     18  C   UNL     1      -1.091  12.603  21.977  0.00  0.00    +0.000 A 
ATOM     19  C   UNL     1      -0.554  13.565  22.836  0.00  0.00    +0.000 A 
ATOM     20  C   UNL     1      -1.393  14.301  23.669  0.00  0.00    +0.000 A 
ATOM     21  C   UNL     1      -2.778  14.090  23.643  0.00  0.00    +0.000 A 
ATOM     22  C   UNL     1      -3.359  13.140  22.787  0.00  0.00    +0.000 A 
ATOM     23  C   UNL     1      -2.485  12.405  21.963  0.00  0.00    +0.000 A 
BRANCH  22  24
ATOM     24  C   UNL     1      -4.824  12.897  22.759  0.00  0.00    +0.000 A 
ATOM     25  C   UNL     1      -5.594  12.915  23.938  0.00  0.00    +0.000 A 
ATOM     26  C   UNL     1      -6.979  12.715  23.914  0.00  0.00    +0.000 A 
ATOM     27  C   UNL     1      -7.628  12.475  22.709  0.00  0.00    +0.000 A 
ATOM     28  C   UNL     1      -6.894  12.441  21.529  0.00  0.00    +0.000 A 
ATOM     29  C   UNL     1      -5.511  12.655  21.554  0.00  0.00    +0.000 A 
ENDBRANCH  22  24
ENDBRANCH  17  18
ENDBRANCH   7  17
TORSDOF 4
ENDMDL
MODEL 5
REMARK VINA RESULT:      -9.2      3.018     11.394
REMARK  Name = 
REMARK  4 active torsions:
REMARK  status: ('A' for Active; 'I' for Inactive)
REMARK    1  A    between atoms: N_3  and  C_4
REMARK    2  A    between atoms: N_13  and  C_14
REMARK    3  A    between atoms: C_14  and  C_15
REMARK    4  A    between atoms: C_19  and  C_20
REMARK                            x       y       z     vdW  Elec       q    Type
REMARK                         _______ _______ _______ _____ _____    ______ ____
ROOT
ATOM      1  O   UNL     1       2.260   6.892  20.563  0.00  0.00    +0.000 OA
ATOM      2  C   UNL     1       2.099   7.598  19.570  0.00  0.00    +0.000 C 
ATOM      3  N   UNL     1       2.510   7.240  18.307  0.00  0.00    +0.000 N 
ATOM      4  N   UNL     1       1.462   8.824  19.670  0.00  0.00    +0.000 N 
ATOM      5  C   UNL     1       1.161   9.779  18.594  0.00  0.00    +0.000 C 
ATOM      6  C   UNL     1      -0.329  10.199  18.599  0.00  0.00    +0.000 C 
ATOM      7  N   UNL     1      -0.854  10.638  19.915  0.00  0.00    +0.000 NA
ATOM      8  C   UNL     1      -0.547   9.576  20.904  0.00  0.00    +0.000 C 
ATOM      9  C   UNL     1       0.945   9.213  20.989  0.00  0.00    +0.000 C 
ATOM     10  H   UNL     1       2.646   7.986  17.646  0.00  0.00    +0.000 HD
ENDROOT
BRANCH   3  11
ATOM     11  C   UNL     1       3.018   5.983  17.912  0.00  0.00    +0.000 A 
ATOM     12  C   UNL     1       4.352   5.758  17.568  0.00  0.00    +0.000 A 
ATOM     13  C   UNL     1       4.775   4.501  17.136  0.00  0.00    +0.000 A 
ATOM     14  C   UNL     1       3.871   3.448  17.063  0.00  0.00    +0.000 A 
ATOM     15  C   UNL     1       2.545   3.644  17.443  0.00  0.00    +0.000 A 
ATOM     16  C   UNL     1       2.120   4.907  17.870  0.00  0.00    +0.000 A 
ENDBRANCH   3  11
BRANCH   7  17
ATOM     17  C   UNL     1      -0.279  11.947  20.276  0.00  0.00    +0.000 C 
BRANCH  17  18
ATOM     18  C   UNL     1      -1.023  12.718  21.344  0.00  0.00    +0.000 A 
ATOM     19  C   UNL     1      -0.349  13.554  22.238  0.00  0.00    +0.000 A 
ATOM     20  C   UNL     1      -1.048  14.181  23.267  0.00  0.00    +0.000 A 
ATOM     21  C   UNL     1      -2.428  13.989  23.404  0.00  0.00    +0.000 A 
ATOM     22  C   UNL     1      -3.146  13.165  22.521  0.00  0.00    +0.000 A 
ATOM     23  C   UNL     1      -2.412  12.537  21.497  0.00  0.00    +0.000 A 
BRANCH  22  24
ATOM     24  C   UNL     1      -4.607  12.942  22.663  0.00  0.00    +0.000 A 
ATOM     25  C   UNL     1      -5.423  12.683  21.545  0.00  0.00    +0.000 A 
ATOM     26  C   UNL     1      -6.795  12.445  21.675  0.00  0.00    +0.000 A 
ATOM     27  C   UNL     1      -7.392  12.476  22.930  0.00  0.00    +0.000 A 
ATOM     28  C   UNL     1      -6.616  12.740  24.053  0.00  0.00    +0.000 A 
ATOM     29  C   UNL     1      -5.240  12.965  23.921  0.00  0.00    +0.000 A 
ENDBRANCH  22  24
ENDBRANCH  17  18
ENDBRANCH   7  17
TORSDOF 4
ENDMDL
MODEL 6
REMARK VINA RESULT:      -9.1      2.684      4.873
REMARK  Name = 
REMARK  4 active torsions:
REMARK  status: ('A' for Active; 'I' for Inactive)
REMARK    1  A    between atoms: N_3  and  C_4
REMARK    2  A    between atoms: N_13  and  C_14
REMARK    3  A    between atoms: C_14  and  C_15
REMARK    4  A    between atoms: C_19  and  C_20
REMARK                            x       y       z     vdW  Elec       q    Type
REMARK                         _______ _______ _______ _____ _____    ______ ____
ROOT
ATOM      1  O   UNL     1      -0.743  11.909  23.130  0.00  0.00    +0.000 OA
ATOM      2  C   UNL     1      -0.845  11.521  21.968  0.00  0.00    +0.000 C 
ATOM      3  N   UNL     1      -1.408  12.271  20.962  0.00  0.00    +0.000 N 
ATOM      4  N   UNL     1      -0.371  10.274  21.594  0.00  0.00    +0.000 N 
ATOM      5  C   UNL     1      -0.383   9.664  20.257  0.00  0.00    +0.000 C 
ATOM      6  C   UNL     1       1.017   9.144  19.850  0.00  0.00    +0.000 C 
ATOM      7  N   UNL     1       1.689   8.291  20.861  0.00  0.00    +0.000 NA
ATOM      8  C   UNL     1       1.696   9.030  22.147  0.00  0.00    +0.000 C 
ATOM      9  C   UNL     1       0.301   9.469  22.624  0.00  0.00    +0.000 C 
ATOM     10  H   UNL     1      -1.751  11.771  20.160  0.00  0.00    +0.000 HD
ENDROOT
BRANCH   3  11
ATOM     11  C   UNL     1      -1.801  13.626  21.042  0.00  0.00    +0.000 A 
ATOM     12  C   UNL     1      -0.916  14.699  20.940  0.00  0.00    +0.000 A 
ATOM     13  C   UNL     1      -1.366  16.012  21.081  0.00  0.00    +0.000 A 
ATOM     14  C   UNL     1      -2.714  16.266  21.307  0.00  0.00    +0.000 A 
ATOM     15  C   UNL     1      -3.619  15.208  21.371  0.00  0.00    +0.000 A 
ATOM     16  C   UNL     1      -3.165  13.892  21.234  0.00  0.00    +0.000 A 
ENDBRANCH   3  11
BRANCH   7  17
ATOM     17  C   UNL     1       1.012   6.985  20.949  0.00  0.00    +0.000 C 
BRANCH  17  18
ATOM     18  C   UNL     1       1.795   5.803  20.420  0.00  0.00    +0.000 A 
ATOM     19  C   UNL     1       1.852   4.597  21.123  0.00  0.00    +0.000 A 
ATOM     20  C   UNL     1       2.653   3.557  20.658  0.00  0.00    +0.000 A 
ATOM     21  C   UNL     1       3.395   3.708  19.480  0.00  0.00    +0.000 A 
ATOM     22  C   UNL     1       3.360   4.900  18.738  0.00  0.00    +0.000 A 
ATOM     23  C   UNL     1       2.548   5.937  19.237  0.00  0.00    +0.000 A 
BRANCH  22  24
ATOM     24  C   UNL     1       4.152   5.078  17.495  0.00  0.00    +0.000 A 
ATOM     25  C   UNL     1       4.434   6.358  16.981  0.00  0.00    +0.000 A 
ATOM     26  C   UNL     1       5.203   6.534  15.826  0.00  0.00    +0.000 A 
ATOM     27  C   UNL     1       5.698   5.429  15.143  0.00  0.00    +0.000 A 
ATOM     28  C   UNL     1       5.427   4.150  15.619  0.00  0.00    +0.000 A 
ATOM     29  C   UNL     1       4.668   3.979  16.783  0.00  0.00    +0.000 A 
ENDBRANCH  22  24
ENDBRANCH  17  18
ENDBRANCH   7  17
TORSDOF 4
ENDMDL
MODEL 7
REMARK VINA RESULT:      -9.1      2.668      5.047
REMARK  Name = 
REMARK  4 active torsions:
REMARK  status: ('A' for Active; 'I' for Inactive)
REMARK    1  A    between atoms: N_3  and  C_4
REMARK    2  A    between atoms: N_13  and  C_14
REMARK    3  A    between atoms: C_14  and  C_15
REMARK    4  A    between atoms: C_19  and  C_20
REMARK                            x       y       z     vdW  Elec       q    Type
REMARK                         _______ _______ _______ _____ _____    ______ ____
ROOT
ATOM      1  O   UNL     1      -0.666  13.266  21.035  0.00  0.00    +0.000 OA
ATOM      2  C   UNL     1      -0.610  12.354  21.857  0.00  0.00    +0.000 C 
ATOM      3  N   UNL     1      -1.183  12.418  23.106  0.00  0.00    +0.000 N 
ATOM      4  N   UNL     1       0.042  11.170  21.556  0.00  0.00    +0.000 N 
ATOM      5  C   UNL     1       0.183   9.973  22.398  0.00  0.00    +0.000 C 
ATOM      6  C   UNL     1      -0.250   8.689  21.650  0.00  0.00    +0.000 C 
ATOM      7  N   UNL     1       0.349   8.514  20.304  0.00  0.00    +0.000 NA
ATOM      8  C   UNL     1       0.094   9.752  19.528  0.00  0.00    +0.000 C 
ATOM      9  C   UNL     1       0.608  11.033  20.207  0.00  0.00    +0.000 C 
ATOM     10  H   UNL     1      -0.813  11.801  23.808  0.00  0.00    +0.000 HD
ENDROOT
BRANCH   3  11
ATOM     11  C   UNL     1      -2.043  13.432  23.585  0.00  0.00    +0.000 A 
ATOM     12  C   UNL     1      -3.435  13.366  23.515  0.00  0.00    +0.000 A 
ATOM     13  C   UNL     1      -4.223  14.428  23.961  0.00  0.00    +0.000 A 
ATOM     14  C   UNL     1      -3.625  15.562  24.500  0.00  0.00    +0.000 A 
ATOM     15  C   UNL     1      -2.237  15.626  24.615  0.00  0.00    +0.000 A 
ATOM     16  C   UNL     1      -1.449  14.563  24.163  0.00  0.00    +0.000 A 
ENDBRANCH   3  11
BRANCH   7  17
ATOM     17  C   UNL     1       1.783   8.195  20.429  0.00  0.00    +0.000 C 
BRANCH  17  18
ATOM     18  C   UNL     1       2.182   6.794  20.018  0.00  0.00    +0.000 A 
ATOM     19  C   UNL     1       1.651   5.672  20.658  0.00  0.00    +0.000 A 
ATOM     20  C   UNL     1       2.103   4.398  20.320  0.00  0.00    +0.000 A 
ATOM     21  C   UNL     1       3.081   4.235  19.331  0.00  0.00    +0.000 A 
ATOM     22  C   UNL     1       3.635   5.335  18.657  0.00  0.00    +0.000 A 
ATOM     23  C   UNL     1       3.165   6.611  19.026  0.00  0.00    +0.000 A 
BRANCH  22  24
ATOM     24  C   UNL     1       4.682   5.176  17.616  0.00  0.00    +0.000 A 
ATOM     25  C   UNL     1       4.583   4.186  16.620  0.00  0.00    +0.000 A 
ATOM     26  C   UNL     1       5.552   4.049  15.620  0.00  0.00    +0.000 A 
ATOM     27  C   UNL     1       6.657   4.891  15.601  0.00  0.00    +0.000 A 
ATOM     28  C   UNL     1       6.790   5.873  16.577  0.00  0.00    +0.000 A 
ATOM     29  C   UNL     1       5.812   6.016  17.569  0.00  0.00    +0.000 A 
ENDBRANCH  22  24
ENDBRANCH  17  18
ENDBRANCH   7  17
TORSDOF 4
ENDMDL
MODEL 8
REMARK VINA RESULT:      -9.1      3.883     10.330
REMARK  Name = 
REMARK  4 active torsions:
REMARK  status: ('A' for Active; 'I' for Inactive)
REMARK    1  A    between atoms: N_3  and  C_4
REMARK    2  A    between atoms: N_13  and  C_14
REMARK    3  A    between atoms: C_14  and  C_15
REMARK    4  A    between atoms: C_19  and  C_20
REMARK                            x       y       z     vdW  Elec       q    Type
REMARK                         _______ _______ _______ _____ _____    ______ ____
ROOT
ATOM      1  O   UNL     1       2.015   6.275  20.774  0.00  0.00    +0.000 OA
ATOM      2  C   UNL     1       2.067   7.038  19.812  0.00  0.00    +0.000 C 
ATOM      3  N   UNL     1       2.490   6.657  18.559  0.00  0.00    +0.000 N 
ATOM      4  N   UNL     1       1.677   8.362  19.937  0.00  0.00    +0.000 N 
ATOM      5  C   UNL     1       1.646   9.400  18.897  0.00  0.00    +0.000 C 
ATOM      6  C   UNL     1       0.271  10.107  18.830  0.00  0.00    +0.000 C 
ATOM      7  N   UNL     1      -0.251  10.588  20.133  0.00  0.00    +0.000 NA
ATOM      8  C   UNL     1      -0.230   9.448  21.081  0.00  0.00    +0.000 C 
ATOM      9  C   UNL     1       1.152   8.792  21.240  0.00  0.00    +0.000 C 
ATOM     10  H   UNL     1       2.817   7.387  17.949  0.00  0.00    +0.000 HD
ENDROOT
BRANCH   3  11
ATOM     11  C   UNL     1       2.769   5.341  18.131  0.00  0.00    +0.000 A 
ATOM     12  C   UNL     1       1.802   4.342  18.005  0.00  0.00    +0.000 A 
ATOM     13  C   UNL     1       2.157   3.048  17.627  0.00  0.00    +0.000 A 
ATOM     14  C   UNL     1       3.485   2.741  17.351  0.00  0.00    +0.000 A 
ATOM     15  C   UNL     1       4.458   3.736  17.431  0.00  0.00    +0.000 A 
ATOM     16  C   UNL     1       4.101   5.033  17.816  0.00  0.00    +0.000 A 
ENDBRANCH   3  11
BRANCH   7  17
ATOM     17  C   UNL     1       0.541  11.741  20.598  0.00  0.00    +0.000 C 
BRANCH  17  18
ATOM     18  C   UNL     1      -0.163  13.080  20.559  0.00  0.00    +0.000 A 
ATOM     19  C   UNL     1      -1.310  13.319  21.321  0.00  0.00    +0.000 A 
ATOM     20  C   UNL     1      -1.989  14.529  21.197  0.00  0.00    +0.000 A 
ATOM     21  C   UNL     1      -1.522  15.515  20.319  0.00  0.00    +0.000 A 
ATOM     22  C   UNL     1      -0.369  15.319  19.541  0.00  0.00    +0.000 A 
ATOM     23  C   UNL     1       0.292  14.083  19.681  0.00  0.00    +0.000 A 
BRANCH  22  24
ATOM     24  C   UNL     1       0.129  16.351  18.597  0.00  0.00    +0.000 A 
ATOM     25  C   UNL     1      -0.741  17.289  18.008  0.00  0.00    +0.000 A 
ATOM     26  C   UNL     1      -0.274  18.281  17.140  0.00  0.00    +0.000 A 
ATOM     27  C   UNL     1       1.078  18.351  16.823  0.00  0.00    +0.000 A 
ATOM     28  C   UNL     1       1.961  17.432  17.380  0.00  0.00    +0.000 A 
ATOM     29  C   UNL     1       1.492  16.449  18.259  0.00  0.00    +0.000 A 
ENDBRANCH  22  24
ENDBRANCH  17  18
ENDBRANCH   7  17
TORSDOF 4
ENDMDL
MODEL 9
REMARK VINA RESULT:      -9.1      3.687      5.852
REMARK  Name = 
REMARK  4 active torsions:
REMARK  status: ('A' for Active; 'I' for Inactive)
REMARK    1  A    between atoms: N_3  and  C_4
REMARK    2  A    between atoms: N_13  and  C_14
REMARK    3  A    between atoms: C_14  and  C_15
REMARK    4  A    between atoms: C_19  and  C_20
REMARK                            x       y       z     vdW  Elec       q    Type
REMARK                         _______ _______ _______ _____ _____    ______ ____
ROOT
ATOM      1  O   UNL     1       1.704  13.358  17.594  0.00  0.00    +0.000 OA
ATOM      2  C   UNL     1       1.388  13.267  18.778  0.00  0.00    +0.000 C 
ATOM      3  N   UNL     1       0.996  14.338  19.546  0.00  0.00    +0.000 N 
ATOM      4  N   UNL     1       1.395  12.039  19.420  0.00  0.00    +0.000 N 
ATOM      5  C   UNL     1       1.023  11.741  20.810  0.00  0.00    +0.000 C 
ATOM      6  C   UNL     1      -0.005  10.587  20.896  0.00  0.00    +0.000 C 
ATOM      7  N   UNL     1       0.351   9.370  20.126  0.00  0.00    +0.000 NA
ATOM      8  C   UNL     1       0.646   9.782  18.732  0.00  0.00    +0.000 C 
ATOM      9  C   UNL     1       1.739  10.858  18.616  0.00  0.00    +0.000 C 
ATOM     10  H   UNL     1       1.086  14.240  20.543  0.00  0.00    +0.000 HD
ENDROOT
BRANCH   3  11
ATOM     11  C   UNL     1       0.738  15.650  19.090  0.00  0.00    +0.000 A 
ATOM     12  C   UNL     1       1.737  16.560  18.738  0.00  0.00    +0.000 A 
ATOM     13  C   UNL     1       1.412  17.859  18.346  0.00  0.00    +0.000 A 
ATOM     14  C   UNL     1       0.081  18.257  18.282  0.00  0.00    +0.000 A 
ATOM     15  C   UNL     1      -0.930  17.348  18.590  0.00  0.00    +0.000 A 
ATOM     16  C   UNL     1      -0.603  16.048  18.989  0.00  0.00    +0.000 A 
ENDBRANCH   3  11
BRANCH   7  17
ATOM     17  C   UNL     1       1.480   8.676  20.774  0.00  0.00    +0.000 C 
BRANCH  17  18
ATOM     18  C   UNL     1       1.759   7.274  20.279  0.00  0.00    +0.000 A 
ATOM     19  C   UNL     1       1.252   6.155  20.946  0.00  0.00    +0.000 A 
ATOM     20  C   UNL     1       1.599   4.875  20.521  0.00  0.00    +0.000 A 
ATOM     21  C   UNL     1       2.447   4.701  19.419  0.00  0.00    +0.000 A 
ATOM     22  C   UNL     1       2.971   5.798  18.716  0.00  0.00    +0.000 A 
ATOM     23  C   UNL     1       2.610   7.080  19.174  0.00  0.00    +0.000 A 
BRANCH  22  24
ATOM     24  C   UNL     1       3.880   5.627  17.555  0.00  0.00    +0.000 A 
ATOM     25  C   UNL     1       4.260   4.349  17.101  0.00  0.00    +0.000 A 
ATOM     26  C   UNL     1       5.094   4.181  15.991  0.00  0.00    +0.000 A 
ATOM     27  C   UNL     1       5.585   5.291  15.314  0.00  0.00    +0.000 A 
ATOM     28  C   UNL     1       5.238   6.567  15.743  0.00  0.00    +0.000 A 
ATOM     29  C   UNL     1       4.392   6.731  16.847  0.00  0.00    +0.000 A 
ENDBRANCH  22  24
ENDBRANCH  17  18
ENDBRANCH   7  17
TORSDOF 4
ENDMDL
