MODEL 1
REMARK VINA RESULT:      -7.8      0.000      0.000
REMARK  Name = 
REMARK  10 active torsions:
REMARK  status: ('A' for Active; 'I' for Inactive)
REMARK    1  A    between atoms: C_1  and  O_2
REMARK    2  A    between atoms: O_2  and  C_3
REMARK    3  A    between atoms: C_6  and  N_7
REMARK    4  A    between atoms: N_10  and  C_11
REMARK    5  A    between atoms: C_11  and  C_12
REMARK    6  A    between atoms: C_12  and  C_13
REMARK    7  A    between atoms: C_13  and  C_14
REMARK    8  A    between atoms: C_14  and  N_15
REMARK    9  A    between atoms: C_16  and  C_18
REMARK   10  A    between atoms: C_21  and  N_22
REMARK                            x       y       z     vdW  Elec       q    Type
REMARK                         _______ _______ _______ _____ _____    ______ ____
ROOT
ATOM      1  C   UNL     1       0.738   4.111  20.368  0.00  0.00    +0.000 C 
ENDROOT
BRANCH   1   2
ATOM      2  C   UNL     1       1.159   3.247  19.179  0.00  0.00    +0.000 C 
BRANCH   2   3
ATOM      3  C   UNL     1       1.904   1.966  19.578  0.00  0.00    +0.000 C 
BRANCH   3   7
ATOM      4  N   UNL     1       4.538   4.084  18.333  0.00  0.00    +0.000 N 
ATOM      5  C   UNL     1       3.260   3.948  17.628  0.00  0.00    +0.000 C 
ATOM      6  C   UNL     1       2.957   2.445  17.414  0.00  0.00    +0.000 C 
ATOM      7  N   UNL     1       2.990   1.617  18.648  0.00  0.00    +0.000 NA
ATOM      8  C   UNL     1       4.316   1.819  19.288  0.00  0.00    +0.000 C 
ATOM      9  C   UNL     1       4.677   3.297  19.568  0.00  0.00    +0.000 C 
BRANCH   4  13
ATOM     10  C   UNL     1       7.273   7.177  17.492  0.00  0.00    +0.000 A 
ATOM     11  C   UNL     1       6.002   7.195  16.921  0.00  0.00    +0.000 A 
ATOM     12  C   UNL     1       5.079   6.182  17.208  0.00  0.00    +0.000 A 
ATOM     13  C   UNL     1       5.402   5.127  18.068  0.00  0.00    +0.000 A 
ATOM     14  C   UNL     1       6.692   5.123  18.617  0.00  0.00    +0.000 A 
ATOM     15  C   UNL     1       7.621   6.128  18.334  0.00  0.00    +0.000 A 
BRANCH  10  17
ATOM     16  C   UNL     1       8.229   9.244  18.094  0.00  0.00    +0.000 C 
ATOM     17  O   UNL     1       8.101   8.202  17.133  0.00  0.00    +0.000 OA
ENDBRANCH  10  17
ENDBRANCH   4  13
ENDBRANCH   3   7
ENDBRANCH   2   3
ENDBRANCH   1   2
BRANCH   1  18
ATOM     18  C   UNL     1       1.864   5.042  20.803  0.00  0.00    +0.000 C 
BRANCH  18  19
ATOM     19  N   UNL     1       1.387   6.380  21.030  0.00  0.00    +0.000 N 
ATOM     20  C   UNL     1       1.672   7.405  20.163  0.00  0.00    +0.000 C 
ATOM     21  O   UNL     1       2.324   7.282  19.133  0.00  0.00    +0.000 OA
ATOM     22  H   UNL     1       0.663   6.501  21.729  0.00  0.00    +0.000 HD
BRANCH  20  23
ATOM     23  C   UNL     1       1.103   8.724  20.541  0.00  0.00    +0.000 A 
ATOM     24  C   UNL     1       0.738   9.001  21.861  0.00  0.00    +0.000 A 
ATOM     25  C   UNL     1       0.197  10.244  22.194  0.00  0.00    +0.000 A 
ATOM     26  C   UNL     1       0.025  11.227  21.210  0.00  0.00    +0.000 A 
ATOM     27  C   UNL     1       0.407  10.948  19.887  0.00  0.00    +0.000 A 
ATOM     28  C   UNL     1       0.950   9.702  19.556  0.00  0.00    +0.000 A 
BRANCH  26  29
ATOM     29  N   UNL     1      -0.522  12.497  21.555  0.00  0.00    +0.000 N 
ATOM     30  C   UNL     1      -0.884  13.511  20.696  0.00  0.00    +0.000 A 
ATOM     31  C   UNL     1      -1.366  14.527  21.484  0.00  0.00    +0.000 A 
ATOM     32  N   UNL     1      -1.309  14.186  22.803  0.00  0.00    +0.000 NA
ATOM     33  C   UNL     1      -0.801  12.973  22.818  0.00  0.00    +0.000 A 
ENDBRANCH  26  29
ENDBRANCH  20  23
ENDBRANCH  18  19
ENDBRANCH   1  18
TORSDOF 9
ENDMDL
MODEL 2
REMARK VINA RESULT:      -7.8      0.955      1.595
REMARK  Name = 
REMARK  10 active torsions:
REMARK  status: ('A' for Active; 'I' for Inactive)
REMARK    1  A    between atoms: C_1  and  O_2
REMARK    2  A    between atoms: O_2  and  C_3
REMARK    3  A    between atoms: C_6  and  N_7
REMARK    4  A    between atoms: N_10  and  C_11
REMARK    5  A    between atoms: C_11  and  C_12
REMARK    6  A    between atoms: C_12  and  C_13
REMARK    7  A    between atoms: C_13  and  C_14
REMARK    8  A    between atoms: C_14  and  N_15
REMARK    9  A    between atoms: C_16  and  C_18
REMARK   10  A    between atoms: C_21  and  N_22
REMARK                            x       y       z     vdW  Elec       q    Type
REMARK                         _______ _______ _______ _____ _____    ______ ____
ROOT
ATOM      1  C   UNL     1       1.086   4.322  20.580  0.00  0.00    +0.000 C 
ENDROOT
BRANCH   1   2
ATOM      2  C   UNL     1       1.660   2.905  20.622  0.00  0.00    +0.000 C 
BRANCH   2   3
ATOM      3  C   UNL     1       1.555   2.156  19.285  0.00  0.00    +0.000 C 
BRANCH   3   7
ATOM      4  N   UNL     1       4.458   4.012  18.233  0.00  0.00    +0.000 N 
ATOM      5  C   UNL     1       3.416   3.605  17.284  0.00  0.00    +0.000 C 
ATOM      6  C   UNL     1       3.162   2.085  17.432  0.00  0.00    +0.000 C 
ATOM      7  N   UNL     1       2.847   1.635  18.814  0.00  0.00    +0.000 NA
ATOM      8  C   UNL     1       3.953   2.090  19.696  0.00  0.00    +0.000 C 
ATOM      9  C   UNL     1       4.245   3.607  19.631  0.00  0.00    +0.000 C 
BRANCH   4  13
ATOM     10  C   UNL     1       7.160   7.103  17.289  0.00  0.00    +0.000 A 
ATOM     11  C   UNL     1       7.449   6.215  18.323  0.00  0.00    +0.000 A 
ATOM     12  C   UNL     1       6.568   5.172  18.633  0.00  0.00    +0.000 A 
ATOM     13  C   UNL     1       5.376   4.994  17.922  0.00  0.00    +0.000 A 
ATOM     14  C   UNL     1       5.100   5.910  16.897  0.00  0.00    +0.000 A 
ATOM     15  C   UNL     1       5.973   6.955  16.582  0.00  0.00    +0.000 A 
BRANCH  10  17
ATOM     16  C   UNL     1       8.135   9.091  18.093  0.00  0.00    +0.000 C 
ATOM     17  O   UNL     1       8.079   8.092  17.080  0.00  0.00    +0.000 OA
ENDBRANCH  10  17
ENDBRANCH   4  13
ENDBRANCH   3   7
ENDBRANCH   2   3
ENDBRANCH   1   2
BRANCH   1  18
ATOM     18  C   UNL     1       2.061   5.333  21.170  0.00  0.00    +0.000 C 
BRANCH  18  19
ATOM     19  N   UNL     1       1.592   6.682  21.003  0.00  0.00    +0.000 N 
ATOM     20  C   UNL     1       1.949   7.441  19.917  0.00  0.00    +0.000 C 
ATOM     21  O   UNL     1       2.665   7.052  19.003  0.00  0.00    +0.000 OA
ATOM     22  H   UNL     1       0.826   6.982  21.595  0.00  0.00    +0.000 HD
BRANCH  20  23
ATOM     23  C   UNL     1       1.378   8.812  19.895  0.00  0.00    +0.000 A 
ATOM     24  C   UNL     1       1.397   9.584  18.730  0.00  0.00    +0.000 A 
ATOM     25  C   UNL     1       0.864  10.873  18.733  0.00  0.00    +0.000 A 
ATOM     26  C   UNL     1       0.295  11.402  19.900  0.00  0.00    +0.000 A 
ATOM     27  C   UNL     1       0.266  10.616  21.065  0.00  0.00    +0.000 A 
ATOM     28  C   UNL     1       0.800   9.324  21.059  0.00  0.00    +0.000 A 
BRANCH  26  29
ATOM     29  N   UNL     1      -0.255  12.716  19.897  0.00  0.00    +0.000 N 
ATOM     30  C   UNL     1       0.352  13.873  19.462  0.00  0.00    +0.000 A 
ATOM     31  C   UNL     1      -0.565  14.880  19.645  0.00  0.00    +0.000 A 
ATOM     32  N   UNL     1      -1.717  14.392  20.185  0.00  0.00    +0.000 NA
ATOM     33  C   UNL     1      -1.506  13.101  20.327  0.00  0.00    +0.000 A 
ENDBRANCH  26  29
ENDBRANCH  20  23
ENDBRANCH  18  19
ENDBRANCH   1  18
TORSDOF 9
ENDMDL
MODEL 3
REMARK VINA RESULT:      -7.7      2.060      2.593
REMARK  Name = 
REMARK  10 active torsions:
REMARK  status: ('A' for Active; 'I' for Inactive)
REMARK    1  A    between atoms: C_1  and  O_2
REMARK    2  A    between atoms: O_2  and  C_3
REMARK    3  A    between atoms: C_6  and  N_7
REMARK    4  A    between atoms: N_10  and  C_11
REMARK    5  A    between atoms: C_11  and  C_12
REMARK    6  A    between atoms: C_12  and  C_13
REMARK    7  A    between atoms: C_13  and  C_14
REMARK    8  A    between atoms: C_14  and  N_15
REMARK    9  A    between atoms: C_16  and  C_18
REMARK   10  A    between atoms: C_21  and  N_22
REMARK                            x       y       z     vdW  Elec       q    Type
REMARK                         _______ _______ _______ _____ _____    ______ ____
ROOT
ATOM      1  C   UNL     1       1.616   5.845  19.760  0.00  0.00    +0.000 C 
ENDROOT
BRANCH   1   2
ATOM      2  C   UNL     1       1.966   4.638  20.632  0.00  0.00    +0.000 C 
BRANCH   2   3
ATOM      3  C   UNL     1       1.370   3.317  20.127  0.00  0.00    +0.000 C 
BRANCH   3   7
ATOM      4  N   UNL     1       4.171   3.648  17.885  0.00  0.00    +0.000 N 
ATOM      5  C   UNL     1       2.868   3.156  17.425  0.00  0.00    +0.000 C 
ATOM      6  C   UNL     1       2.412   1.995  18.341  0.00  0.00    +0.000 C 
ATOM      7  N   UNL     1       2.393   2.313  19.793  0.00  0.00    +0.000 NA
ATOM      8  C   UNL     1       3.748   2.799  20.164  0.00  0.00    +0.000 C 
ATOM      9  C   UNL     1       4.261   3.985  19.315  0.00  0.00    +0.000 C 
BRANCH   4  13
ATOM     10  C   UNL     1       6.997   5.031  15.083  0.00  0.00    +0.000 A 
ATOM     11  C   UNL     1       6.866   5.668  16.315  0.00  0.00    +0.000 A 
ATOM     12  C   UNL     1       5.944   5.205  17.262  0.00  0.00    +0.000 A 
ATOM     13  C   UNL     1       5.127   4.099  17.000  0.00  0.00    +0.000 A 
ATOM     14  C   UNL     1       5.267   3.486  15.747  0.00  0.00    +0.000 A 
ATOM     15  C   UNL     1       6.183   3.942  14.796  0.00  0.00    +0.000 A 
BRANCH  10  17
ATOM     16  C   UNL     1       7.789   5.167  12.869  0.00  0.00    +0.000 C 
ATOM     17  O   UNL     1       7.914   5.572  14.227  0.00  0.00    +0.000 OA
ENDBRANCH  10  17
ENDBRANCH   4  13
ENDBRANCH   3   7
ENDBRANCH   2   3
ENDBRANCH   1   2
BRANCH   1  18
ATOM     18  C   UNL     1       2.394   7.083  20.187  0.00  0.00    +0.000 C 
BRANCH  18  19
ATOM     19  N   UNL     1       1.548   8.038  20.851  0.00  0.00    +0.000 N 
ATOM     20  C   UNL     1       1.098   9.168  20.216  0.00  0.00    +0.000 C 
ATOM     21  O   UNL     1       1.350   9.457  19.052  0.00  0.00    +0.000 OA
ATOM     22  H   UNL     1       1.123   7.751  21.725  0.00  0.00    +0.000 HD
BRANCH  20  23
ATOM     23  C   UNL     1       0.233  10.050  21.040  0.00  0.00    +0.000 A 
ATOM     24  C   UNL     1      -0.129   9.694  22.341  0.00  0.00    +0.000 A 
ATOM     25  C   UNL     1      -0.951  10.533  23.096  0.00  0.00    +0.000 A 
ATOM     26  C   UNL     1      -1.410  11.744  22.559  0.00  0.00    +0.000 A 
ATOM     27  C   UNL     1      -1.031  12.103  21.255  0.00  0.00    +0.000 A 
ATOM     28  C   UNL     1      -0.207  11.261  20.501  0.00  0.00    +0.000 A 
BRANCH  26  29
ATOM     29  N   UNL     1      -2.243  12.600  23.335  0.00  0.00    +0.000 N 
ATOM     30  C   UNL     1      -3.521  12.343  23.780  0.00  0.00    +0.000 A 
ATOM     31  C   UNL     1      -3.910  13.452  24.491  0.00  0.00    +0.000 A 
ATOM     32  N   UNL     1      -2.924  14.393  24.498  0.00  0.00    +0.000 NA
ATOM     33  C   UNL     1      -1.942  13.862  23.802  0.00  0.00    +0.000 A 
ENDBRANCH  26  29
ENDBRANCH  20  23
ENDBRANCH  18  19
ENDBRANCH   1  18
TORSDOF 9
ENDMDL
MODEL 4
REMARK VINA RESULT:      -7.5      2.367      3.082
REMARK  Name = 
REMARK  10 active torsions:
REMARK  status: ('A' for Active; 'I' for Inactive)
REMARK    1  A    between atoms: C_1  and  O_2
REMARK    2  A    between atoms: O_2  and  C_3
REMARK    3  A    between atoms: C_6  and  N_7
REMARK    4  A    between atoms: N_10  and  C_11
REMARK    5  A    between atoms: C_11  and  C_12
REMARK    6  A    between atoms: C_12  and  C_13
REMARK    7  A    between atoms: C_13  and  C_14
REMARK    8  A    between atoms: C_14  and  N_15
REMARK    9  A    between atoms: C_16  and  C_18
REMARK   10  A    between atoms: C_21  and  N_22
REMARK                            x       y       z     vdW  Elec       q    Type
REMARK                         _______ _______ _______ _____ _____    ______ ____
ROOT
ATOM      1  C   UNL     1       1.387   6.313  20.120  0.00  0.00    +0.000 C 
ENDROOT
BRANCH   1   2
ATOM      2  C   UNL     1       1.837   4.962  20.675  0.00  0.00    +0.000 C 
BRANCH   2   3
ATOM      3  C   UNL     1       1.284   3.759  19.898  0.00  0.00    +0.000 C 
BRANCH   3   7
ATOM      4  N   UNL     1       4.148   3.879  17.716  0.00  0.00    +0.000 N 
ATOM      5  C   UNL     1       2.846   3.386  17.254  0.00  0.00    +0.000 C 
ATOM      6  C   UNL     1       2.340   2.298  18.233  0.00  0.00    +0.000 C 
ATOM      7  N   UNL     1       2.291   2.713  19.660  0.00  0.00    +0.000 NA
ATOM      8  C   UNL     1       3.647   3.193  20.034  0.00  0.00    +0.000 C 
ATOM      9  C   UNL     1       4.209   4.308  19.122  0.00  0.00    +0.000 C 
BRANCH   4  13
ATOM     10  C   UNL     1       7.072   5.038  14.913  0.00  0.00    +0.000 A 
ATOM     11  C   UNL     1       7.081   5.581  16.196  0.00  0.00    +0.000 A 
ATOM     12  C   UNL     1       6.126   5.188  17.142  0.00  0.00    +0.000 A 
ATOM     13  C   UNL     1       5.137   4.249  16.829  0.00  0.00    +0.000 A 
ATOM     14  C   UNL     1       5.139   3.730  15.526  0.00  0.00    +0.000 A 
ATOM     15  C   UNL     1       6.087   4.117  14.576  0.00  0.00    +0.000 A 
BRANCH  10  17
ATOM     16  C   UNL     1       7.834   5.191  12.690  0.00  0.00    +0.000 C 
ATOM     17  O   UNL     1       8.037   5.500  14.064  0.00  0.00    +0.000 OA
ENDBRANCH  10  17
ENDBRANCH   4  13
ENDBRANCH   3   7
ENDBRANCH   2   3
ENDBRANCH   1   2
BRANCH   1  18
ATOM     18  C   UNL     1       1.804   7.457  21.037  0.00  0.00    +0.000 C 
BRANCH  18  19
ATOM     19  N   UNL     1       0.827   8.512  21.046  0.00  0.00    +0.000 N 
ATOM     20  C   UNL     1       0.737   9.402  22.087  0.00  0.00    +0.000 C 
ATOM     21  O   UNL     1       1.467   9.397  23.071  0.00  0.00    +0.000 OA
ATOM     22  H   UNL     1       0.352   8.711  20.174  0.00  0.00    +0.000 HD
BRANCH  20  23
ATOM     23  C   UNL     1      -0.324  10.432  21.942  0.00  0.00    +0.000 A 
ATOM     24  C   UNL     1      -0.626  10.987  20.696  0.00  0.00    +0.000 A 
ATOM     25  C   UNL     1      -1.619  11.961  20.583  0.00  0.00    +0.000 A 
ATOM     26  C   UNL     1      -2.330  12.382  21.716  0.00  0.00    +0.000 A 
ATOM     27  C   UNL     1      -2.032  11.810  22.964  0.00  0.00    +0.000 A 
ATOM     28  C   UNL     1      -1.036  10.834  23.074  0.00  0.00    +0.000 A 
BRANCH  26  29
ATOM     29  N   UNL     1      -3.348  13.371  21.595  0.00  0.00    +0.000 N 
ATOM     30  C   UNL     1      -4.567  13.241  20.967  0.00  0.00    +0.000 A 
ATOM     31  C   UNL     1      -5.206  14.447  21.118  0.00  0.00    +0.000 A 
ATOM     32  N   UNL     1      -4.427  15.325  21.811  0.00  0.00    +0.000 NA
ATOM     33  C   UNL     1      -3.325  14.660  22.082  0.00  0.00    +0.000 A 
ENDBRANCH  26  29
ENDBRANCH  20  23
ENDBRANCH  18  19
ENDBRANCH   1  18
TORSDOF 9
ENDMDL
MODEL 5
REMARK VINA RESULT:      -7.5      0.982      1.553
REMARK  Name = 
REMARK  10 active torsions:
REMARK  status: ('A' for Active; 'I' for Inactive)
REMARK    1  A    between atoms: C_1  and  O_2
REMARK    2  A    between atoms: O_2  and  C_3
REMARK    3  A    between atoms: C_6  and  N_7
REMARK    4  A    between atoms: N_10  and  C_11
REMARK    5  A    between atoms: C_11  and  C_12
REMARK    6  A    between atoms: C_12  and  C_13
REMARK    7  A    between atoms: C_13  and  C_14
REMARK    8  A    between atoms: C_14  and  N_15
REMARK    9  A    between atoms: C_16  and  C_18
REMARK   10  A    between atoms: C_21  and  N_22
REMARK                            x       y       z     vdW  Elec       q    Type
REMARK                         _______ _______ _______ _____ _____    ______ ____
ROOT
ATOM      1  C   UNL     1       1.247   4.494  20.773  0.00  0.00    +0.000 C 
ENDROOT
BRANCH   1   2
ATOM      2  C   UNL     1       1.128   3.607  19.534  0.00  0.00    +0.000 C 
BRANCH   2   3
ATOM      3  C   UNL     1       1.719   2.202  19.720  0.00  0.00    +0.000 C 
BRANCH   3   7
ATOM      4  N   UNL     1       4.395   4.114  18.249  0.00  0.00    +0.000 N 
ATOM      5  C   UNL     1       3.028   4.167  17.721  0.00  0.00    +0.000 C 
ATOM      6  C   UNL     1       2.528   2.725  17.463  0.00  0.00    +0.000 C 
ATOM      7  N   UNL     1       2.627   1.809  18.631  0.00  0.00    +0.000 NA
ATOM      8  C   UNL     1       4.039   1.822  19.092  0.00  0.00    +0.000 C 
ATOM      9  C   UNL     1       4.602   3.227  19.405  0.00  0.00    +0.000 C 
BRANCH   4  13
ATOM     10  C   UNL     1       7.184   7.140  17.347  0.00  0.00    +0.000 A 
ATOM     11  C   UNL     1       7.621   5.914  17.842  0.00  0.00    +0.000 A 
ATOM     12  C   UNL     1       6.704   4.894  18.127  0.00  0.00    +0.000 A 
ATOM     13  C   UNL     1       5.331   5.075  17.930  0.00  0.00    +0.000 A 
ATOM     14  C   UNL     1       4.916   6.324  17.446  0.00  0.00    +0.000 A 
ATOM     15  C   UNL     1       5.823   7.348  17.161  0.00  0.00    +0.000 A 
BRANCH  10  17
ATOM     16  C   UNL     1       8.052   9.262  17.890  0.00  0.00    +0.000 C 
ATOM     17  O   UNL     1       8.158   8.070  17.118  0.00  0.00    +0.000 OA
ENDBRANCH  10  17
ENDBRANCH   4  13
ENDBRANCH   3   7
ENDBRANCH   2   3
ENDBRANCH   1   2
BRANCH   1  18
ATOM     18  C   UNL     1       1.970   5.797  20.455  0.00  0.00    +0.000 C 
BRANCH  18  19
ATOM     19  N   UNL     1       1.188   6.944  20.833  0.00  0.00    +0.000 N 
ATOM     20  C   UNL     1       1.394   8.176  20.266  0.00  0.00    +0.000 C 
ATOM     21  O   UNL     1       2.225   8.411  19.396  0.00  0.00    +0.000 OA
ATOM     22  H   UNL     1       0.346   6.773  21.370  0.00  0.00    +0.000 HD
BRANCH  20  23
ATOM     23  C   UNL     1       0.502   9.254  20.764  0.00  0.00    +0.000 A 
ATOM     24  C   UNL     1      -0.118  10.144  19.884  0.00  0.00    +0.000 A 
ATOM     25  C   UNL     1      -0.945  11.156  20.374  0.00  0.00    +0.000 A 
ATOM     26  C   UNL     1      -1.169  11.281  21.752  0.00  0.00    +0.000 A 
ATOM     27  C   UNL     1      -0.554  10.375  22.631  0.00  0.00    +0.000 A 
ATOM     28  C   UNL     1       0.274   9.362  22.138  0.00  0.00    +0.000 A 
BRANCH  26  29
ATOM     29  N   UNL     1      -2.019  12.311  22.247  0.00  0.00    +0.000 N 
ATOM     30  C   UNL     1      -2.395  13.467  21.599  0.00  0.00    +0.000 A 
ATOM     31  C   UNL     1      -3.223  14.140  22.465  0.00  0.00    +0.000 A 
ATOM     32  N   UNL     1      -3.370  13.448  23.630  0.00  0.00    +0.000 NA
ATOM     33  C   UNL     1      -2.642  12.364  23.476  0.00  0.00    +0.000 A 
ENDBRANCH  26  29
ENDBRANCH  20  23
ENDBRANCH  18  19
ENDBRANCH   1  18
TORSDOF 9
ENDMDL
MODEL 6
REMARK VINA RESULT:      -7.3      3.082      3.734
REMARK  Name = 
REMARK  10 active torsions:
REMARK  status: ('A' for Active; 'I' for Inactive)
REMARK    1  A    between atoms: C_1  and  O_2
REMARK    2  A    between atoms: O_2  and  C_3
REMARK    3  A    between atoms: C_6  and  N_7
REMARK    4  A    between atoms: N_10  and  C_11
REMARK    5  A    between atoms: C_11  and  C_12
REMARK    6  A    between atoms: C_12  and  C_13
REMARK    7  A    between atoms: C_13  and  C_14
REMARK    8  A    between atoms: C_14  and  N_15
REMARK    9  A    between atoms: C_16  and  C_18
REMARK   10  A    between atoms: C_21  and  N_22
REMARK                            x       y       z     vdW  Elec       q    Type
REMARK                         _______ _______ _______ _____ _____    ______ ____
ROOT
ATOM      1  C   UNL     1       1.854   6.783  20.407  0.00  0.00    +0.000 C 
ENDROOT
BRANCH   1   2
ATOM      2  C   UNL     1       1.259   5.393  20.634  0.00  0.00    +0.000 C 
BRANCH   2   3
ATOM      3  C   UNL     1       2.310   4.308  20.912  0.00  0.00    +0.000 C 
BRANCH   3   7
ATOM      4  N   UNL     1       4.347   4.188  17.943  0.00  0.00    +0.000 N 
ATOM      5  C   UNL     1       3.013   4.799  17.940  0.00  0.00    +0.000 C 
ATOM      6  C   UNL     1       1.995   3.795  18.533  0.00  0.00    +0.000 C 
ATOM      7  N   UNL     1       2.348   3.264  19.876  0.00  0.00    +0.000 NA
ATOM      8  C   UNL     1       3.706   2.669  19.780  0.00  0.00    +0.000 C 
ATOM      9  C   UNL     1       4.790   3.623  19.227  0.00  0.00    +0.000 C 
BRANCH   4  13
ATOM     10  C   UNL     1       7.028   5.002  14.797  0.00  0.00    +0.000 A 
ATOM     11  C   UNL     1       7.354   5.363  16.102  0.00  0.00    +0.000 A 
ATOM     12  C   UNL     1       6.479   5.080  17.159  0.00  0.00    +0.000 A 
ATOM     13  C   UNL     1       5.257   4.435  16.937  0.00  0.00    +0.000 A 
ATOM     14  C   UNL     1       4.945   4.097  15.612  0.00  0.00    +0.000 A 
ATOM     15  C   UNL     1       5.811   4.377  14.552  0.00  0.00    +0.000 A 
BRANCH  10  17
ATOM     16  C   UNL     1       7.611   4.937  12.516  0.00  0.00    +0.000 C 
ATOM     17  O   UNL     1       7.943   5.338  13.840  0.00  0.00    +0.000 OA
ENDBRANCH  10  17
ENDBRANCH   4  13
ENDBRANCH   3   7
ENDBRANCH   2   3
ENDBRANCH   1   2
BRANCH   1  18
ATOM     18  C   UNL     1       1.090   7.847  21.185  0.00  0.00    +0.000 C 
BRANCH  18  19
ATOM     19  N   UNL     1       1.369   9.169  20.689  0.00  0.00    +0.000 N 
ATOM     20  C   UNL     1       0.430  10.168  20.734  0.00  0.00    +0.000 C 
ATOM     21  O   UNL     1      -0.696  10.044  21.202  0.00  0.00    +0.000 OA
ATOM     22  H   UNL     1       2.337   9.398  20.503  0.00  0.00    +0.000 HD
BRANCH  20  23
ATOM     23  C   UNL     1       0.876  11.473  20.183  0.00  0.00    +0.000 A 
ATOM     24  C   UNL     1       0.633  12.667  20.867  0.00  0.00    +0.000 A 
ATOM     25  C   UNL     1       1.052  13.884  20.327  0.00  0.00    +0.000 A 
ATOM     26  C   UNL     1       1.730  13.918  19.101  0.00  0.00    +0.000 A 
ATOM     27  C   UNL     1       1.984  12.714  18.424  0.00  0.00    +0.000 A 
ATOM     28  C   UNL     1       1.564  11.496  18.967  0.00  0.00    +0.000 A 
BRANCH  26  29
ATOM     29  N   UNL     1       2.163  15.162  18.557  0.00  0.00    +0.000 N 
ATOM     30  C   UNL     1       3.220  15.375  17.700  0.00  0.00    +0.000 A 
ATOM     31  C   UNL     1       3.240  16.725  17.445  0.00  0.00    +0.000 A 
ATOM     32  N   UNL     1       2.240  17.360  18.119  0.00  0.00    +0.000 NA
ATOM     33  C   UNL     1       1.613  16.407  18.774  0.00  0.00    +0.000 A 
ENDBRANCH  26  29
ENDBRANCH  20  23
ENDBRANCH  18  19
ENDBRANCH   1  18
TORSDOF 9
ENDMDL
MODEL 7
REMARK VINA RESULT:      -7.3      3.851      9.177
REMARK  Name = 
REMARK  10 active torsions:
REMARK  status: ('A' for Active; 'I' for Inactive)
REMARK    1  A    between atoms: C_1  and  O_2
REMARK    2  A    between atoms: O_2  and  C_3
REMARK    3  A    between atoms: C_6  and  N_7
REMARK    4  A    between atoms: N_10  and  C_11
REMARK    5  A    between atoms: C_11  and  C_12
REMARK    6  A    between atoms: C_12  and  C_13
REMARK    7  A    between atoms: C_13  and  C_14
REMARK    8  A    between atoms: C_14  and  N_15
REMARK    9  A    between atoms: C_16  and  C_18
REMARK   10  A    between atoms: C_21  and  N_22
REMARK                            x       y       z     vdW  Elec       q    Type
REMARK                         _______ _______ _______ _____ _____    ______ ____
ROOT
ATOM      1  C   UNL     1      -0.275   9.074  21.017  0.00  0.00    +0.000 C 
ENDROOT
BRANCH   1   2
ATOM      2  C   UNL     1      -0.040  10.361  20.226  0.00  0.00    +0.000 C 
BRANCH   2   3
ATOM      3  C   UNL     1       0.376  11.555  21.098  0.00  0.00    +0.000 C 
BRANCH   3   7
ATOM      4  N   UNL     1       2.764  13.946  19.850  0.00  0.00    +0.000 N 
ATOM      5  C   UNL     1       2.270  13.997  21.230  0.00  0.00    +0.000 C 
ATOM      6  C   UNL     1       0.722  13.981  21.215  0.00  0.00    +0.000 C 
ATOM      7  N   UNL     1       0.114  12.854  20.459  0.00  0.00    +0.000 NA
ATOM      8  C   UNL     1       0.672  12.886  19.082  0.00  0.00    +0.000 C 
ATOM      9  C   UNL     1       2.216  12.868  19.012  0.00  0.00    +0.000 C 
BRANCH   4  13
ATOM     10  C   UNL     1       6.319  15.936  18.776  0.00  0.00    +0.000 A 
ATOM     11  C   UNL     1       5.581  15.256  17.810  0.00  0.00    +0.000 A 
ATOM     12  C   UNL     1       4.387  14.608  18.152  0.00  0.00    +0.000 A 
ATOM     13  C   UNL     1       3.905  14.618  19.466  0.00  0.00    +0.000 A 
ATOM     14  C   UNL     1       4.675  15.295  20.422  0.00  0.00    +0.000 A 
ATOM     15  C   UNL     1       5.868  15.944  20.091  0.00  0.00    +0.000 A 
BRANCH  10  17
ATOM     16  C   UNL     1       8.514  15.616  17.984  0.00  0.00    +0.000 C 
ATOM     17  O   UNL     1       7.474  16.520  18.341  0.00  0.00    +0.000 OA
ENDBRANCH  10  17
ENDBRANCH   4  13
ENDBRANCH   3   7
ENDBRANCH   2   3
ENDBRANCH   1   2
BRANCH   1  18
ATOM     18  C   UNL     1       1.026   8.538  21.604  0.00  0.00    +0.000 C 
BRANCH  18  19
ATOM     19  N   UNL     1       1.897   8.023  20.581  0.00  0.00    +0.000 N 
ATOM     20  C   UNL     1       2.015   6.676  20.346  0.00  0.00    +0.000 C 
ATOM     21  O   UNL     1       1.397   5.808  20.951  0.00  0.00    +0.000 OA
ATOM     22  H   UNL     1       2.256   8.684  19.904  0.00  0.00    +0.000 HD
BRANCH  20  23
ATOM     23  C   UNL     1       2.954   6.310  19.256  0.00  0.00    +0.000 A 
ATOM     24  C   UNL     1       3.213   7.187  18.200  0.00  0.00    +0.000 A 
ATOM     25  C   UNL     1       4.091   6.820  17.179  0.00  0.00    +0.000 A 
ATOM     26  C   UNL     1       4.731   5.572  17.212  0.00  0.00    +0.000 A 
ATOM     27  C   UNL     1       4.478   4.700  18.283  0.00  0.00    +0.000 A 
ATOM     28  C   UNL     1       3.597   5.071  19.304  0.00  0.00    +0.000 A 
BRANCH  26  29
ATOM     29  N   UNL     1       5.632   5.204  16.172  0.00  0.00    +0.000 N 
ATOM     30  C   UNL     1       5.386   4.357  15.115  0.00  0.00    +0.000 A 
ATOM     31  C   UNL     1       6.543   4.317  14.376  0.00  0.00    +0.000 A 
ATOM     32  N   UNL     1       7.504   5.103  14.940  0.00  0.00    +0.000 NA
ATOM     33  C   UNL     1       6.937   5.619  16.009  0.00  0.00    +0.000 A 
ENDBRANCH  26  29
ENDBRANCH  20  23
ENDBRANCH  18  19
ENDBRANCH   1  18
TORSDOF 9
ENDMDL
MODEL 8
REMARK VINA RESULT:      -7.2      3.783      9.295
REMARK  Name = 
REMARK  10 active torsions:
REMARK  status: ('A' for Active; 'I' for Inactive)
REMARK    1  A    between atoms: C_1  and  O_2
REMARK    2  A    between atoms: O_2  and  C_3
REMARK    3  A    between atoms: C_6  and  N_7
REMARK    4  A    between atoms: N_10  and  C_11
REMARK    5  A    between atoms: C_11  and  C_12
REMARK    6  A    between atoms: C_12  and  C_13
REMARK    7  A    between atoms: C_13  and  C_14
REMARK    8  A    between atoms: C_14  and  N_15
REMARK    9  A    between atoms: C_16  and  C_18
REMARK   10  A    between atoms: C_21  and  N_22
REMARK                            x       y       z     vdW  Elec       q    Type
REMARK                         _______ _______ _______ _____ _____    ______ ____
ROOT
ATOM      1  C   UNL     1       0.998   9.365  22.355  0.00  0.00    +0.000 C 
ENDROOT
BRANCH   1   2
ATOM      2  C   UNL     1      -0.030  10.404  21.906  0.00  0.00    +0.000 C 
BRANCH   2   3
ATOM      3  C   UNL     1       0.067  10.767  20.418  0.00  0.00    +0.000 C 
BRANCH   3   7
ATOM      4  N   UNL     1       1.959  13.732  19.640  0.00  0.00    +0.000 N 
ATOM      5  C   UNL     1       1.592  13.390  21.018  0.00  0.00    +0.000 C 
ATOM      6  C   UNL     1       0.067  13.128  21.085  0.00  0.00    +0.000 C 
ATOM      7  N   UNL     1      -0.437  12.117  20.119  0.00  0.00    +0.000 NA
ATOM      8  C   UNL     1      -0.019  12.547  18.760  0.00  0.00    +0.000 C 
ATOM      9  C   UNL     1       1.499  12.795  18.603  0.00  0.00    +0.000 C 
BRANCH   4  13
ATOM     10  C   UNL     1       4.896  16.633  18.796  0.00  0.00    +0.000 A 
ATOM     11  C   UNL     1       5.089  15.727  19.837  0.00  0.00    +0.000 A 
ATOM     12  C   UNL     1       4.128  14.746  20.114  0.00  0.00    +0.000 A 
ATOM     13  C   UNL     1       2.952  14.649  19.363  0.00  0.00    +0.000 A 
ATOM     14  C   UNL     1       2.774  15.582  18.332  0.00  0.00    +0.000 A 
ATOM     15  C   UNL     1       3.726  16.565  18.049  0.00  0.00    +0.000 A 
BRANCH  10  17
ATOM     16  C   UNL     1       7.190  17.129  18.998  0.00  0.00    +0.000 C 
ATOM     17  O   UNL     1       5.886  17.557  18.621  0.00  0.00    +0.000 OA
ENDBRANCH  10  17
ENDBRANCH   4  13
ENDBRANCH   3   7
ENDBRANCH   2   3
ENDBRANCH   1   2
BRANCH   1  18
ATOM     18  C   UNL     1       0.671   7.984  21.798  0.00  0.00    +0.000 C 
BRANCH  18  19
ATOM     19  N   UNL     1       1.627   7.572  20.806  0.00  0.00    +0.000 N 
ATOM     20  C   UNL     1       1.807   6.251  20.482  0.00  0.00    +0.000 C 
ATOM     21  O   UNL     1       1.179   5.323  20.977  0.00  0.00    +0.000 OA
ATOM     22  H   UNL     1       2.009   8.293  20.205  0.00  0.00    +0.000 HD
BRANCH  20  23
ATOM     23  C   UNL     1       2.831   5.995  19.437  0.00  0.00    +0.000 A 
ATOM     24  C   UNL     1       2.922   6.802  18.301  0.00  0.00    +0.000 A 
ATOM     25  C   UNL     1       3.885   6.538  17.326  0.00  0.00    +0.000 A 
ATOM     26  C   UNL     1       4.777   5.468  17.484  0.00  0.00    +0.000 A 
ATOM     27  C   UNL     1       4.690   4.668  18.635  0.00  0.00    +0.000 A 
ATOM     28  C   UNL     1       3.724   4.935  19.611  0.00  0.00    +0.000 A 
BRANCH  26  29
ATOM     29  N   UNL     1       5.763   5.206  16.490  0.00  0.00    +0.000 N 
ATOM     30  C   UNL     1       5.626   5.331  15.125  0.00  0.00    +0.000 A 
ATOM     31  C   UNL     1       6.839   4.979  14.584  0.00  0.00    +0.000 A 
ATOM     32  N   UNL     1       7.723   4.632  15.562  0.00  0.00    +0.000 NA
ATOM     33  C   UNL     1       7.057   4.774  16.688  0.00  0.00    +0.000 A 
ENDBRANCH  26  29
ENDBRANCH  20  23
ENDBRANCH  18  19
ENDBRANCH   1  18
TORSDOF 9
ENDMDL
MODEL 9
REMARK VINA RESULT:      -7.1      3.436     10.852
REMARK  Name = 
REMARK  10 active torsions:
REMARK  status: ('A' for Active; 'I' for Inactive)
REMARK    1  A    between atoms: C_1  and  O_2
REMARK    2  A    between atoms: O_2  and  C_3
REMARK    3  A    between atoms: C_6  and  N_7
REMARK    4  A    between atoms: N_10  and  C_11
REMARK    5  A    between atoms: C_11  and  C_12
REMARK    6  A    between atoms: C_12  and  C_13
REMARK    7  A    between atoms: C_13  and  C_14
REMARK    8  A    between atoms: C_14  and  N_15
REMARK    9  A    between atoms: C_16  and  C_18
REMARK   10  A    between atoms: C_21  and  N_22
REMARK                            x       y       z     vdW  Elec       q    Type
REMARK                         _______ _______ _______ _____ _____    ______ ____
ROOT
ATOM      1  C   UNL     1       1.299   8.071  21.049  0.00  0.00    +0.000 C 
ENDROOT
BRANCH   1   2
ATOM      2  C   UNL     1       1.665   8.848  19.784  0.00  0.00    +0.000 C 
BRANCH   2   3
ATOM      3  C   UNL     1       0.513   9.694  19.225  0.00  0.00    +0.000 C 
BRANCH   3   7
ATOM      4  N   UNL     1      -1.698  11.906  21.013  0.00  0.00    +0.000 N 
ATOM      5  C   UNL     1      -1.816  11.702  19.565  0.00  0.00    +0.000 C 
ATOM      6  C   UNL     1      -0.434  11.936  18.907  0.00  0.00    +0.000 C 
ATOM      7  N   UNL     1       0.678  11.134  19.482  0.00  0.00    +0.000 NA
ATOM      8  C   UNL     1       0.718  11.406  20.942  0.00  0.00    +0.000 C 
ATOM      9  C   UNL     1      -0.619  11.161  21.680  0.00  0.00    +0.000 C 
BRANCH   4  13
ATOM     10  C   UNL     1      -4.918  13.542  23.182  0.00  0.00    +0.000 A 
ATOM     11  C   UNL     1      -3.908  12.851  23.847  0.00  0.00    +0.000 A 
ATOM     12  C   UNL     1      -2.823  12.319  23.139  0.00  0.00    +0.000 A 
ATOM     13  C   UNL     1      -2.723  12.462  21.751  0.00  0.00    +0.000 A 
ATOM     14  C   UNL     1      -3.760  13.147  21.103  0.00  0.00    +0.000 A 
ATOM     15  C   UNL     1      -4.847  13.679  21.801  0.00  0.00    +0.000 A 
BRANCH  10  17
ATOM     16  C   UNL     1      -6.309  15.360  23.737  0.00  0.00    +0.000 C 
ATOM     17  O   UNL     1      -5.937  14.005  23.964  0.00  0.00    +0.000 OA
ENDBRANCH  10  17
ENDBRANCH   4  13
ENDBRANCH   3   7
ENDBRANCH   2   3
ENDBRANCH   1   2
BRANCH   1  18
ATOM     18  C   UNL     1       1.472   6.570  20.848  0.00  0.00    +0.000 C 
BRANCH  18  19
ATOM     19  N   UNL     1       2.273   6.278  19.689  0.00  0.00    +0.000 N 
ATOM     20  C   UNL     1       2.986   5.111  19.580  0.00  0.00    +0.000 C 
ATOM     21  O   UNL     1       2.996   4.222  20.424  0.00  0.00    +0.000 OA
ATOM     22  H   UNL     1       2.129   6.857  18.871  0.00  0.00    +0.000 HD
BRANCH  20  23
ATOM     23  C   UNL     1       3.759   4.963  18.321  0.00  0.00    +0.000 A 
ATOM     24  C   UNL     1       3.990   3.706  17.759  0.00  0.00    +0.000 A 
ATOM     25  C   UNL     1       4.729   3.588  16.580  0.00  0.00    +0.000 A 
ATOM     26  C   UNL     1       5.235   4.731  15.945  0.00  0.00    +0.000 A 
ATOM     27  C   UNL     1       4.988   5.994  16.508  0.00  0.00    +0.000 A 
ATOM     28  C   UNL     1       4.247   6.109  17.689  0.00  0.00    +0.000 A 
BRANCH  26  29
ATOM     29  N   UNL     1       5.982   4.607  14.739  0.00  0.00    +0.000 N 
ATOM     30  C   UNL     1       7.137   5.276  14.399  0.00  0.00    +0.000 A 
ATOM     31  C   UNL     1       7.491   4.823  13.152  0.00  0.00    +0.000 A 
ATOM     32  N   UNL     1       6.594   3.901  12.700  0.00  0.00    +0.000 NA
ATOM     33  C   UNL     1       5.705   3.791  13.662  0.00  0.00    +0.000 A 
ENDBRANCH  26  29
ENDBRANCH  20  23
ENDBRANCH  18  19
ENDBRANCH   1  18
TORSDOF 9
ENDMDL
