MODEL 1
REMARK VINA RESULT:      -7.5      0.000      0.000
REMARK  Name = 
REMARK  13 active torsions:
REMARK  status: ('A' for Active; 'I' for Inactive)
REMARK    1  A    between atoms: C_1  and  C_2
REMARK    2  A    between atoms: C_3  and  C_4
REMARK    3  A    between atoms: C_5  and  C_6
REMARK    4  A    between atoms: C_6  and  O_8
REMARK    5  A    between atoms: O_8  and  C_9
REMARK    6  A    between atoms: C_15  and  C_16
REMARK    7  A    between atoms: C_16  and  C_17
REMARK    8  A    between atoms: C_19  and  C_20
REMARK    9  A    between atoms: C_20  and  C_21
REMARK   10  A    between atoms: C_22  and  C_23
REMARK   11  A    between atoms: C_22  and  C_24
REMARK   12  A    between atoms: C_25  and  O_26
REMARK   13  A    between atoms: O_26  and  C_27
REMARK                            x       y       z     vdW  Elec       q    Type
REMARK                         _______ _______ _______ _____ _____    ______ ____
ROOT
ATOM      1  C   UNL     1       5.363   5.202  18.592  0.00  0.00    +0.000 C 
ATOM      2  C   UNL     1       4.819   3.976  19.349  0.00  0.00    +0.000 C 
ATOM      3  C   UNL     1       3.312   3.928  19.570  0.00  0.00    +0.000 C 
ATOM      4  C   UNL     1       2.540   4.439  18.399  0.00  0.00    +0.000 C 
ATOM      5  C   UNL     1       1.763   3.416  17.584  0.00  0.00    +0.000 C 
ATOM      6  O   UNL     1       1.112   4.295  18.508  0.00  0.00    +0.000 OA
ATOM      7  C   UNL     1       2.986   5.740  17.759  0.00  0.00    +0.000 C 
ATOM      8  C   UNL     1       4.487   5.650  17.396  0.00  0.00    +0.000 C 
ENDROOT
BRANCH   7   9
ATOM      9  C   UNL     1       2.594   7.017  18.519  0.00  0.00    +0.000 C 
ATOM     10  C   UNL     1       2.335   6.970  19.998  0.00  0.00    +0.000 C 
ATOM     11  O   UNL     1       3.433   8.142  18.187  0.00  0.00    +0.000 OA
ATOM     12  C   UNL     1       2.096   8.196  17.674  0.00  0.00    +0.000 C 
BRANCH  12  13
ATOM     13  C   UNL     1       1.233   9.302  18.200  0.00  0.00    +0.000 C 
BRANCH  13  14
ATOM     14  C   UNL     1      -0.142   9.367  17.596  0.00  0.00    +0.000 C 
ATOM     15  C   UNL     1      -1.174  10.128  18.009  0.00  0.00    +0.000 C 
ATOM     16  C   UNL     1      -1.152  11.002  19.231  0.00  0.00    +0.000 C 
ATOM     17  C   UNL     1      -2.472  10.137  17.247  0.00  0.00    +0.000 C 
ENDBRANCH  13  14
ENDBRANCH  12  13
ENDBRANCH   7   9
BRANCH   8  18
ATOM     18  O   UNL     1       4.654   4.693  16.321  0.00  0.00    +0.000 OA
ATOM     19  C   UNL     1       5.335   5.231  15.191  0.00  0.00    +0.000 C 
ENDBRANCH   8  18
BRANCH   1  20
ATOM     20  O   UNL     1       6.707   4.948  18.096  0.00  0.00    +0.000 OA
BRANCH  20  21
ATOM     21  C   UNL     1       7.705   5.652  18.671  0.00  0.00    +0.000 C 
ATOM     22  O   UNL     1       8.477   5.239  19.524  0.00  0.00    +0.000 OA
BRANCH  21  24
ATOM     23  C   UNL     1       8.452   8.059  18.765  0.00  0.00    +0.000 C 
ATOM     24  C   UNL     1       7.784   7.046  18.190  0.00  0.00    +0.000 C 
BRANCH  23  27
ATOM     25  C   UNL     1       9.173  11.736  17.910  0.00  0.00    +0.000 C 
ATOM     26  C   UNL     1       9.127  10.434  18.640  0.00  0.00    +0.000 C 
ATOM     27  C   UNL     1       8.499   9.363  18.137  0.00  0.00    +0.000 C 
ENDBRANCH  23  27
ENDBRANCH  21  24
ENDBRANCH  20  21
ENDBRANCH   1  20
TORSDOF 8
ENDMDL
MODEL 2
REMARK VINA RESULT:      -7.2      1.165      1.610
REMARK  Name = 
REMARK  13 active torsions:
REMARK  status: ('A' for Active; 'I' for Inactive)
REMARK    1  A    between atoms: C_1  and  C_2
REMARK    2  A    between atoms: C_3  and  C_4
REMARK    3  A    between atoms: C_5  and  C_6
REMARK    4  A    between atoms: C_6  and  O_8
REMARK    5  A    between atoms: O_8  and  C_9
REMARK    6  A    between atoms: C_15  and  C_16
REMARK    7  A    between atoms: C_16  and  C_17
REMARK    8  A    between atoms: C_19  and  C_20
REMARK    9  A    between atoms: C_20  and  C_21
REMARK   10  A    between atoms: C_22  and  C_23
REMARK   11  A    between atoms: C_22  and  C_24
REMARK   12  A    between atoms: C_25  and  O_26
REMARK   13  A    between atoms: O_26  and  C_27
REMARK                            x       y       z     vdW  Elec       q    Type
REMARK                         _______ _______ _______ _____ _____    ______ ____
ROOT
ATOM      1  C   UNL     1       5.438   4.810  18.805  0.00  0.00    +0.000 C 
ATOM      2  C   UNL     1       4.855   3.677  19.671  0.00  0.00    +0.000 C 
ATOM      3  C   UNL     1       3.343   3.676  19.858  0.00  0.00    +0.000 C 
ATOM      4  C   UNL     1       2.608   4.074  18.623  0.00  0.00    +0.000 C 
ATOM      5  C   UNL     1       1.832   2.984  17.899  0.00  0.00    +0.000 C 
ATOM      6  O   UNL     1       1.175   3.965  18.711  0.00  0.00    +0.000 OA
ATOM      7  C   UNL     1       3.091   5.295  17.863  0.00  0.00    +0.000 C 
ATOM      8  C   UNL     1       4.598   5.145  17.548  0.00  0.00    +0.000 C 
ENDROOT
BRANCH   7   9
ATOM      9  C   UNL     1       2.705   6.649  18.477  0.00  0.00    +0.000 C 
ATOM     10  C   UNL     1       2.430   6.765  19.949  0.00  0.00    +0.000 C 
ATOM     11  O   UNL     1       3.558   7.724  18.035  0.00  0.00    +0.000 OA
ATOM     12  C   UNL     1       2.227   7.736  17.504  0.00  0.00    +0.000 C 
BRANCH  12  13
ATOM     13  C   UNL     1       1.370   8.899  17.899  0.00  0.00    +0.000 C 
BRANCH  13  14
ATOM     14  C   UNL     1       2.075  10.226  17.905  0.00  0.00    +0.000 C 
ATOM     15  C   UNL     1       1.628  11.380  18.436  0.00  0.00    +0.000 C 
ATOM     16  C   UNL     1       0.273  11.563  19.056  0.00  0.00    +0.000 C 
ATOM     17  C   UNL     1       2.492  12.613  18.427  0.00  0.00    +0.000 C 
ENDBRANCH  13  14
ENDBRANCH  12  13
ENDBRANCH   7   9
BRANCH   8  18
ATOM     18  O   UNL     1       4.773   4.079  16.582  0.00  0.00    +0.000 OA
ATOM     19  C   UNL     1       4.773   4.539  15.233  0.00  0.00    +0.000 C 
ENDBRANCH   8  18
BRANCH   1  20
ATOM     20  O   UNL     1       6.788   4.485  18.371  0.00  0.00    +0.000 OA
BRANCH  20  21
ATOM     21  C   UNL     1       7.399   5.387  17.574  0.00  0.00    +0.000 C 
ATOM     22  O   UNL     1       7.634   5.250  16.382  0.00  0.00    +0.000 OA
BRANCH  21  24
ATOM     23  C   UNL     1       7.997   7.830  17.763  0.00  0.00    +0.000 C 
ATOM     24  C   UNL     1       7.814   6.609  18.292  0.00  0.00    +0.000 C 
BRANCH  23  27
ATOM     25  C   UNL     1       9.252  11.202  19.115  0.00  0.00    +0.000 C 
ATOM     26  C   UNL     1       8.980  10.058  18.195  0.00  0.00    +0.000 C 
ATOM     27  C   UNL     1       8.336   8.957  18.607  0.00  0.00    +0.000 C 
ENDBRANCH  23  27
ENDBRANCH  21  24
ENDBRANCH  20  21
ENDBRANCH   1  20
TORSDOF 8
ENDMDL
MODEL 3
REMARK VINA RESULT:      -6.9      2.820      5.017
REMARK  Name = 
REMARK  13 active torsions:
REMARK  status: ('A' for Active; 'I' for Inactive)
REMARK    1  A    between atoms: C_1  and  C_2
REMARK    2  A    between atoms: C_3  and  C_4
REMARK    3  A    between atoms: C_5  and  C_6
REMARK    4  A    between atoms: C_6  and  O_8
REMARK    5  A    between atoms: O_8  and  C_9
REMARK    6  A    between atoms: C_15  and  C_16
REMARK    7  A    between atoms: C_16  and  C_17
REMARK    8  A    between atoms: C_19  and  C_20
REMARK    9  A    between atoms: C_20  and  C_21
REMARK   10  A    between atoms: C_22  and  C_23
REMARK   11  A    between atoms: C_22  and  C_24
REMARK   12  A    between atoms: C_25  and  O_26
REMARK   13  A    between atoms: O_26  and  C_27
REMARK                            x       y       z     vdW  Elec       q    Type
REMARK                         _______ _______ _______ _____ _____    ______ ____
ROOT
ATOM      1  C   UNL     1       5.792   4.680  16.988  0.00  0.00    +0.000 C 
ATOM      2  C   UNL     1       6.461   4.467  18.358  0.00  0.00    +0.000 C 
ATOM      3  C   UNL     1       5.652   4.882  19.581  0.00  0.00    +0.000 C 
ATOM      4  C   UNL     1       4.199   4.569  19.445  0.00  0.00    +0.000 C 
ATOM      5  C   UNL     1       3.650   3.447  20.312  0.00  0.00    +0.000 C 
ATOM      6  O   UNL     1       3.413   4.825  20.624  0.00  0.00    +0.000 OA
ATOM      7  C   UNL     1       3.506   4.934  18.145  0.00  0.00    +0.000 C 
ATOM      8  C   UNL     1       4.284   4.326  16.955  0.00  0.00    +0.000 C 
ENDROOT
BRANCH   7   9
ATOM      9  C   UNL     1       3.156   6.421  17.980  0.00  0.00    +0.000 C 
ATOM     10  C   UNL     1       4.105   7.350  17.280  0.00  0.00    +0.000 C 
ATOM     11  O   UNL     1       1.808   6.627  17.513  0.00  0.00    +0.000 OA
ATOM     12  C   UNL     1       2.045   6.972  18.883  0.00  0.00    +0.000 C 
BRANCH  12  13
ATOM     13  C   UNL     1       1.887   8.419  19.235  0.00  0.00    +0.000 C 
BRANCH  13  14
ATOM     14  C   UNL     1       1.306   8.676  20.597  0.00  0.00    +0.000 C 
ATOM     15  C   UNL     1       0.209   9.401  20.887  0.00  0.00    +0.000 C 
ATOM     16  C   UNL     1      -0.595  10.169  19.877  0.00  0.00    +0.000 C 
ATOM     17  C   UNL     1      -0.290   9.501  22.304  0.00  0.00    +0.000 C 
ENDBRANCH  13  14
ENDBRANCH  12  13
ENDBRANCH   7   9
BRANCH   8  18
ATOM     18  O   UNL     1       4.150   2.884  16.993  0.00  0.00    +0.000 OA
ATOM     19  C   UNL     1       2.800   2.449  17.132  0.00  0.00    +0.000 C 
ENDBRANCH   8  18
BRANCH   1  20
ATOM     20  O   UNL     1       6.460   3.896  15.959  0.00  0.00    +0.000 OA
BRANCH  20  21
ATOM     21  C   UNL     1       6.654   4.503  14.769  0.00  0.00    +0.000 C 
ATOM     22  O   UNL     1       7.486   5.365  14.529  0.00  0.00    +0.000 OA
BRANCH  21  24
ATOM     23  C   UNL     1       6.028   3.482  12.549  0.00  0.00    +0.000 C 
ATOM     24  C   UNL     1       5.713   4.047  13.726  0.00  0.00    +0.000 C 
BRANCH  23  27
ATOM     25  C   UNL     1       3.059   3.252  10.120  0.00  0.00    +0.000 C 
ATOM     26  C   UNL     1       4.069   3.798  11.074  0.00  0.00    +0.000 C 
ATOM     27  C   UNL     1       4.991   3.017  11.652  0.00  0.00    +0.000 C 
ENDBRANCH  23  27
ENDBRANCH  21  24
ENDBRANCH  20  21
ENDBRANCH   1  20
TORSDOF 8
ENDMDL
MODEL 4
REMARK VINA RESULT:      -6.9      1.135      1.519
REMARK  Name = 
REMARK  13 active torsions:
REMARK  status: ('A' for Active; 'I' for Inactive)
REMARK    1  A    between atoms: C_1  and  C_2
REMARK    2  A    between atoms: C_3  and  C_4
REMARK    3  A    between atoms: C_5  and  C_6
REMARK    4  A    between atoms: C_6  and  O_8
REMARK    5  A    between atoms: O_8  and  C_9
REMARK    6  A    between atoms: C_15  and  C_16
REMARK    7  A    between atoms: C_16  and  C_17
REMARK    8  A    between atoms: C_19  and  C_20
REMARK    9  A    between atoms: C_20  and  C_21
REMARK   10  A    between atoms: C_22  and  C_23
REMARK   11  A    between atoms: C_22  and  C_24
REMARK   12  A    between atoms: C_25  and  O_26
REMARK   13  A    between atoms: O_26  and  C_27
REMARK                            x       y       z     vdW  Elec       q    Type
REMARK                         _______ _______ _______ _____ _____    ______ ____
ROOT
ATOM      1  C   UNL     1       5.360   5.954  18.405  0.00  0.00    +0.000 C 
ATOM      2  C   UNL     1       5.065   4.727  19.288  0.00  0.00    +0.000 C 
ATOM      3  C   UNL     1       3.604   4.491  19.656  0.00  0.00    +0.000 C 
ATOM      4  C   UNL     1       2.670   4.799  18.535  0.00  0.00    +0.000 C 
ATOM      5  C   UNL     1       1.980   3.620  17.866  0.00  0.00    +0.000 C 
ATOM      6  O   UNL     1       1.291   4.471  18.790  0.00  0.00    +0.000 OA
ATOM      7  C   UNL     1       2.868   6.096  17.772  0.00  0.00    +0.000 C 
ATOM      8  C   UNL     1       4.329   6.184  17.273  0.00  0.00    +0.000 C 
ENDROOT
BRANCH   7   9
ATOM      9  C   UNL     1       2.364   7.362  18.482  0.00  0.00    +0.000 C 
ATOM     10  C   UNL     1       2.187   7.376  19.973  0.00  0.00    +0.000 C 
ATOM     11  O   UNL     1       3.042   8.555  18.040  0.00  0.00    +0.000 OA
ATOM     12  C   UNL     1       1.685   8.420  17.603  0.00  0.00    +0.000 C 
BRANCH  12  13
ATOM     13  C   UNL     1       0.723   9.447  18.117  0.00  0.00    +0.000 C 
BRANCH  13  14
ATOM     14  C   UNL     1       1.347  10.762  18.492  0.00  0.00    +0.000 C 
ATOM     15  C   UNL     1       1.189  11.434  19.648  0.00  0.00    +0.000 C 
ATOM     16  C   UNL     1       0.270  11.013  20.759  0.00  0.00    +0.000 C 
ATOM     17  C   UNL     1       1.948  12.710  19.902  0.00  0.00    +0.000 C 
ENDBRANCH  13  14
ENDBRANCH  12  13
ENDBRANCH   7   9
BRANCH   8  18
ATOM     18  O   UNL     1       4.538   5.179  16.250  0.00  0.00    +0.000 OA
ATOM     19  C   UNL     1       5.408   5.610  15.208  0.00  0.00    +0.000 C 
ENDBRANCH   8  18
BRANCH   1  20
ATOM     20  O   UNL     1       6.678   5.848  17.799  0.00  0.00    +0.000 OA
BRANCH  20  21
ATOM     21  C   UNL     1       7.688   6.474  18.440  0.00  0.00    +0.000 C 
ATOM     22  O   UNL     1       8.376   6.000  19.332  0.00  0.00    +0.000 OA
BRANCH  21  24
ATOM     23  C   UNL     1       8.592   8.822  18.611  0.00  0.00    +0.000 C 
ATOM     24  C   UNL     1       7.895   7.863  17.981  0.00  0.00    +0.000 C 
BRANCH  23  27
ATOM     25  C   UNL     1       9.667  12.427  17.820  0.00  0.00    +0.000 C 
ATOM     26  C   UNL     1       9.487  11.126  18.531  0.00  0.00    +0.000 C 
ATOM     27  C   UNL     1       8.771  10.124  18.002  0.00  0.00    +0.000 C 
ENDBRANCH  23  27
ENDBRANCH  21  24
ENDBRANCH  20  21
ENDBRANCH   1  20
TORSDOF 8
ENDMDL
MODEL 5
REMARK VINA RESULT:      -6.8      0.788      1.261
REMARK  Name = 
REMARK  13 active torsions:
REMARK  status: ('A' for Active; 'I' for Inactive)
REMARK    1  A    between atoms: C_1  and  C_2
REMARK    2  A    between atoms: C_3  and  C_4
REMARK    3  A    between atoms: C_5  and  C_6
REMARK    4  A    between atoms: C_6  and  O_8
REMARK    5  A    between atoms: O_8  and  C_9
REMARK    6  A    between atoms: C_15  and  C_16
REMARK    7  A    between atoms: C_16  and  C_17
REMARK    8  A    between atoms: C_19  and  C_20
REMARK    9  A    between atoms: C_20  and  C_21
REMARK   10  A    between atoms: C_22  and  C_23
REMARK   11  A    between atoms: C_22  and  C_24
REMARK   12  A    between atoms: C_25  and  O_26
REMARK   13  A    between atoms: O_26  and  C_27
REMARK                            x       y       z     vdW  Elec       q    Type
REMARK                         _______ _______ _______ _____ _____    ______ ____
ROOT
ATOM      1  C   UNL     1       5.416   5.107  18.568  0.00  0.00    +0.000 C 
ATOM      2  C   UNL     1       4.896   3.881  19.341  0.00  0.00    +0.000 C 
ATOM      3  C   UNL     1       3.387   3.790  19.535  0.00  0.00    +0.000 C 
ATOM      4  C   UNL     1       2.623   4.251  18.339  0.00  0.00    +0.000 C 
ATOM      5  C   UNL     1       1.894   3.187  17.533  0.00  0.00    +0.000 C 
ATOM      6  O   UNL     1       1.197   4.065  18.425  0.00  0.00    +0.000 OA
ATOM      7  C   UNL     1       3.040   5.552  17.679  0.00  0.00    +0.000 C 
ATOM      8  C   UNL     1       4.550   5.501  17.346  0.00  0.00    +0.000 C 
ENDROOT
BRANCH   7   9
ATOM      9  C   UNL     1       2.594   6.831  18.403  0.00  0.00    +0.000 C 
ATOM     10  C   UNL     1       2.297   6.806  19.875  0.00  0.00    +0.000 C 
ATOM     11  O   UNL     1       3.411   7.972  18.071  0.00  0.00    +0.000 OA
ATOM     12  C   UNL     1       2.088   7.981  17.522  0.00  0.00    +0.000 C 
BRANCH  12  13
ATOM     13  C   UNL     1       1.182   9.072  18.003  0.00  0.00    +0.000 C 
BRANCH  13  14
ATOM     14  C   UNL     1       1.256   9.347  19.479  0.00  0.00    +0.000 C 
ATOM     15  C   UNL     1       0.357  10.015  20.226  0.00  0.00    +0.000 C 
ATOM     16  C   UNL     1      -0.867  10.693  19.680  0.00  0.00    +0.000 C 
ATOM     17  C   UNL     1       0.540  10.141  21.715  0.00  0.00    +0.000 C 
ENDBRANCH  13  14
ENDBRANCH  12  13
ENDBRANCH   7   9
BRANCH   8  18
ATOM     18  O   UNL     1       4.767   4.527  16.295  0.00  0.00    +0.000 OA
ATOM     19  C   UNL     1       5.432   5.068  15.157  0.00  0.00    +0.000 C 
ENDBRANCH   8  18
BRANCH   1  20
ATOM     20  O   UNL     1       6.776   4.884  18.102  0.00  0.00    +0.000 OA
BRANCH  20  21
ATOM     21  C   UNL     1       7.744   5.616  18.695  0.00  0.00    +0.000 C 
ATOM     22  O   UNL     1       8.485   5.238  19.590  0.00  0.00    +0.000 OA
BRANCH  21  24
ATOM     23  C   UNL     1       8.439   8.040  18.760  0.00  0.00    +0.000 C 
ATOM     24  C   UNL     1       7.826   6.997  18.177  0.00  0.00    +0.000 C 
BRANCH  23  27
ATOM     25  C   UNL     1       9.152  11.701  17.833  0.00  0.00    +0.000 C 
ATOM     26  C   UNL     1       9.085  10.421  18.599  0.00  0.00    +0.000 C 
ATOM     27  C   UNL     1       8.501   9.326  18.096  0.00  0.00    +0.000 C 
ENDBRANCH  23  27
ENDBRANCH  21  24
ENDBRANCH  20  21
ENDBRANCH   1  20
TORSDOF 8
ENDMDL
MODEL 6
REMARK VINA RESULT:      -6.7      2.092      6.667
REMARK  Name = 
REMARK  13 active torsions:
REMARK  status: ('A' for Active; 'I' for Inactive)
REMARK    1  A    between atoms: C_1  and  C_2
REMARK    2  A    between atoms: C_3  and  C_4
REMARK    3  A    between atoms: C_5  and  C_6
REMARK    4  A    between atoms: C_6  and  O_8
REMARK    5  A    between atoms: O_8  and  C_9
REMARK    6  A    between atoms: C_15  and  C_16
REMARK    7  A    between atoms: C_16  and  C_17
REMARK    8  A    between atoms: C_19  and  C_20
REMARK    9  A    between atoms: C_20  and  C_21
REMARK   10  A    between atoms: C_22  and  C_23
REMARK   11  A    between atoms: C_22  and  C_24
REMARK   12  A    between atoms: C_25  and  O_26
REMARK   13  A    between atoms: O_26  and  C_27
REMARK                            x       y       z     vdW  Elec       q    Type
REMARK                         _______ _______ _______ _____ _____    ______ ____
ROOT
ATOM      1  C   UNL     1       3.536   6.041  18.435  0.00  0.00    +0.000 C 
ATOM      2  C   UNL     1       3.339   6.901  17.172  0.00  0.00    +0.000 C 
ATOM      3  C   UNL     1       4.551   7.058  16.262  0.00  0.00    +0.000 C 
ATOM      4  C   UNL     1       5.355   5.807  16.150  0.00  0.00    +0.000 C 
ATOM      5  C   UNL     1       5.309   5.073  14.818  0.00  0.00    +0.000 C 
ATOM      6  O   UNL     1       6.437   5.868  15.202  0.00  0.00    +0.000 OA
ATOM      7  C   UNL     1       5.687   5.051  17.423  0.00  0.00    +0.000 C 
ATOM      8  C   UNL     1       4.386   4.766  18.209  0.00  0.00    +0.000 C 
ENDROOT
BRANCH   7   9
ATOM      9  C   UNL     1       6.820   5.651  18.269  0.00  0.00    +0.000 C 
ATOM     10  C   UNL     1       6.931   5.323  19.730  0.00  0.00    +0.000 C 
ATOM     11  O   UNL     1       8.107   5.550  17.627  0.00  0.00    +0.000 OA
ATOM     12  C   UNL     1       7.547   6.868  17.683  0.00  0.00    +0.000 C 
BRANCH  12  13
ATOM     13  C   UNL     1       8.302   7.871  18.501  0.00  0.00    +0.000 C 
BRANCH  13  14
ATOM     14  C   UNL     1       8.263   9.275  17.966  0.00  0.00    +0.000 C 
ATOM     15  C   UNL     1       8.852  10.363  18.500  0.00  0.00    +0.000 C 
ATOM     16  C   UNL     1       9.600  10.373  19.802  0.00  0.00    +0.000 C 
ATOM     17  C   UNL     1       8.782  11.693  17.799  0.00  0.00    +0.000 C 
ENDBRANCH  13  14
ENDBRANCH  12  13
ENDBRANCH   7   9
BRANCH   8  18
ATOM     18  O   UNL     1       3.589   3.809  17.469  0.00  0.00    +0.000 OA
ATOM     19  C   UNL     1       3.514   2.534  18.100  0.00  0.00    +0.000 C 
ENDBRANCH   8  18
BRANCH   1  20
ATOM     20  O   UNL     1       2.253   5.635  18.988  0.00  0.00    +0.000 OA
BRANCH  20  21
ATOM     21  C   UNL     1       2.157   5.613  20.335  0.00  0.00    +0.000 C 
ATOM     22  O   UNL     1       2.559   4.724  21.070  0.00  0.00    +0.000 OA
BRANCH  21  24
ATOM     23  C   UNL     1       1.594   8.068  20.477  0.00  0.00    +0.000 C 
ATOM     24  C   UNL     1       1.463   6.796  20.886  0.00  0.00    +0.000 C 
BRANCH  23  27
ATOM     25  C   UNL     1      -0.567  10.202  22.833  0.00  0.00    +0.000 C 
ATOM     26  C   UNL     1       0.208   9.056  22.271  0.00  0.00    +0.000 C 
ATOM     27  C   UNL     1       0.790   9.119  21.066  0.00  0.00    +0.000 C 
ENDBRANCH  23  27
ENDBRANCH  21  24
ENDBRANCH  20  21
ENDBRANCH   1  20
TORSDOF 8
ENDMDL
MODEL 7
REMARK VINA RESULT:      -6.4      1.135      1.422
REMARK  Name = 
REMARK  13 active torsions:
REMARK  status: ('A' for Active; 'I' for Inactive)
REMARK    1  A    between atoms: C_1  and  C_2
REMARK    2  A    between atoms: C_3  and  C_4
REMARK    3  A    between atoms: C_5  and  C_6
REMARK    4  A    between atoms: C_6  and  O_8
REMARK    5  A    between atoms: O_8  and  C_9
REMARK    6  A    between atoms: C_15  and  C_16
REMARK    7  A    between atoms: C_16  and  C_17
REMARK    8  A    between atoms: C_19  and  C_20
REMARK    9  A    between atoms: C_20  and  C_21
REMARK   10  A    between atoms: C_22  and  C_23
REMARK   11  A    between atoms: C_22  and  C_24
REMARK   12  A    between atoms: C_25  and  O_26
REMARK   13  A    between atoms: O_26  and  C_27
REMARK                            x       y       z     vdW  Elec       q    Type
REMARK                         _______ _______ _______ _____ _____    ______ ____
ROOT
ATOM      1  C   UNL     1       4.932   5.152  18.127  0.00  0.00    +0.000 C 
ATOM      2  C   UNL     1       5.029   4.328  19.425  0.00  0.00    +0.000 C 
ATOM      3  C   UNL     1       3.881   4.484  20.416  0.00  0.00    +0.000 C 
ATOM      4  C   UNL     1       2.553   4.599  19.746  0.00  0.00    +0.000 C 
ATOM      5  C   UNL     1       1.605   3.417  19.884  0.00  0.00    +0.000 C 
ATOM      6  O   UNL     1       1.425   4.619  20.642  0.00  0.00    +0.000 OA
ATOM      7  C   UNL     1       2.424   5.542  18.565  0.00  0.00    +0.000 C 
ATOM      8  C   UNL     1       3.510   5.208  17.516  0.00  0.00    +0.000 C 
ENDROOT
BRANCH   7   9
ATOM      9  C   UNL     1       2.326   7.034  18.920  0.00  0.00    +0.000 C 
ATOM     10  C   UNL     1       2.093   7.462  20.341  0.00  0.00    +0.000 C 
ATOM     11  O   UNL     1       3.375   7.819  18.319  0.00  0.00    +0.000 OA
ATOM     12  C   UNL     1       2.069   8.003  17.759  0.00  0.00    +0.000 C 
BRANCH  12  13
ATOM     13  C   UNL     1       1.469   9.366  17.919  0.00  0.00    +0.000 C 
BRANCH  13  14
ATOM     14  C   UNL     1      -0.013   9.433  17.679  0.00  0.00    +0.000 C 
ATOM     15  C   UNL     1      -0.907  10.201  18.332  0.00  0.00    +0.000 C 
ATOM     16  C   UNL     1      -0.576  11.085  19.501  0.00  0.00    +0.000 C 
ATOM     17  C   UNL     1      -2.355  10.209  17.921  0.00  0.00    +0.000 C 
ENDBRANCH  13  14
ENDBRANCH  12  13
ENDBRANCH   7   9
BRANCH   8  18
ATOM     18  O   UNL     1       3.213   3.918  16.926  0.00  0.00    +0.000 OA
ATOM     19  C   UNL     1       1.816   3.673  16.786  0.00  0.00    +0.000 C 
ENDBRANCH   8  18
BRANCH   1  20
ATOM     20  O   UNL     1       5.837   4.629  17.115  0.00  0.00    +0.000 OA
BRANCH  20  21
ATOM     21  C   UNL     1       7.136   4.981  17.228  0.00  0.00    +0.000 C 
ATOM     22  O   UNL     1       8.073   4.220  17.419  0.00  0.00    +0.000 OA
BRANCH  21  24
ATOM     23  C   UNL     1       7.831   7.248  18.089  0.00  0.00    +0.000 C 
ATOM     24  C   UNL     1       7.352   6.439  17.130  0.00  0.00    +0.000 C 
BRANCH  23  27
ATOM     25  C   UNL     1       9.011  10.903  18.237  0.00  0.00    +0.000 C 
ATOM     26  C   UNL     1       8.778   9.473  18.602  0.00  0.00    +0.000 C 
ATOM     27  C   UNL     1       8.059   8.653  17.824  0.00  0.00    +0.000 C 
ENDBRANCH  23  27
ENDBRANCH  21  24
ENDBRANCH  20  21
ENDBRANCH   1  20
TORSDOF 8
ENDMDL
MODEL 8
REMARK VINA RESULT:      -6.4      2.491      3.383
REMARK  Name = 
REMARK  13 active torsions:
REMARK  status: ('A' for Active; 'I' for Inactive)
REMARK    1  A    between atoms: C_1  and  C_2
REMARK    2  A    between atoms: C_3  and  C_4
REMARK    3  A    between atoms: C_5  and  C_6
REMARK    4  A    between atoms: C_6  and  O_8
REMARK    5  A    between atoms: O_8  and  C_9
REMARK    6  A    between atoms: C_15  and  C_16
REMARK    7  A    between atoms: C_16  and  C_17
REMARK    8  A    between atoms: C_19  and  C_20
REMARK    9  A    between atoms: C_20  and  C_21
REMARK   10  A    between atoms: C_22  and  C_23
REMARK   11  A    between atoms: C_22  and  C_24
REMARK   12  A    between atoms: C_25  and  O_26
REMARK   13  A    between atoms: O_26  and  C_27
REMARK                            x       y       z     vdW  Elec       q    Type
REMARK                         _______ _______ _______ _____ _____    ______ ____
ROOT
ATOM      1  C   UNL     1       4.733   4.571  19.252  0.00  0.00    +0.000 C 
ATOM      2  C   UNL     1       4.230   3.804  20.488  0.00  0.00    +0.000 C 
ATOM      3  C   UNL     1       2.838   4.166  20.992  0.00  0.00    +0.000 C 
ATOM      4  C   UNL     1       1.876   4.436  19.885  0.00  0.00    +0.000 C 
ATOM      5  C   UNL     1       0.778   3.408  19.658  0.00  0.00    +0.000 C 
ATOM      6  O   UNL     1       0.517   4.658  20.307  0.00  0.00    +0.000 OA
ATOM      7  C   UNL     1       2.326   5.332  18.746  0.00  0.00    +0.000 C 
ATOM      8  C   UNL     1       3.655   4.799  18.163  0.00  0.00    +0.000 C 
ENDROOT
BRANCH   7   9
ATOM      9  C   UNL     1       2.327   6.838  19.054  0.00  0.00    +0.000 C 
ATOM     10  C   UNL     1       2.075   7.328  20.450  0.00  0.00    +0.000 C 
ATOM     11  O   UNL     1       3.455   7.522  18.472  0.00  0.00    +0.000 OA
ATOM     12  C   UNL     1       2.190   7.785  17.855  0.00  0.00    +0.000 C 
BRANCH  12  13
ATOM     13  C   UNL     1       1.690   9.194  17.950  0.00  0.00    +0.000 C 
BRANCH  13  14
ATOM     14  C   UNL     1       0.226   9.363  17.656  0.00  0.00    +0.000 C 
ATOM     15  C   UNL     1      -0.680  10.025  18.401  0.00  0.00    +0.000 C 
ATOM     16  C   UNL     1      -0.391  10.653  19.734  0.00  0.00    +0.000 C 
ATOM     17  C   UNL     1      -2.102  10.169  17.928  0.00  0.00    +0.000 C 
ENDBRANCH  13  14
ENDBRANCH  12  13
ENDBRANCH   7   9
BRANCH   8  18
ATOM     18  O   UNL     1       3.403   3.538  17.495  0.00  0.00    +0.000 OA
ATOM     19  C   UNL     1       2.304   3.591  16.591  0.00  0.00    +0.000 C 
ENDBRANCH   8  18
BRANCH   1  20
ATOM     20  O   UNL     1       5.855   3.879  18.636  0.00  0.00    +0.000 OA
BRANCH  20  21
ATOM     21  C   UNL     1       6.919   4.638  18.296  0.00  0.00    +0.000 C 
ATOM     22  O   UNL     1       7.631   5.266  19.067  0.00  0.00    +0.000 OA
BRANCH  21  24
ATOM     23  C   UNL     1       6.384   4.148  15.880  0.00  0.00    +0.000 C 
ATOM     24  C   UNL     1       7.156   4.685  16.839  0.00  0.00    +0.000 C 
BRANCH  23  27
ATOM     25  C   UNL     1       6.519   3.923  12.045  0.00  0.00    +0.000 C 
ATOM     26  C   UNL     1       6.174   3.637  13.470  0.00  0.00    +0.000 C 
ATOM     27  C   UNL     1       6.705   4.338  14.481  0.00  0.00    +0.000 C 
ENDBRANCH  23  27
ENDBRANCH  21  24
ENDBRANCH  20  21
ENDBRANCH   1  20
TORSDOF 8
ENDMDL
MODEL 9
REMARK VINA RESULT:      -6.4      1.369      1.799
REMARK  Name = 
REMARK  13 active torsions:
REMARK  status: ('A' for Active; 'I' for Inactive)
REMARK    1  A    between atoms: C_1  and  C_2
REMARK    2  A    between atoms: C_3  and  C_4
REMARK    3  A    between atoms: C_5  and  C_6
REMARK    4  A    between atoms: C_6  and  O_8
REMARK    5  A    between atoms: O_8  and  C_9
REMARK    6  A    between atoms: C_15  and  C_16
REMARK    7  A    between atoms: C_16  and  C_17
REMARK    8  A    between atoms: C_19  and  C_20
REMARK    9  A    between atoms: C_20  and  C_21
REMARK   10  A    between atoms: C_22  and  C_23
REMARK   11  A    between atoms: C_22  and  C_24
REMARK   12  A    between atoms: C_25  and  O_26
REMARK   13  A    between atoms: O_26  and  C_27
REMARK                            x       y       z     vdW  Elec       q    Type
REMARK                         _______ _______ _______ _____ _____    ______ ____
ROOT
ATOM      1  C   UNL     1       6.035   5.632  18.492  0.00  0.00    +0.000 C 
ATOM      2  C   UNL     1       5.995   4.332  19.318  0.00  0.00    +0.000 C 
ATOM      3  C   UNL     1       4.616   3.745  19.593  0.00  0.00    +0.000 C 
ATOM      4  C   UNL     1       3.690   3.876  18.430  0.00  0.00    +0.000 C 
ATOM      5  C   UNL     1       3.331   2.600  17.686  0.00  0.00    +0.000 C 
ATOM      6  O   UNL     1       2.417   3.224  18.595  0.00  0.00    +0.000 OA
ATOM      7  C   UNL     1       3.614   5.216  17.722  0.00  0.00    +0.000 C 
ATOM      8  C   UNL     1       5.035   5.665  17.311  0.00  0.00    +0.000 C 
ENDROOT
BRANCH   7   9
ATOM      9  C   UNL     1       2.792   6.296  18.442  0.00  0.00    +0.000 C 
ATOM     10  C   UNL     1       2.055   5.970  19.709  0.00  0.00    +0.000 C 
ATOM     11  O   UNL     1       3.507   7.541  18.578  0.00  0.00    +0.000 OA
ATOM     12  C   UNL     1       2.435   7.547  17.628  0.00  0.00    +0.000 C 
BRANCH  12  13
ATOM     13  C   UNL     1       1.283   8.452  17.941  0.00  0.00    +0.000 C 
BRANCH  13  14
ATOM     14  C   UNL     1       1.631   9.913  18.006  0.00  0.00    +0.000 C 
ATOM     15  C   UNL     1       1.027  10.858  18.751  0.00  0.00    +0.000 C 
ATOM     16  C   UNL     1      -0.187  10.623  19.604  0.00  0.00    +0.000 C 
ATOM     17  C   UNL     1       1.546  12.271  18.763  0.00  0.00    +0.000 C 
ENDBRANCH  13  14
ENDBRANCH  12  13
ENDBRANCH   7   9
BRANCH   8  18
ATOM     18  O   UNL     1       5.524   4.783  16.270  0.00  0.00    +0.000 OA
ATOM     19  C   UNL     1       5.335   5.304  14.958  0.00  0.00    +0.000 C 
ENDBRANCH   8  18
BRANCH   1  20
ATOM     20  O   UNL     1       7.369   5.864  17.960  0.00  0.00    +0.000 OA
BRANCH  20  21
ATOM     21  C   UNL     1       7.628   7.108  17.503  0.00  0.00    +0.000 C 
ATOM     22  O   UNL     1       7.364   7.533  16.387  0.00  0.00    +0.000 OA
BRANCH  21  24
ATOM     23  C   UNL     1       8.610   9.263  18.370  0.00  0.00    +0.000 C 
ATOM     24  C   UNL     1       8.321   7.958  18.492  0.00  0.00    +0.000 C 
BRANCH  23  27
ATOM     25  C   UNL     1      10.519  11.830  20.500  0.00  0.00    +0.000 C 
ATOM     26  C   UNL     1       9.948  11.112  19.322  0.00  0.00    +0.000 C 
ATOM     27  C   UNL     1       9.232   9.988  19.458  0.00  0.00    +0.000 C 
ENDBRANCH  23  27
ENDBRANCH  21  24
ENDBRANCH  20  21
ENDBRANCH   1  20
TORSDOF 8
ENDMDL
