MODEL 1
REMARK VINA RESULT:      -7.9      0.000      0.000
REMARK  Name = 
REMARK  7 active torsions:
REMARK  status: ('A' for Active; 'I' for Inactive)
REMARK    1  A    between atoms: C_2  and  C_3
REMARK    2  A    between atoms: C_3  and  C_20
REMARK    3  A    between atoms: C_4  and  C_5
REMARK    4  A    between atoms: C_8  and  C_9
REMARK    5  A    between atoms: C_12  and  S_13
REMARK    6  A    between atoms: S_13  and  N_14
REMARK    7  A    between atoms: N_22  and  C_23
REMARK                            x       y       z     vdW  Elec       q    Type
REMARK                         _______ _______ _______ _____ _____    ______ ____
ROOT
ATOM      1  C   UNL     1       1.194  10.012  18.144  0.00  0.00    +0.000 A 
ATOM      2  C   UNL     1       1.549  11.270  18.611  0.00  0.00    +0.000 A 
ATOM      3  C   UNL     1       0.357  11.979  18.918  0.00  0.00    +0.000 A 
ATOM      4  C   UNL     1      -0.693  11.136  18.633  0.00  0.00    +0.000 A 
ATOM      5  O   UNL     1      -0.185   9.944  18.200  0.00  0.00    +0.000 OA
ENDROOT
BRANCH   4   6
ATOM      6  C   UNL     1      -2.154  11.257  18.664  0.00  0.00    +0.000 A 
ATOM      7  C   UNL     1      -2.776  12.135  19.570  0.00  0.00    +0.000 A 
ATOM      8  C   UNL     1      -4.168  12.311  19.576  0.00  0.00    +0.000 A 
ATOM      9  C   UNL     1      -4.955  11.609  18.661  0.00  0.00    +0.000 A 
ATOM     10  C   UNL     1      -4.367  10.704  17.775  0.00  0.00    +0.000 A 
ATOM     11  C   UNL     1      -2.975  10.539  17.779  0.00  0.00    +0.000 A 
BRANCH   9  12
ATOM     12  S   UNL     1      -6.707  11.853  18.643  0.00  0.00    +0.000 S 
ATOM     13  O   UNL     1      -7.113  12.526  19.855  0.00  0.00    +0.000 OA
ATOM     14  O   UNL     1      -7.110  12.308  17.332  0.00  0.00    +0.000 OA
BRANCH  12  15
ATOM     15  N   UNL     1      -7.272  10.277  18.777  0.00  0.00    +0.000 NA
ATOM     16  H   UNL     1      -8.112  10.257  19.354  0.00  0.00    +0.000 HD
ATOM     17  H   UNL     1      -7.396   9.871  17.850  0.00  0.00    +0.000 HD
ENDBRANCH  12  15
ENDBRANCH   9  12
ENDBRANCH   4   6
BRANCH   1  19
ATOM     18  C   UNL     1       2.408   7.925  18.483  0.00  0.00    +0.000 C 
ATOM     19  C   UNL     1       2.027   8.940  17.679  0.00  0.00    +0.000 C 
BRANCH  18  20
ATOM     20  C   UNL     1       3.309   6.845  17.993  0.00  0.00    +0.000 C 
ATOM     21  O   UNL     1       4.425   7.095  17.547  0.00  0.00    +0.000 OA
ATOM     22  N   UNL     1       2.819   5.556  18.085  0.00  0.00    +0.000 N 
ATOM     23  H   UNL     1       1.841   5.406  18.316  0.00  0.00    +0.000 HD
BRANCH  22  24
ATOM     24  C   UNL     1       3.595   4.402  17.632  0.00  0.00    +0.000 C 
ATOM     25  C   UNL     1       2.675   3.289  17.108  0.00  0.00    +0.000 C 
ATOM     26  C   UNL     1       2.093   2.594  18.332  0.00  0.00    +0.000 C 
ATOM     27  S   UNL     1       3.450   2.498  19.483  0.00  0.00    +0.000 S 
ATOM     28  O   UNL     1       4.113   1.224  19.294  0.00  0.00    +0.000 OA
ATOM     29  O   UNL     1       2.988   2.947  20.778  0.00  0.00    +0.000 OA
ATOM     30  C   UNL     1       4.453   3.772  18.739  0.00  0.00    +0.000 C 
ENDBRANCH  22  24
ENDBRANCH  18  20
BRANCH  18  32
ATOM     31  N   UNL     1       1.419   7.818  21.081  0.00  0.00    +0.000 NA
ATOM     32  C   UNL     1       1.867   7.867  19.903  0.00  0.00    +0.000 C 
ENDBRANCH  18  32
ENDBRANCH   1  19
TORSDOF 7
ENDMDL
MODEL 2
REMARK VINA RESULT:      -7.6      1.961      2.886
REMARK  Name = 
REMARK  7 active torsions:
REMARK  status: ('A' for Active; 'I' for Inactive)
REMARK    1  A    between atoms: C_2  and  C_3
REMARK    2  A    between atoms: C_3  and  C_20
REMARK    3  A    between atoms: C_4  and  C_5
REMARK    4  A    between atoms: C_8  and  C_9
REMARK    5  A    between atoms: C_12  and  S_13
REMARK    6  A    between atoms: S_13  and  N_14
REMARK    7  A    between atoms: N_22  and  C_23
REMARK                            x       y       z     vdW  Elec       q    Type
REMARK                         _______ _______ _______ _____ _____    ______ ____
ROOT
ATOM      1  C   UNL     1       1.363   9.460  18.405  0.00  0.00    +0.000 A 
ATOM      2  C   UNL     1       1.876  10.748  18.336  0.00  0.00    +0.000 A 
ATOM      3  C   UNL     1       0.784  11.658  18.333  0.00  0.00    +0.000 A 
ATOM      4  C   UNL     1      -0.364  10.902  18.403  0.00  0.00    +0.000 A 
ATOM      5  O   UNL     1      -0.011   9.584  18.480  0.00  0.00    +0.000 OA
ENDROOT
BRANCH   4   6
ATOM      6  C   UNL     1      -1.800  11.199  18.380  0.00  0.00    +0.000 A 
ATOM      7  C   UNL     1      -2.621  10.671  17.367  0.00  0.00    +0.000 A 
ATOM      8  C   UNL     1      -4.005  10.894  17.362  0.00  0.00    +0.000 A 
ATOM      9  C   UNL     1      -4.587  11.647  18.382  0.00  0.00    +0.000 A 
ATOM     10  C   UNL     1      -3.791  12.214  19.380  0.00  0.00    +0.000 A 
ATOM     11  C   UNL     1      -2.409  11.983  19.375  0.00  0.00    +0.000 A 
BRANCH   9  12
ATOM     12  S   UNL     1      -6.337  11.903  18.396  0.00  0.00    +0.000 S 
ATOM     13  O   UNL     1      -7.010  10.633  18.540  0.00  0.00    +0.000 OA
ATOM     14  O   UNL     1      -6.644  13.042  19.232  0.00  0.00    +0.000 OA
BRANCH  12  15
ATOM     15  N   UNL     1      -6.622  12.402  16.818  0.00  0.00    +0.000 NA
ATOM     16  H   UNL     1      -5.766  12.322  16.269  0.00  0.00    +0.000 HD
ATOM     17  H   UNL     1      -7.414  11.891  16.428  0.00  0.00    +0.000 HD
ENDBRANCH  12  15
ENDBRANCH   9  12
ENDBRANCH   4   6
BRANCH   1  19
ATOM     18  C   UNL     1       2.206   7.467  19.528  0.00  0.00    +0.000 C 
ATOM     19  C   UNL     1       2.051   8.201  18.405  0.00  0.00    +0.000 C 
BRANCH  18  20
ATOM     20  C   UNL     1       2.962   6.183  19.515  0.00  0.00    +0.000 C 
ATOM     21  O   UNL     1       2.569   5.203  20.141  0.00  0.00    +0.000 OA
ATOM     22  N   UNL     1       4.112   6.163  18.751  0.00  0.00    +0.000 N 
ATOM     23  H   UNL     1       4.481   7.032  18.376  0.00  0.00    +0.000 HD
BRANCH  22  24
ATOM     24  C   UNL     1       4.954   4.970  18.657  0.00  0.00    +0.000 C 
ATOM     25  C   UNL     1       6.307   5.192  19.351  0.00  0.00    +0.000 C 
ATOM     26  C   UNL     1       7.150   6.034  18.401  0.00  0.00    +0.000 C 
ATOM     27  S   UNL     1       6.798   5.374  16.784  0.00  0.00    +0.000 S 
ATOM     28  O   UNL     1       7.788   4.361  16.483  0.00  0.00    +0.000 OA
ATOM     29  O   UNL     1       6.519   6.475  15.888  0.00  0.00    +0.000 OA
ATOM     30  C   UNL     1       5.269   4.559  17.211  0.00  0.00    +0.000 C 
ENDBRANCH  22  24
ENDBRANCH  18  20
BRANCH  18  32
ATOM     31  N   UNL     1       1.019   8.342  21.886  0.00  0.00    +0.000 NA
ATOM     32  C   UNL     1       1.557   7.945  20.817  0.00  0.00    +0.000 C 
ENDBRANCH  18  32
ENDBRANCH   1  19
TORSDOF 7
ENDMDL
MODEL 3
REMARK VINA RESULT:      -7.6      1.898      2.666
REMARK  Name = 
REMARK  7 active torsions:
REMARK  status: ('A' for Active; 'I' for Inactive)
REMARK    1  A    between atoms: C_2  and  C_3
REMARK    2  A    between atoms: C_3  and  C_20
REMARK    3  A    between atoms: C_4  and  C_5
REMARK    4  A    between atoms: C_8  and  C_9
REMARK    5  A    between atoms: C_12  and  S_13
REMARK    6  A    between atoms: S_13  and  N_14
REMARK    7  A    between atoms: N_22  and  C_23
REMARK                            x       y       z     vdW  Elec       q    Type
REMARK                         _______ _______ _______ _____ _____    ______ ____
ROOT
ATOM      1  C   UNL     1       1.349   9.444  18.205  0.00  0.00    +0.000 A 
ATOM      2  C   UNL     1       1.825  10.744  18.312  0.00  0.00    +0.000 A 
ATOM      3  C   UNL     1       0.709  11.614  18.439  0.00  0.00    +0.000 A 
ATOM      4  C   UNL     1      -0.418  10.824  18.408  0.00  0.00    +0.000 A 
ATOM      5  O   UNL     1      -0.028   9.519  18.301  0.00  0.00    +0.000 OA
ENDROOT
BRANCH   4   6
ATOM      6  C   UNL     1      -1.861  11.081  18.432  0.00  0.00    +0.000 A 
ATOM      7  C   UNL     1      -2.406  12.003  19.344  0.00  0.00    +0.000 A 
ATOM      8  C   UNL     1      -3.774  12.308  19.343  0.00  0.00    +0.000 A 
ATOM      9  C   UNL     1      -4.617  11.693  18.415  0.00  0.00    +0.000 A 
ATOM     10  C   UNL     1      -4.110  10.747  17.522  0.00  0.00    +0.000 A 
ATOM     11  C   UNL     1      -2.739  10.452  17.533  0.00  0.00    +0.000 A 
BRANCH   9  12
ATOM     12  S   UNL     1      -6.338  12.099  18.389  0.00  0.00    +0.000 S 
ATOM     13  O   UNL     1      -6.679  12.836  19.584  0.00  0.00    +0.000 OA
ATOM     14  O   UNL     1      -6.697  12.560  17.067  0.00  0.00    +0.000 OA
BRANCH  12  15
ATOM     15  N   UNL     1      -7.048  10.587  18.558  0.00  0.00    +0.000 NA
ATOM     16  H   UNL     1      -7.680  10.588  19.359  0.00  0.00    +0.000 HD
ATOM     17  H   UNL     1      -7.490  10.308  17.682  0.00  0.00    +0.000 HD
ENDBRANCH  12  15
ENDBRANCH   9  12
ENDBRANCH   4   6
BRANCH   1  19
ATOM     18  C   UNL     1       2.309   7.371  19.054  0.00  0.00    +0.000 C 
ATOM     19  C   UNL     1       2.070   8.218  18.029  0.00  0.00    +0.000 C 
BRANCH  18  20
ATOM     20  C   UNL     1       3.099   6.123  18.859  0.00  0.00    +0.000 C 
ATOM     21  O   UNL     1       2.558   5.065  18.549  0.00  0.00    +0.000 OA
ATOM     22  N   UNL     1       4.465   6.234  19.033  0.00  0.00    +0.000 N 
ATOM     23  H   UNL     1       4.852   7.084  19.434  0.00  0.00    +0.000 HD
BRANCH  22  24
ATOM     24  C   UNL     1       5.358   5.086  18.881  0.00  0.00    +0.000 C 
ATOM     25  C   UNL     1       6.785   5.433  19.331  0.00  0.00    +0.000 C 
ATOM     26  C   UNL     1       7.411   6.246  18.206  0.00  0.00    +0.000 C 
ATOM     27  S   UNL     1       6.854   5.450  16.712  0.00  0.00    +0.000 S 
ATOM     28  O   UNL     1       7.849   4.473  16.322  0.00  0.00    +0.000 OA
ATOM     29  O   UNL     1       6.366   6.465  15.804  0.00  0.00    +0.000 OA
ATOM     30  C   UNL     1       5.468   4.586  17.433  0.00  0.00    +0.000 C 
ENDBRANCH  22  24
ENDBRANCH  18  20
BRANCH  18  32
ATOM     31  N   UNL     1       1.232   7.941  21.553  0.00  0.00    +0.000 NA
ATOM     32  C   UNL     1       1.721   7.683  20.420  0.00  0.00    +0.000 C 
ENDBRANCH  18  32
ENDBRANCH   1  19
TORSDOF 7
ENDMDL
MODEL 4
REMARK VINA RESULT:      -7.6      2.063      2.818
REMARK  Name = 
REMARK  7 active torsions:
REMARK  status: ('A' for Active; 'I' for Inactive)
REMARK    1  A    between atoms: C_2  and  C_3
REMARK    2  A    between atoms: C_3  and  C_20
REMARK    3  A    between atoms: C_4  and  C_5
REMARK    4  A    between atoms: C_8  and  C_9
REMARK    5  A    between atoms: C_12  and  S_13
REMARK    6  A    between atoms: S_13  and  N_14
REMARK    7  A    between atoms: N_22  and  C_23
REMARK                            x       y       z     vdW  Elec       q    Type
REMARK                         _______ _______ _______ _____ _____    ______ ____
ROOT
ATOM      1  C   UNL     1       1.323   9.780  18.169  0.00  0.00    +0.000 A 
ATOM      2  C   UNL     1       1.927  11.023  18.299  0.00  0.00    +0.000 A 
ATOM      3  C   UNL     1       0.918  11.974  18.612  0.00  0.00    +0.000 A 
ATOM      4  C   UNL     1      -0.273  11.286  18.668  0.00  0.00    +0.000 A 
ATOM      5  O   UNL     1      -0.021   9.964  18.434  0.00  0.00    +0.000 OA
ENDROOT
BRANCH   4   6
ATOM      6  C   UNL     1      -1.675  11.663  18.880  0.00  0.00    +0.000 A 
ATOM      7  C   UNL     1      -2.669  11.244  17.978  0.00  0.00    +0.000 A 
ATOM      8  C   UNL     1      -4.022  11.543  18.195  0.00  0.00    +0.000 A 
ATOM      9  C   UNL     1      -4.396  12.262  19.332  0.00  0.00    +0.000 A 
ATOM     10  C   UNL     1      -3.426  12.721  20.225  0.00  0.00    +0.000 A 
ATOM     11  C   UNL     1      -2.077  12.415  19.996  0.00  0.00    +0.000 A 
BRANCH   9  12
ATOM     12  S   UNL     1      -6.105  12.612  19.626  0.00  0.00    +0.000 S 
ATOM     13  O   UNL     1      -6.242  13.962  20.121  0.00  0.00    +0.000 OA
ATOM     14  O   UNL     1      -6.889  12.109  18.522  0.00  0.00    +0.000 OA
BRANCH  12  15
ATOM     15  N   UNL     1      -6.441  11.605  20.927  0.00  0.00    +0.000 NA
ATOM     16  H   UNL     1      -7.217  10.987  20.695  0.00  0.00    +0.000 HD
ATOM     17  H   UNL     1      -5.594  11.117  21.218  0.00  0.00    +0.000 HD
ENDBRANCH  12  15
ENDBRANCH   9  12
ENDBRANCH   4   6
BRANCH   1  19
ATOM     18  C   UNL     1       2.163   7.571  18.765  0.00  0.00    +0.000 C 
ATOM     19  C   UNL     1       1.902   8.512  17.833  0.00  0.00    +0.000 C 
BRANCH  18  20
ATOM     20  C   UNL     1       2.806   6.277  18.401  0.00  0.00    +0.000 C 
ATOM     21  O   UNL     1       2.178   5.387  17.837  0.00  0.00    +0.000 OA
ATOM     22  N   UNL     1       4.144   6.152  18.722  0.00  0.00    +0.000 N 
ATOM     23  H   UNL     1       4.584   6.846  19.320  0.00  0.00    +0.000 HD
BRANCH  22  24
ATOM     24  C   UNL     1       4.897   4.932  18.429  0.00  0.00    +0.000 C 
ATOM     25  C   UNL     1       6.146   4.828  19.317  0.00  0.00    +0.000 C 
ATOM     26  C   UNL     1       7.181   5.775  18.725  0.00  0.00    +0.000 C 
ATOM     27  S   UNL     1       7.020   5.572  16.962  0.00  0.00    +0.000 S 
ATOM     28  O   UNL     1       7.963   4.558  16.535  0.00  0.00    +0.000 OA
ATOM     29  O   UNL     1       6.960   6.881  16.350  0.00  0.00    +0.000 OA
ATOM     30  C   UNL     1       5.387   4.852  16.977  0.00  0.00    +0.000 C 
ENDBRANCH  22  24
ENDBRANCH  18  20
BRANCH  18  32
ATOM     31  N   UNL     1       1.407   8.037  21.400  0.00  0.00    +0.000 NA
ATOM     32  C   UNL     1       1.750   7.826  20.206  0.00  0.00    +0.000 C 
ENDBRANCH  18  32
ENDBRANCH   1  19
TORSDOF 7
ENDMDL
MODEL 5
REMARK VINA RESULT:      -7.5      3.732     10.687
REMARK  Name = 
REMARK  7 active torsions:
REMARK  status: ('A' for Active; 'I' for Inactive)
REMARK    1  A    between atoms: C_2  and  C_3
REMARK    2  A    between atoms: C_3  and  C_20
REMARK    3  A    between atoms: C_4  and  C_5
REMARK    4  A    between atoms: C_8  and  C_9
REMARK    5  A    between atoms: C_12  and  S_13
REMARK    6  A    between atoms: S_13  and  N_14
REMARK    7  A    between atoms: N_22  and  C_23
REMARK                            x       y       z     vdW  Elec       q    Type
REMARK                         _______ _______ _______ _____ _____    ______ ____
ROOT
ATOM      1  C   UNL     1       0.977   8.722  20.061  0.00  0.00    +0.000 A 
ATOM      2  C   UNL     1       0.887   7.749  21.047  0.00  0.00    +0.000 A 
ATOM      3  C   UNL     1       1.828   6.728  20.746  0.00  0.00    +0.000 A 
ATOM      4  C   UNL     1       2.469   7.105  19.589  0.00  0.00    +0.000 A 
ATOM      5  O   UNL     1       1.979   8.319  19.199  0.00  0.00    +0.000 OA
ENDROOT
BRANCH   4   6
ATOM      6  C   UNL     1       3.484   6.495  18.723  0.00  0.00    +0.000 A 
ATOM      7  C   UNL     1       3.825   7.091  17.496  0.00  0.00    +0.000 A 
ATOM      8  C   UNL     1       4.835   6.557  16.682  0.00  0.00    +0.000 A 
ATOM      9  C   UNL     1       5.523   5.415  17.097  0.00  0.00    +0.000 A 
ATOM     10  C   UNL     1       5.180   4.782  18.293  0.00  0.00    +0.000 A 
ATOM     11  C   UNL     1       4.169   5.327  19.098  0.00  0.00    +0.000 A 
BRANCH   9  12
ATOM     12  S   UNL     1       6.819   4.757  16.088  0.00  0.00    +0.000 S 
ATOM     13  O   UNL     1       6.338   3.590  15.386  0.00  0.00    +0.000 OA
ATOM     14  O   UNL     1       7.494   5.843  15.415  0.00  0.00    +0.000 OA
BRANCH  12  15
ATOM     15  N   UNL     1       7.897   4.191  17.245  0.00  0.00    +0.000 NA
ATOM     16  H   UNL     1       7.425   4.099  18.144  0.00  0.00    +0.000 HD
ATOM     17  H   UNL     1       8.340   3.333  16.918  0.00  0.00    +0.000 HD
ENDBRANCH  12  15
ENDBRANCH   9  12
ENDBRANCH   4   6
BRANCH   1  19
ATOM     18  C   UNL     1      -0.276  10.615  20.950  0.00  0.00    +0.000 C 
ATOM     19  C   UNL     1       0.223   9.931  19.897  0.00  0.00    +0.000 C 
BRANCH  18  20
ATOM     20  C   UNL     1      -1.094  11.845  20.756  0.00  0.00    +0.000 C 
ATOM     21  O   UNL     1      -0.945  12.564  19.773  0.00  0.00    +0.000 OA
ATOM     22  N   UNL     1      -2.030  12.112  21.736  0.00  0.00    +0.000 N 
ATOM     23  H   UNL     1      -2.018  11.580  22.601  0.00  0.00    +0.000 HD
BRANCH  22  24
ATOM     24  C   UNL     1      -2.895  13.291  21.676  0.00  0.00    +0.000 C 
ATOM     25  C   UNL     1      -2.433  14.366  22.672  0.00  0.00    +0.000 C 
ATOM     26  C   UNL     1      -2.907  13.915  24.047  0.00  0.00    +0.000 C 
ATOM     27  S   UNL     1      -4.537  13.252  23.766  0.00  0.00    +0.000 S 
ATOM     28  O   UNL     1      -5.500  14.313  23.977  0.00  0.00    +0.000 OA
ATOM     29  O   UNL     1      -4.635  11.973  24.435  0.00  0.00    +0.000 OA
ATOM     30  C   UNL     1      -4.362  12.989  22.010  0.00  0.00    +0.000 C 
ENDBRANCH  22  24
ENDBRANCH  18  20
BRANCH  18  32
ATOM     31  N   UNL     1       0.309   9.743  23.525  0.00  0.00    +0.000 NA
ATOM     32  C   UNL     1       0.044  10.138  22.357  0.00  0.00    +0.000 C 
ENDBRANCH  18  32
ENDBRANCH   1  19
TORSDOF 7
ENDMDL
MODEL 6
REMARK VINA RESULT:      -7.5      2.064      2.927
REMARK  Name = 
REMARK  7 active torsions:
REMARK  status: ('A' for Active; 'I' for Inactive)
REMARK    1  A    between atoms: C_2  and  C_3
REMARK    2  A    between atoms: C_3  and  C_20
REMARK    3  A    between atoms: C_4  and  C_5
REMARK    4  A    between atoms: C_8  and  C_9
REMARK    5  A    between atoms: C_12  and  S_13
REMARK    6  A    between atoms: S_13  and  N_14
REMARK    7  A    between atoms: N_22  and  C_23
REMARK                            x       y       z     vdW  Elec       q    Type
REMARK                         _______ _______ _______ _____ _____    ______ ____
ROOT
ATOM      1  C   UNL     1       1.284   9.727  18.228  0.00  0.00    +0.000 A 
ATOM      2  C   UNL     1       1.928  10.956  18.265  0.00  0.00    +0.000 A 
ATOM      3  C   UNL     1       0.959  11.954  18.554  0.00  0.00    +0.000 A 
ATOM      4  C   UNL     1      -0.249  11.308  18.689  0.00  0.00    +0.000 A 
ATOM      5  O   UNL     1      -0.043   9.967  18.526  0.00  0.00    +0.000 OA
ENDROOT
BRANCH   4   6
ATOM      6  C   UNL     1      -1.631  11.740  18.924  0.00  0.00    +0.000 A 
ATOM      7  C   UNL     1      -2.658  11.349  18.047  0.00  0.00    +0.000 A 
ATOM      8  C   UNL     1      -3.994  11.701  18.287  0.00  0.00    +0.000 A 
ATOM      9  C   UNL     1      -4.318  12.447  19.422  0.00  0.00    +0.000 A 
ATOM     10  C   UNL     1      -3.314  12.879  20.290  0.00  0.00    +0.000 A 
ATOM     11  C   UNL     1      -1.982  12.520  20.039  0.00  0.00    +0.000 A 
BRANCH   9  12
ATOM     12  S   UNL     1      -6.006  12.865  19.745  0.00  0.00    +0.000 S 
ATOM     13  O   UNL     1      -6.871  12.054  18.919  0.00  0.00    +0.000 OA
ATOM     14  O   UNL     1      -6.198  12.996  21.172  0.00  0.00    +0.000 OA
BRANCH  12  15
ATOM     15  N   UNL     1      -6.097  14.422  19.123  0.00  0.00    +0.000 NA
ATOM     16  H   UNL     1      -6.781  14.454  18.367  0.00  0.00    +0.000 HD
ATOM     17  H   UNL     1      -6.277  15.088  19.874  0.00  0.00    +0.000 HD
ENDBRANCH  12  15
ENDBRANCH   9  12
ENDBRANCH   4   6
BRANCH   1  19
ATOM     18  C   UNL     1       2.061   7.524  18.925  0.00  0.00    +0.000 C 
ATOM     19  C   UNL     1       1.815   8.424  17.949  0.00  0.00    +0.000 C 
BRANCH  18  20
ATOM     20  C   UNL     1       2.654   6.191  18.617  0.00  0.00    +0.000 C 
ATOM     21  O   UNL     1       2.094   5.150  18.949  0.00  0.00    +0.000 OA
ATOM     22  N   UNL     1       3.852   6.203  17.931  0.00  0.00    +0.000 N 
ATOM     23  H   UNL     1       4.353   7.079  17.810  0.00  0.00    +0.000 HD
BRANCH  22  24
ATOM     24  C   UNL     1       4.548   4.967  17.572  0.00  0.00    +0.000 C 
ATOM     25  C   UNL     1       5.440   4.482  18.725  0.00  0.00    +0.000 C 
ATOM     26  C   UNL     1       6.688   5.355  18.707  0.00  0.00    +0.000 C 
ATOM     27  S   UNL     1       7.073   5.552  16.978  0.00  0.00    +0.000 S 
ATOM     28  O   UNL     1       8.009   4.513  16.601  0.00  0.00    +0.000 OA
ATOM     29  O   UNL     1       7.325   6.953  16.720  0.00  0.00    +0.000 OA
ATOM     30  C   UNL     1       5.462   5.116  16.347  0.00  0.00    +0.000 C 
ENDBRANCH  22  24
ENDBRANCH  18  20
BRANCH  18  32
ATOM     31  N   UNL     1       1.369   8.150  21.544  0.00  0.00    +0.000 NA
ATOM     32  C   UNL     1       1.683   7.866  20.356  0.00  0.00    +0.000 C 
ENDBRANCH  18  32
ENDBRANCH   1  19
TORSDOF 7
ENDMDL
MODEL 7
REMARK VINA RESULT:      -7.5      1.934      2.741
REMARK  Name = 
REMARK  7 active torsions:
REMARK  status: ('A' for Active; 'I' for Inactive)
REMARK    1  A    between atoms: C_2  and  C_3
REMARK    2  A    between atoms: C_3  and  C_20
REMARK    3  A    between atoms: C_4  and  C_5
REMARK    4  A    between atoms: C_8  and  C_9
REMARK    5  A    between atoms: C_12  and  S_13
REMARK    6  A    between atoms: S_13  and  N_14
REMARK    7  A    between atoms: N_22  and  C_23
REMARK                            x       y       z     vdW  Elec       q    Type
REMARK                         _______ _______ _______ _____ _____    ______ ____
ROOT
ATOM      1  C   UNL     1       1.361   9.510  18.380  0.00  0.00    +0.000 A 
ATOM      2  C   UNL     1       1.875  10.797  18.301  0.00  0.00    +0.000 A 
ATOM      3  C   UNL     1       0.793  11.712  18.404  0.00  0.00    +0.000 A 
ATOM      4  C   UNL     1      -0.351  10.960  18.546  0.00  0.00    +0.000 A 
ATOM      5  O   UNL     1      -0.002   9.640  18.566  0.00  0.00    +0.000 OA
ENDROOT
BRANCH   4   6
ATOM      6  C   UNL     1      -1.783  11.266  18.643  0.00  0.00    +0.000 A 
ATOM      7  C   UNL     1      -2.256  12.158  19.622  0.00  0.00    +0.000 A 
ATOM      8  C   UNL     1      -3.612  12.510  19.692  0.00  0.00    +0.000 A 
ATOM      9  C   UNL     1      -4.513  11.973  18.771  0.00  0.00    +0.000 A 
ATOM     10  C   UNL     1      -4.076  11.057  17.812  0.00  0.00    +0.000 A 
ATOM     11  C   UNL     1      -2.718  10.715  17.751  0.00  0.00    +0.000 A 
BRANCH   9  12
ATOM     12  S   UNL     1      -6.218  12.439  18.836  0.00  0.00    +0.000 S 
ATOM     13  O   UNL     1      -6.920  11.859  17.716  0.00  0.00    +0.000 OA
ATOM     14  O   UNL     1      -6.692  12.315  20.196  0.00  0.00    +0.000 OA
BRANCH  12  15
ATOM     15  N   UNL     1      -6.133  14.087  18.528  0.00  0.00    +0.000 NA
ATOM     16  H   UNL     1      -5.338  14.287  17.922  0.00  0.00    +0.000 HD
ATOM     17  H   UNL     1      -7.026  14.421  18.164  0.00  0.00    +0.000 HD
ENDBRANCH  12  15
ENDBRANCH   9  12
ENDBRANCH   4   6
BRANCH   1  19
ATOM     18  C   UNL     1       2.227   7.463  19.380  0.00  0.00    +0.000 C 
ATOM     19  C   UNL     1       2.037   8.248  18.298  0.00  0.00    +0.000 C 
BRANCH  18  20
ATOM     20  C   UNL     1       2.971   6.175  19.282  0.00  0.00    +0.000 C 
ATOM     21  O   UNL     1       2.827   5.287  20.117  0.00  0.00    +0.000 OA
ATOM     22  N   UNL     1       3.813   6.042  18.195  0.00  0.00    +0.000 N 
ATOM     23  H   UNL     1       4.018   6.851  17.616  0.00  0.00    +0.000 HD
BRANCH  22  24
ATOM     24  C   UNL     1       4.610   4.834  17.980  0.00  0.00    +0.000 C 
ATOM     25  C   UNL     1       5.680   4.676  19.072  0.00  0.00    +0.000 C 
ATOM     26  C   UNL     1       6.801   5.647  18.726  0.00  0.00    +0.000 C 
ATOM     27  S   UNL     1       6.961   5.534  16.954  0.00  0.00    +0.000 S 
ATOM     28  O   UNL     1       7.968   4.538  16.653  0.00  0.00    +0.000 OA
ATOM     29  O   UNL     1       7.009   6.874  16.410  0.00  0.00    +0.000 OA
ATOM     30  C   UNL     1       5.354   4.825  16.637  0.00  0.00    +0.000 C 
ENDBRANCH  22  24
ENDBRANCH  18  20
BRANCH  18  32
ATOM     31  N   UNL     1       1.133   8.236  21.817  0.00  0.00    +0.000 NA
ATOM     32  C   UNL     1       1.629   7.885  20.712  0.00  0.00    +0.000 C 
ENDBRANCH  18  32
ENDBRANCH   1  19
TORSDOF 7
ENDMDL
MODEL 8
REMARK VINA RESULT:      -7.3      4.626      6.507
REMARK  Name = 
REMARK  7 active torsions:
REMARK  status: ('A' for Active; 'I' for Inactive)
REMARK    1  A    between atoms: C_2  and  C_3
REMARK    2  A    between atoms: C_3  and  C_20
REMARK    3  A    between atoms: C_4  and  C_5
REMARK    4  A    between atoms: C_8  and  C_9
REMARK    5  A    between atoms: C_12  and  S_13
REMARK    6  A    between atoms: S_13  and  N_14
REMARK    7  A    between atoms: N_22  and  C_23
REMARK                            x       y       z     vdW  Elec       q    Type
REMARK                         _______ _______ _______ _____ _____    ______ ____
ROOT
ATOM      1  C   UNL     1       1.375   9.879  18.186  0.00  0.00    +0.000 A 
ATOM      2  C   UNL     1       0.072  10.330  18.352  0.00  0.00    +0.000 A 
ATOM      3  C   UNL     1       0.123  11.700  18.725  0.00  0.00    +0.000 A 
ATOM      4  C   UNL     1       1.453  12.050  18.772  0.00  0.00    +0.000 A 
ATOM      5  O   UNL     1       2.200  10.963  18.416  0.00  0.00    +0.000 OA
ENDROOT
BRANCH   4   6
ATOM      6  C   UNL     1       2.190  13.265  19.137  0.00  0.00    +0.000 A 
ATOM      7  C   UNL     1       2.965  13.942  18.179  0.00  0.00    +0.000 A 
ATOM      8  C   UNL     1       3.628  15.138  18.491  0.00  0.00    +0.000 A 
ATOM      9  C   UNL     1       3.513  15.676  19.774  0.00  0.00    +0.000 A 
ATOM     10  C   UNL     1       2.779  15.005  20.755  0.00  0.00    +0.000 A 
ATOM     11  C   UNL     1       2.121  13.811  20.429  0.00  0.00    +0.000 A 
BRANCH   9  12
ATOM     12  S   UNL     1       4.321  17.201  20.162  0.00  0.00    +0.000 S 
ATOM     13  O   UNL     1       3.362  18.280  20.114  0.00  0.00    +0.000 OA
ATOM     14  O   UNL     1       5.202  16.997  21.289  0.00  0.00    +0.000 OA
BRANCH  12  15
ATOM     15  N   UNL     1       5.319  17.407  18.829  0.00  0.00    +0.000 NA
ATOM     16  H   UNL     1       6.281  17.550  19.134  0.00  0.00    +0.000 HD
ATOM     17  H   UNL     1       5.200  16.630  18.179  0.00  0.00    +0.000 HD
ENDBRANCH  12  15
ENDBRANCH   9  12
ENDBRANCH   4   6
BRANCH   1  19
ATOM     18  C   UNL     1       2.075   7.620  18.777  0.00  0.00    +0.000 C 
ATOM     19  C   UNL     1       1.853   8.571  17.844  0.00  0.00    +0.000 C 
BRANCH  18  20
ATOM     20  C   UNL     1       2.614   6.282  18.405  0.00  0.00    +0.000 C 
ATOM     21  O   UNL     1       2.012   5.249  18.684  0.00  0.00    +0.000 OA
ATOM     22  N   UNL     1       3.815   6.279  17.722  0.00  0.00    +0.000 N 
ATOM     23  H   UNL     1       4.351   7.138  17.645  0.00  0.00    +0.000 HD
BRANCH  22  24
ATOM     24  C   UNL     1       4.461   5.035  17.304  0.00  0.00    +0.000 C 
ATOM     25  C   UNL     1       5.272   4.420  18.455  0.00  0.00    +0.000 C 
ATOM     26  C   UNL     1       6.563   5.222  18.554  0.00  0.00    +0.000 C 
ATOM     27  S   UNL     1       7.038   5.520  16.863  0.00  0.00    +0.000 S 
ATOM     28  O   UNL     1       7.936   4.460  16.452  0.00  0.00    +0.000 OA
ATOM     29  O   UNL     1       7.375   6.919  16.719  0.00  0.00    +0.000 OA
ATOM     30  C   UNL     1       5.438   5.219  16.133  0.00  0.00    +0.000 C 
ENDBRANCH  22  24
ENDBRANCH  18  20
BRANCH  18  32
ATOM     31  N   UNL     1       1.432   8.156  21.429  0.00  0.00    +0.000 NA
ATOM     32  C   UNL     1       1.724   7.913  20.226  0.00  0.00    +0.000 C 
ENDBRANCH  18  32
ENDBRANCH   1  19
TORSDOF 7
ENDMDL
MODEL 9
REMARK VINA RESULT:      -7.3      1.066      1.446
REMARK  Name = 
REMARK  7 active torsions:
REMARK  status: ('A' for Active; 'I' for Inactive)
REMARK    1  A    between atoms: C_2  and  C_3
REMARK    2  A    between atoms: C_3  and  C_20
REMARK    3  A    between atoms: C_4  and  C_5
REMARK    4  A    between atoms: C_8  and  C_9
REMARK    5  A    between atoms: C_12  and  S_13
REMARK    6  A    between atoms: S_13  and  N_14
REMARK    7  A    between atoms: N_22  and  C_23
REMARK                            x       y       z     vdW  Elec       q    Type
REMARK                         _______ _______ _______ _____ _____    ______ ____
ROOT
ATOM      1  C   UNL     1       0.867  10.710  18.519  0.00  0.00    +0.000 A 
ATOM      2  C   UNL     1       1.329  11.953  18.929  0.00  0.00    +0.000 A 
ATOM      3  C   UNL     1       0.215  12.716  19.370  0.00  0.00    +0.000 A 
ATOM      4  C   UNL     1      -0.897  11.919  19.222  0.00  0.00    +0.000 A 
ATOM      5  O   UNL     1      -0.497  10.703  18.742  0.00  0.00    +0.000 OA
ENDROOT
BRANCH   4   6
ATOM      6  C   UNL     1      -2.337  12.105  19.428  0.00  0.00    +0.000 A 
ATOM      7  C   UNL     1      -3.258  11.674  18.456  0.00  0.00    +0.000 A 
ATOM      8  C   UNL     1      -4.640  11.788  18.661  0.00  0.00    +0.000 A 
ATOM      9  C   UNL     1      -5.119  12.331  19.854  0.00  0.00    +0.000 A 
ATOM     10  C   UNL     1      -4.227  12.800  20.821  0.00  0.00    +0.000 A 
ATOM     11  C   UNL     1      -2.847  12.679  20.605  0.00  0.00    +0.000 A 
BRANCH   9  12
ATOM     12  S   UNL     1      -6.862  12.447  20.130  0.00  0.00    +0.000 S 
ATOM     13  O   UNL     1      -7.149  13.624  20.916  0.00  0.00    +0.000 OA
ATOM     14  O   UNL     1      -7.558  12.149  18.898  0.00  0.00    +0.000 OA
BRANCH  12  15
ATOM     15  N   UNL     1      -7.136  11.135  21.141  0.00  0.00    +0.000 NA
ATOM     16  H   UNL     1      -8.116  10.859  21.094  0.00  0.00    +0.000 HD
ATOM     17  H   UNL     1      -6.482  10.384  20.924  0.00  0.00    +0.000 HD
ENDBRANCH  12  15
ENDBRANCH   9  12
ENDBRANCH   4   6
BRANCH   1  19
ATOM     18  C   UNL     1       1.961   8.541  18.717  0.00  0.00    +0.000 C 
ATOM     19  C   UNL     1       1.589   9.601  17.968  0.00  0.00    +0.000 C 
BRANCH  18  20
ATOM     20  C   UNL     1       2.750   7.420  18.135  0.00  0.00    +0.000 C 
ATOM     21  O   UNL     1       3.735   7.627  17.432  0.00  0.00    +0.000 OA
ATOM     22  N   UNL     1       2.315   6.146  18.445  0.00  0.00    +0.000 N 
ATOM     23  H   UNL     1       1.415   6.019  18.899  0.00  0.00    +0.000 HD
BRANCH  22  24
ATOM     24  C   UNL     1       2.992   4.954  17.933  0.00  0.00    +0.000 C 
ATOM     25  C   UNL     1       1.976   3.889  17.492  0.00  0.00    +0.000 C 
ATOM     26  C   UNL     1       1.464   3.224  18.762  0.00  0.00    +0.000 C 
ATOM     27  S   UNL     1       2.906   3.059  19.796  0.00  0.00    +0.000 S 
ATOM     28  O   UNL     1       3.487   1.753  19.557  0.00  0.00    +0.000 OA
ATOM     29  O   UNL     1       2.577   3.529  21.124  0.00  0.00    +0.000 OA
ATOM     30  C   UNL     1       3.907   4.281  18.966  0.00  0.00    +0.000 C 
ENDBRANCH  22  24
ENDBRANCH  18  20
BRANCH  18  32
ATOM     31  N   UNL     1       1.163   8.425  21.379  0.00  0.00    +0.000 NA
ATOM     32  C   UNL     1       1.525   8.478  20.172  0.00  0.00    +0.000 C 
ENDBRANCH  18  32
ENDBRANCH   1  19
TORSDOF 7
ENDMDL
