MODEL 1
REMARK VINA RESULT:      -9.1      0.000      0.000
REMARK  Name = 
REMARK  4 active torsions:
REMARK  status: ('A' for Active; 'I' for Inactive)
REMARK    1  A    between atoms: C_1  and  C_2
REMARK    2  A    between atoms: C_2  and  C_3
REMARK    3  A    between atoms: C_2  and  C_4
REMARK    4  A    between atoms: C_11  and  C_13
REMARK                            x       y       z     vdW  Elec       q    Type
REMARK                         _______ _______ _______ _____ _____    ______ ____
ROOT
ATOM      1  C   UNL     1       5.192   4.453  17.015  0.00  0.00    +0.000 A 
ATOM      2  C   UNL     1       5.192   3.588  18.124  0.00  0.00    +0.000 A 
ATOM      3  C   UNL     1       4.491   3.886  19.302  0.00  0.00    +0.000 A 
ATOM      4  C   UNL     1       3.787   5.089  19.326  0.00  0.00    +0.000 A 
ATOM      5  N   UNL     1       2.999   5.691  20.273  0.00  0.00    +0.000 N 
ATOM      6  C   UNL     1       2.534   6.883  19.769  0.00  0.00    +0.000 A 
ATOM      7  N   UNL     1       1.713   7.695  20.519  0.00  0.00    +0.000 N 
ATOM      8  C   UNL     1       1.222   8.896  20.032  0.00  0.00    +0.000 C 
ATOM      9  O   UNL     1       1.383   9.360  18.907  0.00  0.00    +0.000 OA
ATOM     10  N   UNL     1       2.999   7.074  18.556  0.00  0.00    +0.000 NA
ATOM     11  C   UNL     1       3.764   5.976  18.258  0.00  0.00    +0.000 A 
ATOM     12  C   UNL     1       4.471   5.662  17.088  0.00  0.00    +0.000 A 
ATOM     13  H   UNL     1       2.797   5.319  21.187  0.00  0.00    +0.000 HD
ATOM     14  H   UNL     1       1.424   7.372  21.427  0.00  0.00    +0.000 HD
ENDROOT
BRANCH   8  15
ATOM     15  C   UNL     1       0.380   9.686  20.990  0.00  0.00    +0.000 A 
ATOM     16  C   UNL     1       0.110   9.234  22.285  0.00  0.00    +0.000 A 
ATOM     17  C   UNL     1      -0.684   9.993  23.152  0.00  0.00    +0.000 A 
ATOM     18  C   UNL     1      -1.186  11.239  22.730  0.00  0.00    +0.000 A 
ATOM     19  C   UNL     1      -2.000  12.213  23.346  0.00  0.00    +0.000 A 
ATOM     20  C   UNL     1      -2.114  13.305  22.500  0.00  0.00    +0.000 A 
ATOM     21  N   UNL     1      -1.431  12.985  21.342  0.00  0.00    +0.000 N 
ATOM     22  C   UNL     1      -0.869  11.716  21.459  0.00  0.00    +0.000 A 
ATOM     23  C   UNL     1      -0.098  10.942  20.565  0.00  0.00    +0.000 A 
ATOM     24  C   UNL     1      -1.316  13.794  20.137  0.00  0.00    +0.000 C 
ATOM     25  C   UNL     1      -1.395  15.320  20.246  0.00  0.00    +0.000 C 
ATOM     26  C   UNL     1      -1.083  15.862  21.627  0.00  0.00    +0.000 C 
ATOM     27  N   UNL     1      -2.244  15.708  22.466  0.00  0.00    +0.000 N 
ATOM     28  C   UNL     1      -2.813  14.523  22.840  0.00  0.00    +0.000 C 
ATOM     29  O   UNL     1      -3.847  14.548  23.503  0.00  0.00    +0.000 OA
ATOM     30  H   UNL     1      -2.761  16.523  22.769  0.00  0.00    +0.000 HD
ENDBRANCH   8  15
BRANCH   1  32
ATOM     31  C   UNL     1       5.114   4.436  14.483  0.00  0.00    +0.000 C 
ATOM     32  C   UNL     1       5.934   4.105  15.733  0.00  0.00    +0.000 C 
ATOM     33  C   UNL     1       7.301   4.793  15.678  0.00  0.00    +0.000 C 
ENDBRANCH   1  32
TORSDOF 2
ENDMDL
MODEL 2
REMARK VINA RESULT:      -8.9      3.624     10.567
REMARK  Name = 
REMARK  4 active torsions:
REMARK  status: ('A' for Active; 'I' for Inactive)
REMARK    1  A    between atoms: C_1  and  C_2
REMARK    2  A    between atoms: C_2  and  C_3
REMARK    3  A    between atoms: C_2  and  C_4
REMARK    4  A    between atoms: C_11  and  C_13
REMARK                            x       y       z     vdW  Elec       q    Type
REMARK                         _______ _______ _______ _____ _____    ______ ____
ROOT
ATOM      1  C   UNL     1       0.233  16.025  18.827  0.00  0.00    +0.000 A 
ATOM      2  C   UNL     1       1.533  16.447  18.490  0.00  0.00    +0.000 A 
ATOM      3  C   UNL     1       2.558  15.537  18.190  0.00  0.00    +0.000 A 
ATOM      4  C   UNL     1       2.230  14.183  18.239  0.00  0.00    +0.000 A 
ATOM      5  N   UNL     1       2.947  13.040  18.002  0.00  0.00    +0.000 N 
ATOM      6  C   UNL     1       2.124  11.953  18.188  0.00  0.00    +0.000 A 
ATOM      7  N   UNL     1       2.594  10.671  18.011  0.00  0.00    +0.000 N 
ATOM      8  C   UNL     1       1.784   9.561  18.183  0.00  0.00    +0.000 C 
ATOM      9  O   UNL     1       0.583   9.552  18.439  0.00  0.00    +0.000 OA
ATOM     10  N   UNL     1       0.925  12.350  18.545  0.00  0.00    +0.000 NA
ATOM     11  C   UNL     1       0.964  13.721  18.572  0.00  0.00    +0.000 A 
ATOM     12  C   UNL     1      -0.050  14.645  18.871  0.00  0.00    +0.000 A 
ATOM     13  H   UNL     1       3.918  13.004  17.736  0.00  0.00    +0.000 HD
ATOM     14  H   UNL     1       3.543  10.551  17.698  0.00  0.00    +0.000 HD
ENDROOT
BRANCH   8  15
ATOM     15  C   UNL     1       2.460   8.233  18.001  0.00  0.00    +0.000 A 
ATOM     16  C   UNL     1       3.620   8.092  17.233  0.00  0.00    +0.000 A 
ATOM     17  C   UNL     1       4.222   6.839  17.079  0.00  0.00    +0.000 A 
ATOM     18  C   UNL     1       3.677   5.716  17.731  0.00  0.00    +0.000 A 
ATOM     19  C   UNL     1       4.034   4.351  17.769  0.00  0.00    +0.000 A 
ATOM     20  C   UNL     1       3.194   3.691  18.651  0.00  0.00    +0.000 A 
ATOM     21  N   UNL     1       2.282   4.624  19.108  0.00  0.00    +0.000 N 
ATOM     22  C   UNL     1       2.553   5.867  18.542  0.00  0.00    +0.000 A 
ATOM     23  C   UNL     1       1.918   7.120  18.675  0.00  0.00    +0.000 A 
ATOM     24  C   UNL     1       1.164   4.392  20.011  0.00  0.00    +0.000 C 
ATOM     25  C   UNL     1       1.250   3.257  21.037  0.00  0.00    +0.000 C 
ATOM     26  C   UNL     1       2.663   2.812  21.356  0.00  0.00    +0.000 C 
ATOM     27  N   UNL     1       3.130   1.943  20.305  0.00  0.00    +0.000 N 
ATOM     28  C   UNL     1       3.320   2.294  18.998  0.00  0.00    +0.000 C 
ATOM     29  O   UNL     1       3.656   1.424  18.197  0.00  0.00    +0.000 OA
ATOM     30  H   UNL     1       3.273   0.958  20.489  0.00  0.00    +0.000 HD
ENDBRANCH   8  15
BRANCH   1  32
ATOM     31  C   UNL     1      -0.599  17.832  20.394  0.00  0.00    +0.000 C 
ATOM     32  C   UNL     1      -0.876  17.022  19.124  0.00  0.00    +0.000 C 
ATOM     33  C   UNL     1      -1.120  17.953  17.933  0.00  0.00    +0.000 C 
ENDBRANCH   1  32
TORSDOF 2
ENDMDL
MODEL 3
REMARK VINA RESULT:      -8.9      1.826      3.086
REMARK  Name = 
REMARK  4 active torsions:
REMARK  status: ('A' for Active; 'I' for Inactive)
REMARK    1  A    between atoms: C_1  and  C_2
REMARK    2  A    between atoms: C_2  and  C_3
REMARK    3  A    between atoms: C_2  and  C_4
REMARK    4  A    between atoms: C_11  and  C_13
REMARK                            x       y       z     vdW  Elec       q    Type
REMARK                         _______ _______ _______ _____ _____    ______ ____
ROOT
ATOM      1  C   UNL     1       2.811   4.624  18.442  0.00  0.00    +0.000 A 
ATOM      2  C   UNL     1       2.601   4.085  19.724  0.00  0.00    +0.000 A 
ATOM      3  C   UNL     1       2.156   4.869  20.800  0.00  0.00    +0.000 A 
ATOM      4  C   UNL     1       1.929   6.220  20.539  0.00  0.00    +0.000 A 
ATOM      5  N   UNL     1       1.492   7.260  21.318  0.00  0.00    +0.000 N 
ATOM      6  C   UNL     1       1.438   8.398  20.547  0.00  0.00    +0.000 A 
ATOM      7  N   UNL     1       1.026   9.597  21.085  0.00  0.00    +0.000 N 
ATOM      8  C   UNL     1       0.953  10.756  20.329  0.00  0.00    +0.000 C 
ATOM      9  O   UNL     1       1.169  10.870  19.125  0.00  0.00    +0.000 OA
ATOM     10  N   UNL     1       1.833   8.135  19.323  0.00  0.00    +0.000 NA
ATOM     11  C   UNL     1       2.129   6.796  19.292  0.00  0.00    +0.000 A 
ATOM     12  C   UNL     1       2.575   5.997  18.228  0.00  0.00    +0.000 A 
ATOM     13  H   UNL     1       1.252   7.198  22.294  0.00  0.00    +0.000 HD
ATOM     14  H   UNL     1       0.722   9.609  22.044  0.00  0.00    +0.000 HD
ENDROOT
BRANCH   8  15
ATOM     15  C   UNL     1       0.533  11.988  21.074  0.00  0.00    +0.000 A 
ATOM     16  C   UNL     1       1.195  13.210  20.917  0.00  0.00    +0.000 A 
ATOM     17  C   UNL     1       0.781  14.339  21.632  0.00  0.00    +0.000 A 
ATOM     18  C   UNL     1      -0.333  14.255  22.489  0.00  0.00    +0.000 A 
ATOM     19  C   UNL     1      -0.978  15.185  23.332  0.00  0.00    +0.000 A 
ATOM     20  C   UNL     1      -2.097  14.587  23.889  0.00  0.00    +0.000 A 
ATOM     21  N   UNL     1      -2.110  13.277  23.448  0.00  0.00    +0.000 N 
ATOM     22  C   UNL     1      -1.027  13.051  22.602  0.00  0.00    +0.000 A 
ATOM     23  C   UNL     1      -0.597  11.898  21.913  0.00  0.00    +0.000 A 
ATOM     24  C   UNL     1      -3.062  12.236  23.812  0.00  0.00    +0.000 C 
ATOM     25  C   UNL     1      -4.489  12.628  24.207  0.00  0.00    +0.000 C 
ATOM     26  C   UNL     1      -4.921  13.991  23.705  0.00  0.00    +0.000 C 
ATOM     27  N   UNL     1      -4.368  15.006  24.566  0.00  0.00    +0.000 N 
ATOM     28  C   UNL     1      -3.039  15.271  24.745  0.00  0.00    +0.000 C 
ATOM     29  O   UNL     1      -2.713  16.122  25.569  0.00  0.00    +0.000 OA
ATOM     30  H   UNL     1      -4.977  15.547  25.166  0.00  0.00    +0.000 HD
ENDBRANCH   8  15
BRANCH   1  32
ATOM     31  C   UNL     1       4.701   4.079  16.845  0.00  0.00    +0.000 C 
ATOM     32  C   UNL     1       3.267   3.757  17.278  0.00  0.00    +0.000 C 
ATOM     33  C   UNL     1       3.125   2.268  17.605  0.00  0.00    +0.000 C 
ENDBRANCH   1  32
TORSDOF 2
ENDMDL
MODEL 4
REMARK VINA RESULT:      -8.7      6.633     10.349
REMARK  Name = 
REMARK  4 active torsions:
REMARK  status: ('A' for Active; 'I' for Inactive)
REMARK    1  A    between atoms: C_1  and  C_2
REMARK    2  A    between atoms: C_2  and  C_3
REMARK    3  A    between atoms: C_2  and  C_4
REMARK    4  A    between atoms: C_11  and  C_13
REMARK                            x       y       z     vdW  Elec       q    Type
REMARK                         _______ _______ _______ _____ _____    ______ ____
ROOT
ATOM      1  C   UNL     1      10.794  13.837  18.640  0.00  0.00    +0.000 A 
ATOM      2  C   UNL     1      11.419  13.378  19.814  0.00  0.00    +0.000 A 
ATOM      3  C   UNL     1      11.182  12.096  20.334  0.00  0.00    +0.000 A 
ATOM      4  C   UNL     1      10.291  11.289  19.628  0.00  0.00    +0.000 A 
ATOM      5  N   UNL     1       9.837  10.010  19.821  0.00  0.00    +0.000 N 
ATOM      6  C   UNL     1       8.962   9.693  18.807  0.00  0.00    +0.000 A 
ATOM      7  N   UNL     1       8.356   8.458  18.757  0.00  0.00    +0.000 N 
ATOM      8  C   UNL     1       7.480   8.109  17.742  0.00  0.00    +0.000 C 
ATOM      9  O   UNL     1       7.178   8.782  16.761  0.00  0.00    +0.000 OA
ATOM     10  N   UNL     1       8.829  10.711  17.990  0.00  0.00    +0.000 NA
ATOM     11  C   UNL     1       9.647  11.702  18.469  0.00  0.00    +0.000 A 
ATOM     12  C   UNL     1       9.896  12.987  17.965  0.00  0.00    +0.000 A 
ATOM     13  H   UNL     1      10.101   9.405  20.582  0.00  0.00    +0.000 HD
ATOM     14  H   UNL     1       8.604   7.777  19.456  0.00  0.00    +0.000 HD
ENDROOT
BRANCH   8  15
ATOM     15  C   UNL     1       6.866   6.745  17.859  0.00  0.00    +0.000 A 
ATOM     16  C   UNL     1       7.575   5.584  17.532  0.00  0.00    +0.000 A 
ATOM     17  C   UNL     1       6.971   4.327  17.647  0.00  0.00    +0.000 A 
ATOM     18  C   UNL     1       5.652   4.226  18.128  0.00  0.00    +0.000 A 
ATOM     19  C   UNL     1       4.782   3.136  18.346  0.00  0.00    +0.000 A 
ATOM     20  C   UNL     1       3.612   3.603  18.924  0.00  0.00    +0.000 A 
ATOM     21  N   UNL     1       3.728   4.978  19.005  0.00  0.00    +0.000 N 
ATOM     22  C   UNL     1       4.965   5.379  18.506  0.00  0.00    +0.000 A 
ATOM     23  C   UNL     1       5.552   6.654  18.362  0.00  0.00    +0.000 A 
ATOM     24  C   UNL     1       2.727   5.918  19.489  0.00  0.00    +0.000 C 
ATOM     25  C   UNL     1       1.707   5.456  20.535  0.00  0.00    +0.000 C 
ATOM     26  C   UNL     1       2.138   4.239  21.330  0.00  0.00    +0.000 C 
ATOM     27  N   UNL     1       1.912   3.057  20.537  0.00  0.00    +0.000 N 
ATOM     28  C   UNL     1       2.527   2.752  19.356  0.00  0.00    +0.000 C 
ATOM     29  O   UNL     1       2.180   1.738  18.754  0.00  0.00    +0.000 OA
ATOM     30  H   UNL     1       1.189   2.400  20.804  0.00  0.00    +0.000 HD
ENDBRANCH   8  15
BRANCH   1  32
ATOM     31  C   UNL     1       9.798  15.997  17.769  0.00  0.00    +0.000 C 
ATOM     32  C   UNL     1      11.082  15.219  18.073  0.00  0.00    +0.000 C 
ATOM     33  C   UNL     1      11.992  16.024  19.005  0.00  0.00    +0.000 C 
ENDBRANCH   1  32
TORSDOF 2
ENDMDL
MODEL 5
REMARK VINA RESULT:      -8.7      2.392      4.009
REMARK  Name = 
REMARK  4 active torsions:
REMARK  status: ('A' for Active; 'I' for Inactive)
REMARK    1  A    between atoms: C_1  and  C_2
REMARK    2  A    between atoms: C_2  and  C_3
REMARK    3  A    between atoms: C_2  and  C_4
REMARK    4  A    between atoms: C_11  and  C_13
REMARK                            x       y       z     vdW  Elec       q    Type
REMARK                         _______ _______ _______ _____ _____    ______ ____
ROOT
ATOM      1  C   UNL     1       2.700   4.501  19.740  0.00  0.00    +0.000 A 
ATOM      2  C   UNL     1       3.192   5.146  18.591  0.00  0.00    +0.000 A 
ATOM      3  C   UNL     1       2.971   6.511  18.349  0.00  0.00    +0.000 A 
ATOM      4  C   UNL     1       2.234   7.206  19.307  0.00  0.00    +0.000 A 
ATOM      5  N   UNL     1       1.841   8.515  19.412  0.00  0.00    +0.000 N 
ATOM      6  C   UNL     1       1.130   8.671  20.580  0.00  0.00    +0.000 A 
ATOM      7  N   UNL     1       0.616   9.898  20.936  0.00  0.00    +0.000 N 
ATOM      8  C   UNL     1      -0.095  10.085  22.110  0.00  0.00    +0.000 C 
ATOM      9  O   UNL     1      -0.307   9.253  22.988  0.00  0.00    +0.000 OA
ATOM     10  N   UNL     1       1.041   7.524  21.212  0.00  0.00    +0.000 NA
ATOM     11  C   UNL     1       1.724   6.610  20.452  0.00  0.00    +0.000 A 
ATOM     12  C   UNL     1       1.954   5.244  20.677  0.00  0.00    +0.000 A 
ATOM     13  H   UNL     1       2.041   9.241  18.743  0.00  0.00    +0.000 HD
ATOM     14  H   UNL     1       0.813  10.687  20.343  0.00  0.00    +0.000 HD
ENDROOT
BRANCH   8  15
ATOM     15  C   UNL     1      -0.629  11.470  22.329  0.00  0.00    +0.000 A 
ATOM     16  C   UNL     1       0.013  12.600  21.815  0.00  0.00    +0.000 A 
ATOM     17  C   UNL     1      -0.510  13.878  22.042  0.00  0.00    +0.000 A 
ATOM     18  C   UNL     1      -1.710  14.025  22.763  0.00  0.00    +0.000 A 
ATOM     19  C   UNL     1      -2.472  15.147  23.157  0.00  0.00    +0.000 A 
ATOM     20  C   UNL     1      -3.629  14.709  23.780  0.00  0.00    +0.000 A 
ATOM     21  N   UNL     1      -3.557  13.329  23.831  0.00  0.00    +0.000 N 
ATOM     22  C   UNL     1      -2.380  12.893  23.226  0.00  0.00    +0.000 A 
ATOM     23  C   UNL     1      -1.843  11.603  23.033  0.00  0.00    +0.000 A 
ATOM     24  C   UNL     1      -4.515  12.420  24.445  0.00  0.00    +0.000 C 
ATOM     25  C   UNL     1      -5.987  12.831  24.538  0.00  0.00    +0.000 C 
ATOM     26  C   UNL     1      -6.398  13.903  23.548  0.00  0.00    +0.000 C 
ATOM     27  N   UNL     1      -5.973  15.188  24.044  0.00  0.00    +0.000 N 
ATOM     28  C   UNL     1      -4.680  15.584  24.245  0.00  0.00    +0.000 C 
ATOM     29  O   UNL     1      -4.472  16.688  24.742  0.00  0.00    +0.000 OA
ATOM     30  H   UNL     1      -6.660  15.864  24.354  0.00  0.00    +0.000 HD
ENDBRANCH   8  15
BRANCH   1  32
ATOM     31  C   UNL     1       2.635   2.628  21.444  0.00  0.00    +0.000 C 
ATOM     32  C   UNL     1       2.970   3.028  20.004  0.00  0.00    +0.000 C 
ATOM     33  C   UNL     1       2.220   2.137  19.009  0.00  0.00    +0.000 C 
ENDBRANCH   1  32
TORSDOF 2
ENDMDL
MODEL 6
REMARK VINA RESULT:      -8.7      0.957      1.276
REMARK  Name = 
REMARK  4 active torsions:
REMARK  status: ('A' for Active; 'I' for Inactive)
REMARK    1  A    between atoms: C_1  and  C_2
REMARK    2  A    between atoms: C_2  and  C_3
REMARK    3  A    between atoms: C_2  and  C_4
REMARK    4  A    between atoms: C_11  and  C_13
REMARK                            x       y       z     vdW  Elec       q    Type
REMARK                         _______ _______ _______ _____ _____    ______ ____
ROOT
ATOM      1  C   UNL     1       5.487   4.988  15.547  0.00  0.00    +0.000 A 
ATOM      2  C   UNL     1       5.324   3.859  16.370  0.00  0.00    +0.000 A 
ATOM      3  C   UNL     1       4.558   3.896  17.545  0.00  0.00    +0.000 A 
ATOM      4  C   UNL     1       3.958   5.114  17.864  0.00  0.00    +0.000 A 
ATOM      5  N   UNL     1       3.151   5.514  18.897  0.00  0.00    +0.000 N 
ATOM      6  C   UNL     1       2.830   6.840  18.721  0.00  0.00    +0.000 A 
ATOM      7  N   UNL     1       2.023   7.498  19.621  0.00  0.00    +0.000 N 
ATOM      8  C   UNL     1       1.676   8.830  19.462  0.00  0.00    +0.000 C 
ATOM      9  O   UNL     1       1.966   9.563  18.521  0.00  0.00    +0.000 OA
ATOM     10  N   UNL     1       3.406   7.304  17.636  0.00  0.00    +0.000 NA
ATOM     11  C   UNL     1       4.096   6.255  17.086  0.00  0.00    +0.000 A 
ATOM     12  C   UNL     1       4.867   6.200  15.915  0.00  0.00    +0.000 A 
ATOM     13  H   UNL     1       2.845   4.930  19.660  0.00  0.00    +0.000 HD
ATOM     14  H   UNL     1       1.636   6.971  20.387  0.00  0.00    +0.000 HD
ENDROOT
BRANCH   8  15
ATOM     15  C   UNL     1       0.830   9.412  20.556  0.00  0.00    +0.000 A 
ATOM     16  C   UNL     1       0.747   8.824  21.821  0.00  0.00    +0.000 A 
ATOM     17  C   UNL     1      -0.057   9.390  22.817  0.00  0.00    +0.000 A 
ATOM     18  C   UNL     1      -0.760  10.581  22.555  0.00  0.00    +0.000 A 
ATOM     19  C   UNL     1      -1.636  11.377  23.323  0.00  0.00    +0.000 A 
ATOM     20  C   UNL     1      -1.977  12.505  22.594  0.00  0.00    +0.000 A 
ATOM     21  N   UNL     1      -1.369  12.380  21.359  0.00  0.00    +0.000 N 
ATOM     22  C   UNL     1      -0.632  11.199  21.311  0.00  0.00    +0.000 A 
ATOM     23  C   UNL     1       0.148  10.617  20.289  0.00  0.00    +0.000 A 
ATOM     24  C   UNL     1      -1.479  13.291  20.228  0.00  0.00    +0.000 C 
ATOM     25  C   UNL     1      -1.753  14.776  20.484  0.00  0.00    +0.000 C 
ATOM     26  C   UNL     1      -1.388  15.245  21.878  0.00  0.00    +0.000 C 
ATOM     27  N   UNL     1      -2.433  14.860  22.792  0.00  0.00    +0.000 N 
ATOM     28  C   UNL     1      -2.799  13.579  23.101  0.00  0.00    +0.000 C 
ATOM     29  O   UNL     1      -3.760  13.404  23.847  0.00  0.00    +0.000 OA
ATOM     30  H   UNL     1      -3.024  15.566  23.212  0.00  0.00    +0.000 HD
ENDBRANCH   8  15
BRANCH   1  32
ATOM     31  C   UNL     1       7.804   5.018  14.524  0.00  0.00    +0.000 C 
ATOM     32  C   UNL     1       6.298   4.927  14.262  0.00  0.00    +0.000 C 
ATOM     33  C   UNL     1       5.967   3.668  13.455  0.00  0.00    +0.000 C 
ENDBRANCH   1  32
TORSDOF 2
ENDMDL
MODEL 7
REMARK VINA RESULT:      -8.6      2.629     10.989
REMARK  Name = 
REMARK  4 active torsions:
REMARK  status: ('A' for Active; 'I' for Inactive)
REMARK    1  A    between atoms: C_1  and  C_2
REMARK    2  A    between atoms: C_2  and  C_3
REMARK    3  A    between atoms: C_2  and  C_4
REMARK    4  A    between atoms: C_11  and  C_13
REMARK                            x       y       z     vdW  Elec       q    Type
REMARK                         _______ _______ _______ _____ _____    ______ ____
ROOT
ATOM      1  C   UNL     1      -2.541  14.615  23.601  0.00  0.00    +0.000 A 
ATOM      2  C   UNL     1      -3.317  14.803  22.443  0.00  0.00    +0.000 A 
ATOM      3  C   UNL     1      -3.150  14.012  21.296  0.00  0.00    +0.000 A 
ATOM      4  C   UNL     1      -2.171  13.021  21.356  0.00  0.00    +0.000 A 
ATOM      5  N   UNL     1      -1.745  12.075  20.460  0.00  0.00    +0.000 N 
ATOM      6  C   UNL     1      -0.743  11.334  21.042  0.00  0.00    +0.000 A 
ATOM      7  N   UNL     1      -0.134  10.307  20.355  0.00  0.00    +0.000 N 
ATOM      8  C   UNL     1       0.871   9.539  20.920  0.00  0.00    +0.000 C 
ATOM      9  O   UNL     1       1.301   9.610  22.068  0.00  0.00    +0.000 OA
ATOM     10  N   UNL     1      -0.502  11.771  22.255  0.00  0.00    +0.000 NA
ATOM     11  C   UNL     1      -1.378  12.803  22.475  0.00  0.00    +0.000 A 
ATOM     12  C   UNL     1      -1.559  13.604  23.612  0.00  0.00    +0.000 A 
ATOM     13  H   UNL     1      -2.108  11.947  19.529  0.00  0.00    +0.000 HD
ATOM     14  H   UNL     1      -0.472  10.083  19.434  0.00  0.00    +0.000 HD
ENDROOT
BRANCH   8  15
ATOM     15  C   UNL     1       1.465   8.491  20.025  0.00  0.00    +0.000 A 
ATOM     16  C   UNL     1       2.092   8.818  18.818  0.00  0.00    +0.000 A 
ATOM     17  C   UNL     1       2.631   7.815  18.004  0.00  0.00    +0.000 A 
ATOM     18  C   UNL     1       2.573   6.471  18.418  0.00  0.00    +0.000 A 
ATOM     19  C   UNL     1       3.005   5.260  17.837  0.00  0.00    +0.000 A 
ATOM     20  C   UNL     1       2.774   4.225  18.728  0.00  0.00    +0.000 A 
ATOM     21  N   UNL     1       2.144   4.779  19.828  0.00  0.00    +0.000 N 
ATOM     22  C   UNL     1       1.998   6.152  19.648  0.00  0.00    +0.000 A 
ATOM     23  C   UNL     1       1.421   7.151  20.460  0.00  0.00    +0.000 A 
ATOM     24  C   UNL     1       1.650   4.077  21.004  0.00  0.00    +0.000 C 
ATOM     25  C   UNL     1       2.325   2.773  21.439  0.00  0.00    +0.000 C 
ATOM     26  C   UNL     1       3.738   2.599  20.918  0.00  0.00    +0.000 C 
ATOM     27  N   UNL     1       3.681   2.152  19.549  0.00  0.00    +0.000 N 
ATOM     28  C   UNL     1       3.164   2.853  18.496  0.00  0.00    +0.000 C 
ATOM     29  O   UNL     1       3.119   2.314  17.393  0.00  0.00    +0.000 OA
ATOM     30  H   UNL     1       3.973   1.213  19.311  0.00  0.00    +0.000 HD
ENDBRANCH   8  15
BRANCH   1  32
ATOM     31  C   UNL     1      -1.429  15.826  25.528  0.00  0.00    +0.000 C 
ATOM     32  C   UNL     1      -2.752  15.462  24.847  0.00  0.00    +0.000 C 
ATOM     33  C   UNL     1      -3.561  16.723  24.532  0.00  0.00    +0.000 C 
ENDBRANCH   1  32
TORSDOF 2
ENDMDL
MODEL 8
REMARK VINA RESULT:      -8.5      2.553      3.011
REMARK  Name = 
REMARK  4 active torsions:
REMARK  status: ('A' for Active; 'I' for Inactive)
REMARK    1  A    between atoms: C_1  and  C_2
REMARK    2  A    between atoms: C_2  and  C_3
REMARK    3  A    between atoms: C_2  and  C_4
REMARK    4  A    between atoms: C_11  and  C_13
REMARK                            x       y       z     vdW  Elec       q    Type
REMARK                         _______ _______ _______ _____ _____    ______ ____
ROOT
ATOM      1  C   UNL     1       5.130   4.743  17.474  0.00  0.00    +0.000 A 
ATOM      2  C   UNL     1       4.878   4.152  18.726  0.00  0.00    +0.000 A 
ATOM      3  C   UNL     1       3.988   4.718  19.652  0.00  0.00    +0.000 A 
ATOM      4  C   UNL     1       3.358   5.903  19.273  0.00  0.00    +0.000 A 
ATOM      5  N   UNL     1       2.443   6.713  19.894  0.00  0.00    +0.000 N 
ATOM      6  C   UNL     1       2.145   7.765  19.060  0.00  0.00    +0.000 A 
ATOM      7  N   UNL     1       1.244   8.735  19.440  0.00  0.00    +0.000 N 
ATOM      8  C   UNL     1       0.918   9.799  18.614  0.00  0.00    +0.000 C 
ATOM      9  O   UNL     1       1.308   9.993  17.467  0.00  0.00    +0.000 OA
ATOM     10  N   UNL     1       2.835   7.670  17.947  0.00  0.00    +0.000 NA
ATOM     11  C   UNL     1       3.581   6.524  18.052  0.00  0.00    +0.000 A 
ATOM     12  C   UNL     1       4.475   5.945  17.138  0.00  0.00    +0.000 A 
ATOM     13  H   UNL     1       2.056   6.561  20.812  0.00  0.00    +0.000 HD
ATOM     14  H   UNL     1       0.775   8.630  20.324  0.00  0.00    +0.000 HD
ENDROOT
BRANCH   8  15
ATOM     15  C   UNL     1      -0.043  10.795  19.194  0.00  0.00    +0.000 A 
ATOM     16  C   UNL     1       0.381  11.828  20.036  0.00  0.00    +0.000 A 
ATOM     17  C   UNL     1      -0.542  12.737  20.564  0.00  0.00    +0.000 A 
ATOM     18  C   UNL     1      -1.903  12.634  20.218  0.00  0.00    +0.000 A 
ATOM     19  C   UNL     1      -3.052  13.370  20.579  0.00  0.00    +0.000 A 
ATOM     20  C   UNL     1      -4.138  12.887  19.866  0.00  0.00    +0.000 A 
ATOM     21  N   UNL     1      -3.680  11.818  19.118  0.00  0.00    +0.000 N 
ATOM     22  C   UNL     1      -2.316  11.638  19.334  0.00  0.00    +0.000 A 
ATOM     23  C   UNL     1      -1.399  10.696  18.823  0.00  0.00    +0.000 A 
ATOM     24  C   UNL     1      -4.466  10.951  18.252  0.00  0.00    +0.000 C 
ATOM     25  C   UNL     1      -5.731  11.501  17.586  0.00  0.00    +0.000 C 
ATOM     26  C   UNL     1      -5.773  13.013  17.484  0.00  0.00    +0.000 C 
ATOM     27  N   UNL     1      -6.166  13.559  18.759  0.00  0.00    +0.000 N 
ATOM     28  C   UNL     1      -5.464  13.456  19.927  0.00  0.00    +0.000 C 
ATOM     29  O   UNL     1      -5.960  13.912  20.955  0.00  0.00    +0.000 OA
ATOM     30  H   UNL     1      -7.070  14.003  18.862  0.00  0.00    +0.000 HD
ENDBRANCH   8  15
BRANCH   1  32
ATOM     31  C   UNL     1       5.662   4.394  15.022  0.00  0.00    +0.000 C 
ATOM     32  C   UNL     1       6.076   4.105  16.468  0.00  0.00    +0.000 C 
ATOM     33  C   UNL     1       7.524   4.540  16.712  0.00  0.00    +0.000 C 
ENDBRANCH   1  32
TORSDOF 2
ENDMDL
MODEL 9
REMARK VINA RESULT:      -8.5      1.549      2.208
REMARK  Name = 
REMARK  4 active torsions:
REMARK  status: ('A' for Active; 'I' for Inactive)
REMARK    1  A    between atoms: C_1  and  C_2
REMARK    2  A    between atoms: C_2  and  C_3
REMARK    3  A    between atoms: C_2  and  C_4
REMARK    4  A    between atoms: C_11  and  C_13
REMARK                            x       y       z     vdW  Elec       q    Type
REMARK                         _______ _______ _______ _____ _____    ______ ____
ROOT
ATOM      1  C   UNL     1       6.434   4.565  14.894  0.00  0.00    +0.000 A 
ATOM      2  C   UNL     1       7.164   4.079  15.995  0.00  0.00    +0.000 A 
ATOM      3  C   UNL     1       6.825   4.405  17.317  0.00  0.00    +0.000 A 
ATOM      4  C   UNL     1       5.721   5.238  17.494  0.00  0.00    +0.000 A 
ATOM      5  N   UNL     1       5.104   5.744  18.608  0.00  0.00    +0.000 N 
ATOM      6  C   UNL     1       4.036   6.516  18.210  0.00  0.00    +0.000 A 
ATOM      7  N   UNL     1       3.236   7.146  19.137  0.00  0.00    +0.000 N 
ATOM      8  C   UNL     1       2.149   7.920  18.764  0.00  0.00    +0.000 C 
ATOM      9  O   UNL     1       1.722   8.099  17.627  0.00  0.00    +0.000 OA
ATOM     10  N   UNL     1       3.954   6.535  16.901  0.00  0.00    +0.000 NA
ATOM     11  C   UNL     1       4.976   5.745  16.438  0.00  0.00    +0.000 A 
ATOM     12  C   UNL     1       5.330   5.410  15.123  0.00  0.00    +0.000 A 
ATOM     13  H   UNL     1       5.388   5.578  19.560  0.00  0.00    +0.000 HD
ATOM     14  H   UNL     1       3.425   6.992  20.114  0.00  0.00    +0.000 HD
ENDROOT
BRANCH   8  15
ATOM     15  C   UNL     1       1.408   8.579  19.891  0.00  0.00    +0.000 A 
ATOM     16  C   UNL     1       1.080   7.892  21.063  0.00  0.00    +0.000 A 
ATOM     17  C   UNL     1       0.384   8.535  22.092  0.00  0.00    +0.000 A 
ATOM     18  C   UNL     1       0.041   9.894  21.962  0.00  0.00    +0.000 A 
ATOM     19  C   UNL     1      -0.649  10.802  22.794  0.00  0.00    +0.000 A 
ATOM     20  C   UNL     1      -0.625  12.057  22.207  0.00  0.00    +0.000 A 
ATOM     21  N   UNL     1       0.017  11.917  20.991  0.00  0.00    +0.000 N 
ATOM     22  C   UNL     1       0.418  10.594  20.817  0.00  0.00    +0.000 A 
ATOM     23  C   UNL     1       1.089   9.946  19.759  0.00  0.00    +0.000 A 
ATOM     24  C   UNL     1       0.234  12.949  19.986  0.00  0.00    +0.000 C 
ATOM     25  C   UNL     1       0.343  14.412  20.425  0.00  0.00    +0.000 C 
ATOM     26  C   UNL     1       0.717  14.599  21.882  0.00  0.00    +0.000 C 
ATOM     27  N   UNL     1      -0.458  14.408  22.696  0.00  0.00    +0.000 N 
ATOM     28  C   UNL     1      -1.170  13.248  22.818  0.00  0.00    +0.000 C 
ATOM     29  O   UNL     1      -2.195  13.253  23.496  0.00  0.00    +0.000 OA
ATOM     30  H   UNL     1      -0.871  15.194  23.181  0.00  0.00    +0.000 HD
ENDBRANCH   8  15
BRANCH   1  32
ATOM     31  C   UNL     1       5.563   3.807  12.639  0.00  0.00    +0.000 C 
ATOM     32  C   UNL     1       6.797   4.182  13.467  0.00  0.00    +0.000 C 
ATOM     33  C   UNL     1       7.591   5.294  12.777  0.00  0.00    +0.000 C 
ENDBRANCH   1  32
TORSDOF 2
ENDMDL
