MODEL 1
REMARK VINA RESULT:      -6.9      0.000      0.000
REMARK  Name = 
REMARK  9 active torsions:
REMARK  status: ('A' for Active; 'I' for Inactive)
REMARK    1  A    between atoms: C_2  and  C_3
REMARK    2  A    between atoms: C_3  and  N_4
REMARK    3  A    between atoms: C_5  and  C_6
REMARK    4  A    between atoms: C_6  and  C_7
REMARK    5  A    between atoms: C_7  and  O_9
REMARK    6  A    between atoms: O_9  and  C_10
REMARK    7  A    between atoms: N_14  and  C_15
REMARK    8  A    between atoms: C_18  and  C_19
REMARK    9  A    between atoms: C_19  and  C_20
REMARK                            x       y       z     vdW  Elec       q    Type
REMARK                         _______ _______ _______ _____ _____    ______ ____
ROOT
ATOM      1  N   UNL     1       2.212   6.440  20.034  0.00  0.00    +0.000 N 
ATOM      2  C   UNL     1       1.765   7.781  20.155  0.00  0.00    +0.000 A 
ATOM      3  C   UNL     1       1.982   8.522  19.054  0.00  0.00    +0.000 A 
ATOM      4  S   UNL     1       2.727   7.607  17.786  0.00  0.00    +0.000 S 
ATOM      5  C   UNL     1       2.978   6.204  18.886  0.00  0.00    +0.000 A 
ATOM      6  N   UNL     1       3.770   5.194  18.660  0.00  0.00    +0.000 NA
ENDROOT
BRANCH   6   7
ATOM      7  C   UNL     1       4.624   5.132  17.540  0.00  0.00    +0.000 A 
ATOM      8  C   UNL     1       5.759   5.941  17.422  0.00  0.00    +0.000 A 
ATOM      9  C   UNL     1       6.571   5.919  16.285  0.00  0.00    +0.000 A 
ATOM     10  C   UNL     1       6.326   4.997  15.268  0.00  0.00    +0.000 A 
ATOM     11  C   UNL     1       5.260   4.101  15.426  0.00  0.00    +0.000 A 
ATOM     12  C   UNL     1       4.412   4.173  16.546  0.00  0.00    +0.000 A 
BRANCH  10  13
ATOM     13  C   UNL     1       7.173   4.915  14.037  0.00  0.00    +0.000 C 
ATOM     14  C   UNL     1       6.793   4.005  12.890  0.00  0.00    +0.000 C 
ATOM     15  O   UNL     1       8.188   5.607  13.959  0.00  0.00    +0.000 OA
ENDBRANCH  10  13
ENDBRANCH   6   7
BRANCH   1  16
ATOM     16  C   UNL     1       2.041   5.399  21.039  0.00  0.00    +0.000 C 
BRANCH  16  18
ATOM     17  C   UNL     1       1.180   2.974  20.854  0.00  0.00    +0.000 C 
ATOM     18  C   UNL     1       1.113   4.288  20.589  0.00  0.00    +0.000 C 
ENDBRANCH  16  18
ENDBRANCH   1  16
BRANCH   2  19
ATOM     19  C   UNL     1       1.044   8.319  21.360  0.00  0.00    +0.000 C 
BRANCH  19  20
ATOM     20  C   UNL     1       0.724   9.801  21.294  0.00  0.00    +0.000 C 
ATOM     21  O   UNL     1       1.382  10.705  21.775  0.00  0.00    +0.000 OA
BRANCH  20  22
ATOM     22  O   UNL     1      -0.443   9.964  20.608  0.00  0.00    +0.000 OA
ATOM     23  C   UNL     1      -0.943  11.303  20.600  0.00  0.00    +0.000 C 
ENDBRANCH  20  22
ENDBRANCH  19  20
ENDBRANCH   2  19
TORSDOF 7
ENDMDL
MODEL 2
REMARK VINA RESULT:      -6.7      0.414      1.081
REMARK  Name = 
REMARK  9 active torsions:
REMARK  status: ('A' for Active; 'I' for Inactive)
REMARK    1  A    between atoms: C_2  and  C_3
REMARK    2  A    between atoms: C_3  and  N_4
REMARK    3  A    between atoms: C_5  and  C_6
REMARK    4  A    between atoms: C_6  and  C_7
REMARK    5  A    between atoms: C_7  and  O_9
REMARK    6  A    between atoms: O_9  and  C_10
REMARK    7  A    between atoms: N_14  and  C_15
REMARK    8  A    between atoms: C_18  and  C_19
REMARK    9  A    between atoms: C_19  and  C_20
REMARK                            x       y       z     vdW  Elec       q    Type
REMARK                         _______ _______ _______ _____ _____    ______ ____
ROOT
ATOM      1  N   UNL     1       2.354   6.239  19.971  0.00  0.00    +0.000 N 
ATOM      2  C   UNL     1       1.894   7.571  20.141  0.00  0.00    +0.000 A 
ATOM      3  C   UNL     1       2.066   8.342  19.053  0.00  0.00    +0.000 A 
ATOM      4  S   UNL     1       2.780   7.469  17.739  0.00  0.00    +0.000 S 
ATOM      5  C   UNL     1       3.084   6.042  18.793  0.00  0.00    +0.000 A 
ATOM      6  N   UNL     1       3.881   5.049  18.517  0.00  0.00    +0.000 NA
ENDROOT
BRANCH   6   7
ATOM      7  C   UNL     1       4.698   5.026  17.368  0.00  0.00    +0.000 A 
ATOM      8  C   UNL     1       4.432   4.188  16.280  0.00  0.00    +0.000 A 
ATOM      9  C   UNL     1       5.275   4.126  15.168  0.00  0.00    +0.000 A 
ATOM     10  C   UNL     1       6.364   4.991  15.066  0.00  0.00    +0.000 A 
ATOM     11  C   UNL     1       6.576   5.917  16.097  0.00  0.00    +0.000 A 
ATOM     12  C   UNL     1       5.757   5.930  17.240  0.00  0.00    +0.000 A 
BRANCH  10  13
ATOM     13  C   UNL     1       7.290   4.982  13.890  0.00  0.00    +0.000 C 
ATOM     14  C   UNL     1       6.975   4.166  12.656  0.00  0.00    +0.000 C 
ATOM     15  O   UNL     1       8.318   5.660  13.930  0.00  0.00    +0.000 OA
ENDBRANCH  10  13
ENDBRANCH   6   7
BRANCH   1  16
ATOM     16  C   UNL     1       2.228   5.171  20.955  0.00  0.00    +0.000 C 
BRANCH  16  18
ATOM     17  C   UNL     1       0.900   3.399  19.631  0.00  0.00    +0.000 C 
ATOM     18  C   UNL     1       1.071   4.234  20.667  0.00  0.00    +0.000 C 
ENDBRANCH  16  18
ENDBRANCH   1  16
BRANCH   2  19
ATOM     19  C   UNL     1       1.207   8.069  21.382  0.00  0.00    +0.000 C 
BRANCH  19  20
ATOM     20  C   UNL     1       0.710   9.501  21.297  0.00  0.00    +0.000 C 
ATOM     21  O   UNL     1       1.284  10.490  21.715  0.00  0.00    +0.000 OA
BRANCH  20  22
ATOM     22  O   UNL     1      -0.505   9.504  20.679  0.00  0.00    +0.000 OA
ATOM     23  C   UNL     1      -0.778  10.684  19.919  0.00  0.00    +0.000 C 
ENDBRANCH  20  22
ENDBRANCH  19  20
ENDBRANCH   2  19
TORSDOF 7
ENDMDL
MODEL 3
REMARK VINA RESULT:      -6.4      1.675      7.878
REMARK  Name = 
REMARK  9 active torsions:
REMARK  status: ('A' for Active; 'I' for Inactive)
REMARK    1  A    between atoms: C_2  and  C_3
REMARK    2  A    between atoms: C_3  and  N_4
REMARK    3  A    between atoms: C_5  and  C_6
REMARK    4  A    between atoms: C_6  and  C_7
REMARK    5  A    between atoms: C_7  and  O_9
REMARK    6  A    between atoms: O_9  and  C_10
REMARK    7  A    between atoms: N_14  and  C_15
REMARK    8  A    between atoms: C_18  and  C_19
REMARK    9  A    between atoms: C_19  and  C_20
REMARK                            x       y       z     vdW  Elec       q    Type
REMARK                         _______ _______ _______ _____ _____    ______ ____
ROOT
ATOM      1  N   UNL     1       4.184   4.721  17.180  0.00  0.00    +0.000 N 
ATOM      2  C   UNL     1       5.393   4.926  16.465  0.00  0.00    +0.000 A 
ATOM      3  C   UNL     1       5.954   6.126  16.690  0.00  0.00    +0.000 A 
ATOM      4  S   UNL     1       5.044   7.072  17.820  0.00  0.00    +0.000 S 
ATOM      5  C   UNL     1       3.700   5.874  17.809  0.00  0.00    +0.000 A 
ATOM      6  N   UNL     1       2.494   6.080  18.257  0.00  0.00    +0.000 NA
ENDROOT
BRANCH   6   7
ATOM      7  C   UNL     1       2.062   7.338  18.727  0.00  0.00    +0.000 A 
ATOM      8  C   UNL     1       1.780   8.400  17.861  0.00  0.00    +0.000 A 
ATOM      9  C   UNL     1       1.407   9.661  18.331  0.00  0.00    +0.000 A 
ATOM     10  C   UNL     1       1.199   9.867  19.695  0.00  0.00    +0.000 A 
ATOM     11  C   UNL     1       1.366   8.779  20.564  0.00  0.00    +0.000 A 
ATOM     12  C   UNL     1       1.801   7.529  20.086  0.00  0.00    +0.000 A 
BRANCH  10  13
ATOM     13  C   UNL     1       0.781  11.190  20.254  0.00  0.00    +0.000 C 
ATOM     14  C   UNL     1      -0.157  12.098  19.490  0.00  0.00    +0.000 C 
ATOM     15  O   UNL     1       1.203  11.536  21.358  0.00  0.00    +0.000 OA
ENDBRANCH  10  13
ENDBRANCH   6   7
BRANCH   1  16
ATOM     16  C   UNL     1       3.404   3.489  17.184  0.00  0.00    +0.000 C 
BRANCH  16  18
ATOM     17  C   UNL     1       4.384   2.915  19.500  0.00  0.00    +0.000 C 
ATOM     18  C   UNL     1       3.657   2.632  18.408  0.00  0.00    +0.000 C 
ENDBRANCH  16  18
ENDBRANCH   1  16
BRANCH   2  19
ATOM     19  C   UNL     1       6.041   3.883  15.597  0.00  0.00    +0.000 C 
BRANCH  19  20
ATOM     20  C   UNL     1       6.569   4.403  14.273  0.00  0.00    +0.000 C 
ATOM     21  O   UNL     1       7.547   5.112  14.113  0.00  0.00    +0.000 OA
BRANCH  20  22
ATOM     22  O   UNL     1       5.756   3.955  13.274  0.00  0.00    +0.000 OA
ATOM     23  C   UNL     1       6.448   3.378  12.164  0.00  0.00    +0.000 C 
ENDBRANCH  20  22
ENDBRANCH  19  20
ENDBRANCH   2  19
TORSDOF 7
ENDMDL
MODEL 4
REMARK VINA RESULT:      -6.4      0.747      1.048
REMARK  Name = 
REMARK  9 active torsions:
REMARK  status: ('A' for Active; 'I' for Inactive)
REMARK    1  A    between atoms: C_2  and  C_3
REMARK    2  A    between atoms: C_3  and  N_4
REMARK    3  A    between atoms: C_5  and  C_6
REMARK    4  A    between atoms: C_6  and  C_7
REMARK    5  A    between atoms: C_7  and  O_9
REMARK    6  A    between atoms: O_9  and  C_10
REMARK    7  A    between atoms: N_14  and  C_15
REMARK    8  A    between atoms: C_18  and  C_19
REMARK    9  A    between atoms: C_19  and  C_20
REMARK                            x       y       z     vdW  Elec       q    Type
REMARK                         _______ _______ _______ _____ _____    ______ ____
ROOT
ATOM      1  N   UNL     1       2.530   6.138  19.863  0.00  0.00    +0.000 N 
ATOM      2  C   UNL     1       1.982   7.440  19.987  0.00  0.00    +0.000 A 
ATOM      3  C   UNL     1       2.105   8.184  18.874  0.00  0.00    +0.000 A 
ATOM      4  S   UNL     1       2.881   7.317  17.591  0.00  0.00    +0.000 S 
ATOM      5  C   UNL     1       3.276   5.950  18.694  0.00  0.00    +0.000 A 
ATOM      6  N   UNL     1       4.140   5.004  18.452  0.00  0.00    +0.000 NA
ENDROOT
BRANCH   6   7
ATOM      7  C   UNL     1       4.961   4.998  17.306  0.00  0.00    +0.000 A 
ATOM      8  C   UNL     1       6.246   5.551  17.307  0.00  0.00    +0.000 A 
ATOM      9  C   UNL     1       7.035   5.595  16.155  0.00  0.00    +0.000 A 
ATOM     10  C   UNL     1       6.597   4.982  14.982  0.00  0.00    +0.000 A 
ATOM     11  C   UNL     1       5.359   4.323  14.999  0.00  0.00    +0.000 A 
ATOM     12  C   UNL     1       4.546   4.338  16.146  0.00  0.00    +0.000 A 
BRANCH  10  13
ATOM     13  C   UNL     1       7.407   4.981  13.724  0.00  0.00    +0.000 C 
ATOM     14  C   UNL     1       7.097   4.019  12.598  0.00  0.00    +0.000 C 
ATOM     15  O   UNL     1       8.333   5.784  13.605  0.00  0.00    +0.000 OA
ENDBRANCH  10  13
ENDBRANCH   6   7
BRANCH   1  16
ATOM     16  C   UNL     1       2.472   5.097  20.882  0.00  0.00    +0.000 C 
BRANCH  16  18
ATOM     17  C   UNL     1       0.990   2.999  21.121  0.00  0.00    +0.000 C 
ATOM     18  C   UNL     1       1.751   3.849  20.414  0.00  0.00    +0.000 C 
ENDBRANCH  16  18
ENDBRANCH   1  16
BRANCH   2  19
ATOM     19  C   UNL     1       1.257   7.932  21.209  0.00  0.00    +0.000 C 
BRANCH  19  20
ATOM     20  C   UNL     1       0.556   9.267  21.032  0.00  0.00    +0.000 C 
ATOM     21  O   UNL     1      -0.105   9.614  20.070  0.00  0.00    +0.000 OA
BRANCH  20  22
ATOM     22  O   UNL     1       0.795  10.034  22.134  0.00  0.00    +0.000 OA
ATOM     23  C   UNL     1      -0.043   9.739  23.253  0.00  0.00    +0.000 C 
ENDBRANCH  20  22
ENDBRANCH  19  20
ENDBRANCH   2  19
TORSDOF 7
ENDMDL
MODEL 5
REMARK VINA RESULT:      -6.3      1.779      7.875
REMARK  Name = 
REMARK  9 active torsions:
REMARK  status: ('A' for Active; 'I' for Inactive)
REMARK    1  A    between atoms: C_2  and  C_3
REMARK    2  A    between atoms: C_3  and  N_4
REMARK    3  A    between atoms: C_5  and  C_6
REMARK    4  A    between atoms: C_6  and  C_7
REMARK    5  A    between atoms: C_7  and  O_9
REMARK    6  A    between atoms: O_9  and  C_10
REMARK    7  A    between atoms: N_14  and  C_15
REMARK    8  A    between atoms: C_18  and  C_19
REMARK    9  A    between atoms: C_19  and  C_20
REMARK                            x       y       z     vdW  Elec       q    Type
REMARK                         _______ _______ _______ _____ _____    ______ ____
ROOT
ATOM      1  N   UNL     1       4.213   4.699  17.190  0.00  0.00    +0.000 N 
ATOM      2  C   UNL     1       5.423   4.915  16.482  0.00  0.00    +0.000 A 
ATOM      3  C   UNL     1       5.969   6.124  16.705  0.00  0.00    +0.000 A 
ATOM      4  S   UNL     1       5.040   7.064  17.824  0.00  0.00    +0.000 S 
ATOM      5  C   UNL     1       3.711   5.849  17.811  0.00  0.00    +0.000 A 
ATOM      6  N   UNL     1       2.500   6.043  18.251  0.00  0.00    +0.000 NA
ENDROOT
BRANCH   6   7
ATOM      7  C   UNL     1       2.049   7.297  18.711  0.00  0.00    +0.000 A 
ATOM      8  C   UNL     1       1.869   7.571  20.071  0.00  0.00    +0.000 A 
ATOM      9  C   UNL     1       1.367   8.795  20.521  0.00  0.00    +0.000 A 
ATOM     10  C   UNL     1       1.130   9.830  19.617  0.00  0.00    +0.000 A 
ATOM     11  C   UNL     1       1.417   9.607  18.262  0.00  0.00    +0.000 A 
ATOM     12  C   UNL     1       1.863   8.351  17.812  0.00  0.00    +0.000 A 
BRANCH  10  13
ATOM     13  C   UNL     1       0.611  11.167  20.043  0.00  0.00    +0.000 C 
ATOM     14  C   UNL     1      -0.135  11.333  21.348  0.00  0.00    +0.000 C 
ATOM     15  O   UNL     1       0.807  12.145  19.321  0.00  0.00    +0.000 OA
ENDBRANCH  10  13
ENDBRANCH   6   7
BRANCH   1  16
ATOM     16  C   UNL     1       3.448   3.458  17.196  0.00  0.00    +0.000 C 
BRANCH  16  18
ATOM     17  C   UNL     1       4.438   2.852  19.500  0.00  0.00    +0.000 C 
ATOM     18  C   UNL     1       3.542   2.711  18.511  0.00  0.00    +0.000 C 
ENDBRANCH  16  18
ENDBRANCH   1  16
BRANCH   2  19
ATOM     19  C   UNL     1       6.090   3.876  15.623  0.00  0.00    +0.000 C 
BRANCH  19  20
ATOM     20  C   UNL     1       6.594   4.391  14.288  0.00  0.00    +0.000 C 
ATOM     21  O   UNL     1       7.531   5.150  14.113  0.00  0.00    +0.000 OA
BRANCH  20  22
ATOM     22  O   UNL     1       5.814   3.871  13.298  0.00  0.00    +0.000 OA
ATOM     23  C   UNL     1       6.535   3.442  12.141  0.00  0.00    +0.000 C 
ENDBRANCH  20  22
ENDBRANCH  19  20
ENDBRANCH   2  19
TORSDOF 7
ENDMDL
MODEL 6
REMARK VINA RESULT:      -6.2      1.542      7.900
REMARK  Name = 
REMARK  9 active torsions:
REMARK  status: ('A' for Active; 'I' for Inactive)
REMARK    1  A    between atoms: C_2  and  C_3
REMARK    2  A    between atoms: C_3  and  N_4
REMARK    3  A    between atoms: C_5  and  C_6
REMARK    4  A    between atoms: C_6  and  C_7
REMARK    5  A    between atoms: C_7  and  O_9
REMARK    6  A    between atoms: O_9  and  C_10
REMARK    7  A    between atoms: N_14  and  C_15
REMARK    8  A    between atoms: C_18  and  C_19
REMARK    9  A    between atoms: C_19  and  C_20
REMARK                            x       y       z     vdW  Elec       q    Type
REMARK                         _______ _______ _______ _____ _____    ______ ____
ROOT
ATOM      1  N   UNL     1       4.131   5.045  17.770  0.00  0.00    +0.000 N 
ATOM      2  C   UNL     1       4.841   5.281  16.565  0.00  0.00    +0.000 A 
ATOM      3  C   UNL     1       4.995   6.585  16.277  0.00  0.00    +0.000 A 
ATOM      4  S   UNL     1       4.297   7.608  17.488  0.00  0.00    +0.000 S 
ATOM      5  C   UNL     1       3.546   6.195  18.313  0.00  0.00    +0.000 A 
ATOM      6  N   UNL     1       2.598   6.252  19.205  0.00  0.00    +0.000 NA
ENDROOT
BRANCH   6   7
ATOM      7  C   UNL     1       1.964   7.458  19.566  0.00  0.00    +0.000 A 
ATOM      8  C   UNL     1       1.643   8.442  18.625  0.00  0.00    +0.000 A 
ATOM      9  C   UNL     1       1.067   9.661  18.992  0.00  0.00    +0.000 A 
ATOM     10  C   UNL     1       0.692   9.887  20.316  0.00  0.00    +0.000 A 
ATOM     11  C   UNL     1       0.902   8.862  21.251  0.00  0.00    +0.000 A 
ATOM     12  C   UNL     1       1.539   7.664  20.882  0.00  0.00    +0.000 A 
BRANCH  10  13
ATOM     13  C   UNL     1       0.054  11.164  20.765  0.00  0.00    +0.000 C 
ATOM     14  C   UNL     1      -0.407  11.345  22.193  0.00  0.00    +0.000 C 
ATOM     15  O   UNL     1      -0.085  12.082  19.956  0.00  0.00    +0.000 OA
ENDBRANCH  10  13
ENDBRANCH   6   7
BRANCH   1  16
ATOM     16  C   UNL     1       3.883   3.736  18.361  0.00  0.00    +0.000 C 
BRANCH  16  18
ATOM     17  C   UNL     1       1.651   2.442  18.346  0.00  0.00    +0.000 C 
ATOM     18  C   UNL     1       2.700   3.020  17.740  0.00  0.00    +0.000 C 
ENDBRANCH  16  18
ENDBRANCH   1  16
BRANCH   2  19
ATOM     19  C   UNL     1       5.441   4.193  15.718  0.00  0.00    +0.000 C 
BRANCH  19  20
ATOM     20  C   UNL     1       6.869   4.453  15.275  0.00  0.00    +0.000 C 
ATOM     21  O   UNL     1       7.851   4.504  15.994  0.00  0.00    +0.000 OA
BRANCH  20  22
ATOM     22  O   UNL     1       6.880   4.636  13.924  0.00  0.00    +0.000 OA
ATOM     23  C   UNL     1       6.135   3.661  13.190  0.00  0.00    +0.000 C 
ENDBRANCH  20  22
ENDBRANCH  19  20
ENDBRANCH   2  19
TORSDOF 7
ENDMDL
MODEL 7
REMARK VINA RESULT:      -6.2      3.093      8.340
REMARK  Name = 
REMARK  9 active torsions:
REMARK  status: ('A' for Active; 'I' for Inactive)
REMARK    1  A    between atoms: C_2  and  C_3
REMARK    2  A    between atoms: C_3  and  N_4
REMARK    3  A    between atoms: C_5  and  C_6
REMARK    4  A    between atoms: C_6  and  C_7
REMARK    5  A    between atoms: C_7  and  O_9
REMARK    6  A    between atoms: O_9  and  C_10
REMARK    7  A    between atoms: N_14  and  C_15
REMARK    8  A    between atoms: C_18  and  C_19
REMARK    9  A    between atoms: C_19  and  C_20
REMARK                            x       y       z     vdW  Elec       q    Type
REMARK                         _______ _______ _______ _____ _____    ______ ____
ROOT
ATOM      1  N   UNL     1       2.362   6.165  19.870  0.00  0.00    +0.000 N 
ATOM      2  C   UNL     1       2.731   6.049  18.506  0.00  0.00    +0.000 A 
ATOM      3  C   UNL     1       2.644   7.204  17.824  0.00  0.00    +0.000 A 
ATOM      4  S   UNL     1       2.128   8.518  18.827  0.00  0.00    +0.000 S 
ATOM      5  C   UNL     1       1.780   7.397  20.192  0.00  0.00    +0.000 A 
ATOM      6  N   UNL     1       1.070   7.683  21.248  0.00  0.00    +0.000 NA
ENDROOT
BRANCH   6   7
ATOM      7  C   UNL     1       0.390   8.908  21.399  0.00  0.00    +0.000 A 
ATOM      8  C   UNL     1      -0.102   9.628  20.304  0.00  0.00    +0.000 A 
ATOM      9  C   UNL     1      -0.725  10.869  20.452  0.00  0.00    +0.000 A 
ATOM     10  C   UNL     1      -0.972  11.381  21.725  0.00  0.00    +0.000 A 
ATOM     11  C   UNL     1      -0.588  10.616  22.836  0.00  0.00    +0.000 A 
ATOM     12  C   UNL     1       0.094   9.396  22.675  0.00  0.00    +0.000 A 
BRANCH  10  13
ATOM     13  C   UNL     1      -1.652  12.696  21.945  0.00  0.00    +0.000 C 
ATOM     14  C   UNL     1      -2.148  13.097  23.317  0.00  0.00    +0.000 C 
ATOM     15  O   UNL     1      -1.798  13.463  20.993  0.00  0.00    +0.000 OA
ENDBRANCH  10  13
ENDBRANCH   6   7
BRANCH   1  16
ATOM     16  C   UNL     1       2.430   5.096  20.858  0.00  0.00    +0.000 C 
BRANCH  16  18
ATOM     17  C   UNL     1       1.224   2.828  21.101  0.00  0.00    +0.000 C 
ATOM     18  C   UNL     1       1.269   4.126  20.762  0.00  0.00    +0.000 C 
ENDBRANCH  16  18
ENDBRANCH   1  16
BRANCH   2  19
ATOM     19  C   UNL     1       3.249   4.782  17.882  0.00  0.00    +0.000 C 
BRANCH  19  20
ATOM     20  C   UNL     1       2.171   3.795  17.471  0.00  0.00    +0.000 C 
ATOM     21  O   UNL     1       1.013   4.060  17.201  0.00  0.00    +0.000 OA
BRANCH  20  22
ATOM     22  O   UNL     1       2.709   2.542  17.462  0.00  0.00    +0.000 OA
ATOM     23  C   UNL     1       3.731   2.330  18.439  0.00  0.00    +0.000 C 
ENDBRANCH  20  22
ENDBRANCH  19  20
ENDBRANCH   2  19
TORSDOF 7
ENDMDL
MODEL 8
REMARK VINA RESULT:      -6.0      1.502      7.826
REMARK  Name = 
REMARK  9 active torsions:
REMARK  status: ('A' for Active; 'I' for Inactive)
REMARK    1  A    between atoms: C_2  and  C_3
REMARK    2  A    between atoms: C_3  and  N_4
REMARK    3  A    between atoms: C_5  and  C_6
REMARK    4  A    between atoms: C_6  and  C_7
REMARK    5  A    between atoms: C_7  and  O_9
REMARK    6  A    between atoms: O_9  and  C_10
REMARK    7  A    between atoms: N_14  and  C_15
REMARK    8  A    between atoms: C_18  and  C_19
REMARK    9  A    between atoms: C_19  and  C_20
REMARK                            x       y       z     vdW  Elec       q    Type
REMARK                         _______ _______ _______ _____ _____    ______ ____
ROOT
ATOM      1  N   UNL     1       4.304   5.063  18.093  0.00  0.00    +0.000 N 
ATOM      2  C   UNL     1       4.886   5.212  16.808  0.00  0.00    +0.000 A 
ATOM      3  C   UNL     1       4.854   6.474  16.345  0.00  0.00    +0.000 A 
ATOM      4  S   UNL     1       4.129   7.567  17.476  0.00  0.00    +0.000 S 
ATOM      5  C   UNL     1       3.624   6.204  18.538  0.00  0.00    +0.000 A 
ATOM      6  N   UNL     1       2.746   6.274  19.499  0.00  0.00    +0.000 NA
ENDROOT
BRANCH   6   7
ATOM      7  C   UNL     1       1.996   7.439  19.760  0.00  0.00    +0.000 A 
ATOM      8  C   UNL     1       1.526   7.751  21.040  0.00  0.00    +0.000 A 
ATOM      9  C   UNL     1       0.734   8.875  21.286  0.00  0.00    +0.000 A 
ATOM     10  C   UNL     1       0.478   9.788  20.264  0.00  0.00    +0.000 A 
ATOM     11  C   UNL     1       1.040   9.548  19.002  0.00  0.00    +0.000 A 
ATOM     12  C   UNL     1       1.784   8.381  18.750  0.00  0.00    +0.000 A 
BRANCH  10  13
ATOM     13  C   UNL     1      -0.348  11.019  20.473  0.00  0.00    +0.000 C 
ATOM     14  C   UNL     1      -1.401  11.431  19.468  0.00  0.00    +0.000 C 
ATOM     15  O   UNL     1      -0.169  11.697  21.485  0.00  0.00    +0.000 OA
ENDBRANCH  10  13
ENDBRANCH   6   7
BRANCH   1  16
ATOM     16  C   UNL     1       4.265   3.828  18.865  0.00  0.00    +0.000 C 
BRANCH  16  18
ATOM     17  C   UNL     1       1.992   3.026  17.946  0.00  0.00    +0.000 C 
ATOM     18  C   UNL     1       3.262   2.825  18.329  0.00  0.00    +0.000 C 
ENDBRANCH  16  18
ENDBRANCH   1  16
BRANCH   2  19
ATOM     19  C   UNL     1       5.551   4.093  16.054  0.00  0.00    +0.000 C 
BRANCH  19  20
ATOM     20  C   UNL     1       7.012   4.336  15.724  0.00  0.00    +0.000 C 
ATOM     21  O   UNL     1       7.932   4.400  16.520  0.00  0.00    +0.000 OA
BRANCH  20  22
ATOM     22  O   UNL     1       7.135   4.485  14.374  0.00  0.00    +0.000 OA
ATOM     23  C   UNL     1       6.098   3.860  13.614  0.00  0.00    +0.000 C 
ENDBRANCH  20  22
ENDBRANCH  19  20
ENDBRANCH   2  19
TORSDOF 7
ENDMDL
MODEL 9
REMARK VINA RESULT:      -6.0      1.735      7.845
REMARK  Name = 
REMARK  9 active torsions:
REMARK  status: ('A' for Active; 'I' for Inactive)
REMARK    1  A    between atoms: C_2  and  C_3
REMARK    2  A    between atoms: C_3  and  N_4
REMARK    3  A    between atoms: C_5  and  C_6
REMARK    4  A    between atoms: C_6  and  C_7
REMARK    5  A    between atoms: C_7  and  O_9
REMARK    6  A    between atoms: O_9  and  C_10
REMARK    7  A    between atoms: N_14  and  C_15
REMARK    8  A    between atoms: C_18  and  C_19
REMARK    9  A    between atoms: C_19  and  C_20
REMARK                            x       y       z     vdW  Elec       q    Type
REMARK                         _______ _______ _______ _____ _____    ______ ____
ROOT
ATOM      1  N   UNL     1       4.297   4.686  17.087  0.00  0.00    +0.000 N 
ATOM      2  C   UNL     1       5.523   4.898  16.404  0.00  0.00    +0.000 A 
ATOM      3  C   UNL     1       6.071   6.102  16.644  0.00  0.00    +0.000 A 
ATOM      4  S   UNL     1       5.126   7.042  17.749  0.00  0.00    +0.000 S 
ATOM      5  C   UNL     1       3.791   5.836  17.703  0.00  0.00    +0.000 A 
ATOM      6  N   UNL     1       2.572   6.036  18.119  0.00  0.00    +0.000 NA
ENDROOT
BRANCH   6   7
ATOM      7  C   UNL     1       2.120   7.291  18.577  0.00  0.00    +0.000 A 
ATOM      8  C   UNL     1       1.948   7.571  19.937  0.00  0.00    +0.000 A 
ATOM      9  C   UNL     1       1.446   8.795  20.384  0.00  0.00    +0.000 A 
ATOM     10  C   UNL     1       1.199   9.825  19.477  0.00  0.00    +0.000 A 
ATOM     11  C   UNL     1       1.477   9.597  18.121  0.00  0.00    +0.000 A 
ATOM     12  C   UNL     1       1.925   8.340  17.674  0.00  0.00    +0.000 A 
BRANCH  10  13
ATOM     13  C   UNL     1       0.679  11.162  19.900  0.00  0.00    +0.000 C 
ATOM     14  C   UNL     1       0.751  12.355  18.973  0.00  0.00    +0.000 C 
ATOM     15  O   UNL     1       0.177  11.285  21.018  0.00  0.00    +0.000 OA
ENDBRANCH  10  13
ENDBRANCH   6   7
BRANCH   1  16
ATOM     16  C   UNL     1       3.524   3.450  17.070  0.00  0.00    +0.000 C 
BRANCH  16  18
ATOM     17  C   UNL     1       4.474   2.801  19.379  0.00  0.00    +0.000 C 
ATOM     18  C   UNL     1       3.576   2.702  18.387  0.00  0.00    +0.000 C 
ENDBRANCH  16  18
ENDBRANCH   1  16
BRANCH   2  19
ATOM     19  C   UNL     1       6.200   3.858  15.554  0.00  0.00    +0.000 C 
BRANCH  19  20
ATOM     20  C   UNL     1       6.330   4.230  14.088  0.00  0.00    +0.000 C 
ATOM     21  O   UNL     1       5.700   3.752  13.162  0.00  0.00    +0.000 OA
BRANCH  20  22
ATOM     22  O   UNL     1       7.288   5.193  13.966  0.00  0.00    +0.000 OA
ATOM     23  C   UNL     1       7.893   5.264  12.673  0.00  0.00    +0.000 C 
ENDBRANCH  20  22
ENDBRANCH  19  20
ENDBRANCH   2  19
TORSDOF 7
ENDMDL
