MODEL 1
REMARK VINA RESULT:      -8.7      0.000      0.000
REMARK  Name = 
REMARK  9 active torsions:
REMARK  status: ('A' for Active; 'I' for Inactive)
REMARK    1  A    between atoms: C_1  and  C_2
REMARK    2  A    between atoms: C_2  and  O_3
REMARK    3  A    between atoms: O_3  and  C_4
REMARK    4  A    between atoms: C_4  and  C_6
REMARK    5  A    between atoms: C_11  and  O_12
REMARK    6  A    between atoms: O_12  and  C_13
REMARK    7  A    between atoms: C_16  and  N_17
REMARK    8  A    between atoms: C_18  and  C_20
REMARK    9  A    between atoms: C_20  and  N_21
REMARK                            x       y       z     vdW  Elec       q    Type
REMARK                         _______ _______ _______ _____ _____    ______ ____
ROOT
ATOM      1  C   UNL     1       2.785   4.555  18.056  0.00  0.00    +0.000 A 
ATOM      2  N   UNL     1       3.609   3.808  17.244  0.00  0.00    +0.000 N 
ATOM      3  C   UNL     1       4.744   4.514  16.920  0.00  0.00    +0.000 A 
ATOM      4  C   UNL     1       5.870   4.133  16.181  0.00  0.00    +0.000 A 
ATOM      5  C   UNL     1       6.918   5.060  16.061  0.00  0.00    +0.000 A 
ATOM      6  C   UNL     1       6.841   6.317  16.657  0.00  0.00    +0.000 A 
ATOM      7  C   UNL     1       5.691   6.680  17.368  0.00  0.00    +0.000 A 
ATOM      8  C   UNL     1       4.616   5.777  17.496  0.00  0.00    +0.000 A 
ATOM      9  C   UNL     1       3.357   5.806  18.166  0.00  0.00    +0.000 A 
ATOM     10  H   UNL     1       3.422   2.854  16.971  0.00  0.00    +0.000 HD
ENDROOT
BRANCH   9  11
ATOM     11  N   UNL     1       2.764   6.841  18.876  0.00  0.00    +0.000 N 
ATOM     12  C   UNL     1       2.436   8.029  18.253  0.00  0.00    +0.000 C 
ATOM     13  O   UNL     1       2.635   8.287  17.067  0.00  0.00    +0.000 OA
ATOM     14  H   UNL     1       2.170   6.563  19.653  0.00  0.00    +0.000 HD
BRANCH  12  15
ATOM     15  C   UNL     1       1.751   9.045  19.178  0.00  0.00    +0.000 C 
BRANCH  15  16
ATOM     16  N   UNL     1       0.909   9.990  18.412  0.00  0.00    +0.000 NA
ATOM     17  C   UNL     1       0.559  11.170  19.223  0.00  0.00    +0.000 C 
ATOM     18  C   UNL     1      -0.878  11.227  19.762  0.00  0.00    +0.000 C 
ATOM     19  C   UNL     1      -1.845  11.044  18.626  0.00  0.00    +0.000 A 
ATOM     20  C   UNL     1      -3.068  11.713  18.565  0.00  0.00    +0.000 A 
ATOM     21  C   UNL     1      -3.930  11.492  17.494  0.00  0.00    +0.000 A 
ATOM     22  C   UNL     1      -3.577  10.596  16.481  0.00  0.00    +0.000 A 
ATOM     23  C   UNL     1      -2.365   9.909  16.550  0.00  0.00    +0.000 A 
ATOM     24  C   UNL     1      -1.491  10.132  17.619  0.00  0.00    +0.000 A 
ATOM     25  C   UNL     1      -0.250   9.298  17.804  0.00  0.00    +0.000 C 
ENDBRANCH  15  16
ENDBRANCH  12  15
ENDBRANCH   9  11
BRANCH   1  26
ATOM     26  C   UNL     1       1.563   4.098  18.657  0.00  0.00    +0.000 C 
ATOM     27  O   UNL     1       0.694   3.463  18.071  0.00  0.00    +0.000 OA
BRANCH  26  28
ATOM     28  O   UNL     1       1.465   4.590  19.922  0.00  0.00    +0.000 OA
BRANCH  28  30
ATOM     29  C   UNL     1       1.346   2.722  21.392  0.00  0.00    +0.000 C 
ATOM     30  C   UNL     1       2.223   3.856  20.891  0.00  0.00    +0.000 C 
ENDBRANCH  28  30
ENDBRANCH  26  28
ENDBRANCH   1  26
BRANCH   6  31
ATOM     31  O   UNL     1       7.813   7.281  16.639  0.00  0.00    +0.000 OA
ATOM     32  C   UNL     1       7.812   8.227  17.698  0.00  0.00    +0.000 C 
ENDBRANCH   6  31
TORSDOF 7
ENDMDL
MODEL 2
REMARK VINA RESULT:      -8.3      2.317      5.105
REMARK  Name = 
REMARK  9 active torsions:
REMARK  status: ('A' for Active; 'I' for Inactive)
REMARK    1  A    between atoms: C_1  and  C_2
REMARK    2  A    between atoms: C_2  and  O_3
REMARK    3  A    between atoms: O_3  and  C_4
REMARK    4  A    between atoms: C_4  and  C_6
REMARK    5  A    between atoms: C_11  and  O_12
REMARK    6  A    between atoms: O_12  and  C_13
REMARK    7  A    between atoms: C_16  and  N_17
REMARK    8  A    between atoms: C_18  and  C_20
REMARK    9  A    between atoms: C_20  and  N_21
REMARK                            x       y       z     vdW  Elec       q    Type
REMARK                         _______ _______ _______ _____ _____    ______ ____
ROOT
ATOM      1  C   UNL     1       4.903   4.903  16.726  0.00  0.00    +0.000 A 
ATOM      2  N   UNL     1       4.900   3.528  16.801  0.00  0.00    +0.000 N 
ATOM      3  C   UNL     1       3.986   3.092  17.732  0.00  0.00    +0.000 A 
ATOM      4  C   UNL     1       3.604   1.794  18.091  0.00  0.00    +0.000 A 
ATOM      5  C   UNL     1       2.587   1.652  19.049  0.00  0.00    +0.000 A 
ATOM      6  C   UNL     1       1.978   2.766  19.624  0.00  0.00    +0.000 A 
ATOM      7  C   UNL     1       2.399   4.052  19.265  0.00  0.00    +0.000 A 
ATOM      8  C   UNL     1       3.426   4.227  18.316  0.00  0.00    +0.000 A 
ATOM      9  C   UNL     1       4.047   5.359  17.709  0.00  0.00    +0.000 A 
ATOM     10  H   UNL     1       5.458   2.927  16.211  0.00  0.00    +0.000 HD
ENDROOT
BRANCH   9  11
ATOM     11  N   UNL     1       3.845   6.710  17.956  0.00  0.00    +0.000 N 
ATOM     12  C   UNL     1       2.593   7.276  17.812  0.00  0.00    +0.000 C 
ATOM     13  O   UNL     1       1.580   6.675  17.454  0.00  0.00    +0.000 OA
ATOM     14  H   UNL     1       4.446   7.127  18.662  0.00  0.00    +0.000 HD
BRANCH  12  15
ATOM     15  C   UNL     1       2.543   8.768  18.167  0.00  0.00    +0.000 C 
BRANCH  15  16
ATOM     16  N   UNL     1       1.259   9.128  18.808  0.00  0.00    +0.000 NA
ATOM     17  C   UNL     1       0.868  10.510  18.481  0.00  0.00    +0.000 C 
ATOM     18  C   UNL     1       1.053  11.553  19.594  0.00  0.00    +0.000 C 
ATOM     19  C   UNL     1       0.367  11.078  20.843  0.00  0.00    +0.000 A 
ATOM     20  C   UNL     1      -0.282  11.947  21.721  0.00  0.00    +0.000 A 
ATOM     21  C   UNL     1      -0.888  11.449  22.872  0.00  0.00    +0.000 A 
ATOM     22  C   UNL     1      -0.843  10.082  23.155  0.00  0.00    +0.000 A 
ATOM     23  C   UNL     1      -0.176   9.213  22.290  0.00  0.00    +0.000 A 
ATOM     24  C   UNL     1       0.428   9.705  21.128  0.00  0.00    +0.000 A 
ATOM     25  C   UNL     1       1.284   8.823  20.257  0.00  0.00    +0.000 C 
ENDBRANCH  15  16
ENDBRANCH  12  15
ENDBRANCH   9  11
BRANCH   1  26
ATOM     26  C   UNL     1       5.665   5.690  15.798  0.00  0.00    +0.000 C 
ATOM     27  O   UNL     1       5.321   6.783  15.365  0.00  0.00    +0.000 OA
BRANCH  26  28
ATOM     28  O   UNL     1       6.748   4.979  15.380  0.00  0.00    +0.000 OA
BRANCH  28  30
ATOM     29  C   UNL     1       6.224   3.771  13.397  0.00  0.00    +0.000 C 
ATOM     30  C   UNL     1       6.937   4.989  13.960  0.00  0.00    +0.000 C 
ENDBRANCH  28  30
ENDBRANCH  26  28
ENDBRANCH   1  26
BRANCH   6  31
ATOM     31  O   UNL     1       0.955   2.748  20.534  0.00  0.00    +0.000 OA
ATOM     32  C   UNL     1       1.307   2.721  21.909  0.00  0.00    +0.000 C 
ENDBRANCH   6  31
TORSDOF 7
ENDMDL
MODEL 3
REMARK VINA RESULT:      -8.3      2.089      4.936
REMARK  Name = 
REMARK  9 active torsions:
REMARK  status: ('A' for Active; 'I' for Inactive)
REMARK    1  A    between atoms: C_1  and  C_2
REMARK    2  A    between atoms: C_2  and  O_3
REMARK    3  A    between atoms: O_3  and  C_4
REMARK    4  A    between atoms: C_4  and  C_6
REMARK    5  A    between atoms: C_11  and  O_12
REMARK    6  A    between atoms: O_12  and  C_13
REMARK    7  A    between atoms: C_16  and  N_17
REMARK    8  A    between atoms: C_18  and  C_20
REMARK    9  A    between atoms: C_20  and  N_21
REMARK                            x       y       z     vdW  Elec       q    Type
REMARK                         _______ _______ _______ _____ _____    ______ ____
ROOT
ATOM      1  C   UNL     1       4.766   5.276  16.719  0.00  0.00    +0.000 A 
ATOM      2  N   UNL     1       4.774   3.899  16.704  0.00  0.00    +0.000 N 
ATOM      3  C   UNL     1       3.891   3.395  17.630  0.00  0.00    +0.000 A 
ATOM      4  C   UNL     1       3.528   2.074  17.914  0.00  0.00    +0.000 A 
ATOM      5  C   UNL     1       2.540   1.861  18.889  0.00  0.00    +0.000 A 
ATOM      6  C   UNL     1       1.940   2.929  19.553  0.00  0.00    +0.000 A 
ATOM      7  C   UNL     1       2.343   4.239  19.267  0.00  0.00    +0.000 A 
ATOM      8  C   UNL     1       3.341   4.485  18.303  0.00  0.00    +0.000 A 
ATOM      9  C   UNL     1       3.937   5.660  17.754  0.00  0.00    +0.000 A 
ATOM     10  H   UNL     1       5.319   3.343  16.060  0.00  0.00    +0.000 HD
ENDROOT
BRANCH   9  11
ATOM     11  N   UNL     1       3.732   6.990  18.096  0.00  0.00    +0.000 N 
ATOM     12  C   UNL     1       2.518   7.603  17.857  0.00  0.00    +0.000 C 
ATOM     13  O   UNL     1       1.544   7.066  17.332  0.00  0.00    +0.000 OA
ATOM     14  H   UNL     1       4.253   7.326  18.902  0.00  0.00    +0.000 HD
BRANCH  12  15
ATOM     15  C   UNL     1       2.455   9.060  18.336  0.00  0.00    +0.000 C 
BRANCH  15  16
ATOM     16  N   UNL     1       1.150   9.368  18.959  0.00  0.00    +0.000 NA
ATOM     17  C   UNL     1       0.690  10.720  18.596  0.00  0.00    +0.000 C 
ATOM     18  C   UNL     1       0.812  11.798  19.684  0.00  0.00    +0.000 C 
ATOM     19  C   UNL     1       0.142  11.318  20.940  0.00  0.00    +0.000 A 
ATOM     20  C   UNL     1      -0.559  12.173  21.792  0.00  0.00    +0.000 A 
ATOM     21  C   UNL     1      -1.146  11.672  22.951  0.00  0.00    +0.000 A 
ATOM     22  C   UNL     1      -1.032  10.316  23.268  0.00  0.00    +0.000 A 
ATOM     23  C   UNL     1      -0.315   9.463  22.430  0.00  0.00    +0.000 A 
ATOM     24  C   UNL     1       0.272   9.957  21.260  0.00  0.00    +0.000 A 
ATOM     25  C   UNL     1       1.179   9.100  20.415  0.00  0.00    +0.000 C 
ENDBRANCH  15  16
ENDBRANCH  12  15
ENDBRANCH   9  11
BRANCH   1  26
ATOM     26  C   UNL     1       5.496   6.129  15.824  0.00  0.00    +0.000 C 
ATOM     27  O   UNL     1       5.643   5.917  14.626  0.00  0.00    +0.000 OA
BRANCH  26  28
ATOM     28  O   UNL     1       6.101   7.121  16.531  0.00  0.00    +0.000 OA
BRANCH  28  30
ATOM     29  C   UNL     1       7.894   7.941  17.864  0.00  0.00    +0.000 C 
ATOM     30  C   UNL     1       7.301   6.712  17.197  0.00  0.00    +0.000 C 
ENDBRANCH  28  30
ENDBRANCH  26  28
ENDBRANCH   1  26
BRANCH   6  31
ATOM     31  O   UNL     1       0.945   2.843  20.489  0.00  0.00    +0.000 OA
ATOM     32  C   UNL     1       1.336   2.773  21.852  0.00  0.00    +0.000 C 
ENDBRANCH   6  31
TORSDOF 7
ENDMDL
MODEL 4
REMARK VINA RESULT:      -8.1      2.973      5.827
REMARK  Name = 
REMARK  9 active torsions:
REMARK  status: ('A' for Active; 'I' for Inactive)
REMARK    1  A    between atoms: C_1  and  C_2
REMARK    2  A    between atoms: C_2  and  O_3
REMARK    3  A    between atoms: O_3  and  C_4
REMARK    4  A    between atoms: C_4  and  C_6
REMARK    5  A    between atoms: C_11  and  O_12
REMARK    6  A    between atoms: O_12  and  C_13
REMARK    7  A    between atoms: C_16  and  N_17
REMARK    8  A    between atoms: C_18  and  C_20
REMARK    9  A    between atoms: C_20  and  N_21
REMARK                            x       y       z     vdW  Elec       q    Type
REMARK                         _______ _______ _______ _____ _____    ______ ____
ROOT
ATOM      1  C   UNL     1       6.862   5.563  15.976  0.00  0.00    +0.000 A 
ATOM      2  N   UNL     1       7.703   5.268  14.927  0.00  0.00    +0.000 N 
ATOM      3  C   UNL     1       7.021   4.625  13.921  0.00  0.00    +0.000 A 
ATOM      4  C   UNL     1       7.451   4.200  12.659  0.00  0.00    +0.000 A 
ATOM      5  C   UNL     1       6.502   3.614  11.806  0.00  0.00    +0.000 A 
ATOM      6  C   UNL     1       5.175   3.459  12.202  0.00  0.00    +0.000 A 
ATOM      7  C   UNL     1       4.779   3.869  13.480  0.00  0.00    +0.000 A 
ATOM      8  C   UNL     1       5.711   4.449  14.365  0.00  0.00    +0.000 A 
ATOM      9  C   UNL     1       5.637   5.000  15.679  0.00  0.00    +0.000 A 
ATOM     10  H   UNL     1       8.676   5.537  14.887  0.00  0.00    +0.000 HD
ENDROOT
BRANCH   9  11
ATOM     11  N   UNL     1       4.556   5.058  16.547  0.00  0.00    +0.000 N 
ATOM     12  C   UNL     1       4.121   3.927  17.211  0.00  0.00    +0.000 C 
ATOM     13  O   UNL     1       4.613   2.805  17.099  0.00  0.00    +0.000 OA
ATOM     14  H   UNL     1       4.422   5.941  17.032  0.00  0.00    +0.000 HD
BRANCH  12  15
ATOM     15  C   UNL     1       2.943   4.182  18.162  0.00  0.00    +0.000 C 
BRANCH  15  16
ATOM     16  N   UNL     1       3.116   5.445  18.910  0.00  0.00    +0.000 NA
ATOM     17  C   UNL     1       2.869   5.251  20.350  0.00  0.00    +0.000 C 
ATOM     18  C   UNL     1       1.534   5.786  20.892  0.00  0.00    +0.000 C 
ATOM     19  C   UNL     1       1.382   7.230  20.506  0.00  0.00    +0.000 A 
ATOM     20  C   UNL     1       0.777   8.171  21.341  0.00  0.00    +0.000 A 
ATOM     21  C   UNL     1       0.650   9.493  20.922  0.00  0.00    +0.000 A 
ATOM     22  C   UNL     1       1.122   9.881  19.666  0.00  0.00    +0.000 A 
ATOM     23  C   UNL     1       1.708   8.939  18.821  0.00  0.00    +0.000 A 
ATOM     24  C   UNL     1       1.846   7.610  19.237  0.00  0.00    +0.000 A 
ATOM     25  C   UNL     1       2.331   6.540  18.295  0.00  0.00    +0.000 C 
ENDBRANCH  15  16
ENDBRANCH  12  15
ENDBRANCH   9  11
BRANCH   1  26
ATOM     26  C   UNL     1       7.217   6.311  17.150  0.00  0.00    +0.000 C 
ATOM     27  O   UNL     1       6.870   6.023  18.289  0.00  0.00    +0.000 OA
BRANCH  26  28
ATOM     28  O   UNL     1       7.877   7.444  16.786  0.00  0.00    +0.000 OA
BRANCH  28  30
ATOM     29  C   UNL     1       8.643   9.085  18.330  0.00  0.00    +0.000 C 
ATOM     30  C   UNL     1       7.461   8.613  17.501  0.00  0.00    +0.000 C 
ENDBRANCH  28  30
ENDBRANCH  26  28
ENDBRANCH   1  26
BRANCH   6  31
ATOM     31  O   UNL     1       4.161   2.939  11.443  0.00  0.00    +0.000 OA
ATOM     32  C   UNL     1       3.554   3.799  10.490  0.00  0.00    +0.000 C 
ENDBRANCH   6  31
TORSDOF 7
ENDMDL
MODEL 5
REMARK VINA RESULT:      -8.0      1.673      2.013
REMARK  Name = 
REMARK  9 active torsions:
REMARK  status: ('A' for Active; 'I' for Inactive)
REMARK    1  A    between atoms: C_1  and  C_2
REMARK    2  A    between atoms: C_2  and  O_3
REMARK    3  A    between atoms: O_3  and  C_4
REMARK    4  A    between atoms: C_4  and  C_6
REMARK    5  A    between atoms: C_11  and  O_12
REMARK    6  A    between atoms: O_12  and  C_13
REMARK    7  A    between atoms: C_16  and  N_17
REMARK    8  A    between atoms: C_18  and  C_20
REMARK    9  A    between atoms: C_20  and  N_21
REMARK                            x       y       z     vdW  Elec       q    Type
REMARK                         _______ _______ _______ _____ _____    ______ ____
ROOT
ATOM      1  C   UNL     1       2.785   4.311  18.086  0.00  0.00    +0.000 A 
ATOM      2  N   UNL     1       3.524   3.637  17.139  0.00  0.00    +0.000 N 
ATOM      3  C   UNL     1       4.657   4.345  16.810  0.00  0.00    +0.000 A 
ATOM      4  C   UNL     1       5.714   4.019  15.954  0.00  0.00    +0.000 A 
ATOM      5  C   UNL     1       6.783   4.925  15.858  0.00  0.00    +0.000 A 
ATOM      6  C   UNL     1       6.790   6.111  16.590  0.00  0.00    +0.000 A 
ATOM      7  C   UNL     1       5.706   6.423  17.418  0.00  0.00    +0.000 A 
ATOM      8  C   UNL     1       4.613   5.540  17.527  0.00  0.00    +0.000 A 
ATOM      9  C   UNL     1       3.406   5.527  18.287  0.00  0.00    +0.000 A 
ATOM     10  H   UNL     1       3.286   2.724  16.779  0.00  0.00    +0.000 HD
ENDROOT
BRANCH   9  11
ATOM     11  N   UNL     1       2.899   6.493  19.147  0.00  0.00    +0.000 N 
ATOM     12  C   UNL     1       2.233   7.599  18.655  0.00  0.00    +0.000 C 
ATOM     13  O   UNL     1       2.040   7.838  17.464  0.00  0.00    +0.000 OA
ATOM     14  H   UNL     1       2.603   6.162  20.061  0.00  0.00    +0.000 HD
BRANCH  12  15
ATOM     15  C   UNL     1       1.705   8.540  19.746  0.00  0.00    +0.000 C 
BRANCH  15  16
ATOM     16  N   UNL     1       0.810   9.573  19.181  0.00  0.00    +0.000 NA
ATOM     17  C   UNL     1       1.572  10.588  18.432  0.00  0.00    +0.000 C 
ATOM     18  C   UNL     1       1.758  11.949  19.121  0.00  0.00    +0.000 C 
ATOM     19  C   UNL     1       0.418  12.481  19.545  0.00  0.00    +0.000 A 
ATOM     20  C   UNL     1       0.103  13.839  19.505  0.00  0.00    +0.000 A 
ATOM     21  C   UNL     1      -1.152  14.276  19.925  0.00  0.00    +0.000 A 
ATOM     22  C   UNL     1      -2.095  13.357  20.391  0.00  0.00    +0.000 A 
ATOM     23  C   UNL     1      -1.776  12.001  20.453  0.00  0.00    +0.000 A 
ATOM     24  C   UNL     1      -0.520  11.554  20.026  0.00  0.00    +0.000 A 
ATOM     25  C   UNL     1      -0.089  10.124  20.221  0.00  0.00    +0.000 C 
ENDBRANCH  15  16
ENDBRANCH  12  15
ENDBRANCH   9  11
BRANCH   1  26
ATOM     26  C   UNL     1       1.594   3.823  18.722  0.00  0.00    +0.000 C 
ATOM     27  O   UNL     1       0.693   3.223  18.146  0.00  0.00    +0.000 OA
BRANCH  26  28
ATOM     28  O   UNL     1       1.564   4.242  20.016  0.00  0.00    +0.000 OA
BRANCH  28  30
ATOM     29  C   UNL     1       2.481   2.700  21.581  0.00  0.00    +0.000 C 
ATOM     30  C   UNL     1       1.200   3.218  20.950  0.00  0.00    +0.000 C 
ENDBRANCH  28  30
ENDBRANCH  26  28
ENDBRANCH   1  26
BRANCH   6  31
ATOM     31  O   UNL     1       7.790   7.046  16.605  0.00  0.00    +0.000 OA
ATOM     32  C   UNL     1       7.790   7.983  17.671  0.00  0.00    +0.000 C 
ENDBRANCH   6  31
TORSDOF 7
ENDMDL
MODEL 6
REMARK VINA RESULT:      -8.0      2.232      2.738
REMARK  Name = 
REMARK  9 active torsions:
REMARK  status: ('A' for Active; 'I' for Inactive)
REMARK    1  A    between atoms: C_1  and  C_2
REMARK    2  A    between atoms: C_2  and  O_3
REMARK    3  A    between atoms: O_3  and  C_4
REMARK    4  A    between atoms: C_4  and  C_6
REMARK    5  A    between atoms: C_11  and  O_12
REMARK    6  A    between atoms: O_12  and  C_13
REMARK    7  A    between atoms: C_16  and  N_17
REMARK    8  A    between atoms: C_18  and  C_20
REMARK    9  A    between atoms: C_20  and  N_21
REMARK                            x       y       z     vdW  Elec       q    Type
REMARK                         _______ _______ _______ _____ _____    ______ ____
ROOT
ATOM      1  C   UNL     1       2.600   4.180  18.186  0.00  0.00    +0.000 A 
ATOM      2  N   UNL     1       3.169   3.691  17.032  0.00  0.00    +0.000 N 
ATOM      3  C   UNL     1       4.320   4.380  16.727  0.00  0.00    +0.000 A 
ATOM      4  C   UNL     1       5.247   4.189  15.696  0.00  0.00    +0.000 A 
ATOM      5  C   UNL     1       6.377   5.023  15.667  0.00  0.00    +0.000 A 
ATOM      6  C   UNL     1       6.570   6.009  16.633  0.00  0.00    +0.000 A 
ATOM      7  C   UNL     1       5.612   6.194  17.637  0.00  0.00    +0.000 A 
ATOM      8  C   UNL     1       4.462   5.383  17.686  0.00  0.00    +0.000 A 
ATOM      9  C   UNL     1       3.346   5.276  18.569  0.00  0.00    +0.000 A 
ATOM     10  H   UNL     1       2.813   2.900  16.514  0.00  0.00    +0.000 HD
ENDROOT
BRANCH   9  11
ATOM     11  N   UNL     1       3.024   6.053  19.674  0.00  0.00    +0.000 N 
ATOM     12  C   UNL     1       2.333   7.240  19.527  0.00  0.00    +0.000 C 
ATOM     13  O   UNL     1       1.961   7.716  18.455  0.00  0.00    +0.000 OA
ATOM     14  H   UNL     1       2.865   5.546  20.541  0.00  0.00    +0.000 HD
BRANCH  12  15
ATOM     15  C   UNL     1       2.025   7.946  20.854  0.00  0.00    +0.000 C 
BRANCH  15  16
ATOM     16  N   UNL     1       0.785   8.747  20.765  0.00  0.00    +0.000 NA
ATOM     17  C   UNL     1       0.915   9.823  19.768  0.00  0.00    +0.000 C 
ATOM     18  C   UNL     1       1.107  11.245  20.318  0.00  0.00    +0.000 C 
ATOM     19  C   UNL     1       0.016  11.550  21.305  0.00  0.00    +0.000 A 
ATOM     20  C   UNL     1      -0.551  12.819  21.429  0.00  0.00    +0.000 A 
ATOM     21  C   UNL     1      -1.550  13.046  22.373  0.00  0.00    +0.000 A 
ATOM     22  C   UNL     1      -1.982  12.008  23.201  0.00  0.00    +0.000 A 
ATOM     23  C   UNL     1      -1.402  10.743  23.095  0.00  0.00    +0.000 A 
ATOM     24  C   UNL     1      -0.404  10.506  22.144  0.00  0.00    +0.000 A 
ATOM     25  C   UNL     1       0.348   9.201  22.105  0.00  0.00    +0.000 C 
ENDBRANCH  15  16
ENDBRANCH  12  15
ENDBRANCH   9  11
BRANCH   1  26
ATOM     26  C   UNL     1       1.443   3.638  18.844  0.00  0.00    +0.000 C 
ATOM     27  O   UNL     1       0.557   3.004  18.284  0.00  0.00    +0.000 OA
BRANCH  26  28
ATOM     28  O   UNL     1       1.423   4.049  20.141  0.00  0.00    +0.000 OA
BRANCH  28  30
ATOM     29  C   UNL     1       2.633   2.636  21.625  0.00  0.00    +0.000 C 
ATOM     30  C   UNL     1       1.256   2.985  21.085  0.00  0.00    +0.000 C 
ENDBRANCH  28  30
ENDBRANCH  26  28
ENDBRANCH   1  26
BRANCH   6  31
ATOM     31  O   UNL     1       7.646   6.849  16.726  0.00  0.00    +0.000 OA
ATOM     32  C   UNL     1       7.529   7.964  17.598  0.00  0.00    +0.000 C 
ENDBRANCH   6  31
TORSDOF 7
ENDMDL
MODEL 7
REMARK VINA RESULT:      -8.0      1.959      2.574
REMARK  Name = 
REMARK  9 active torsions:
REMARK  status: ('A' for Active; 'I' for Inactive)
REMARK    1  A    between atoms: C_1  and  C_2
REMARK    2  A    between atoms: C_2  and  O_3
REMARK    3  A    between atoms: O_3  and  C_4
REMARK    4  A    between atoms: C_4  and  C_6
REMARK    5  A    between atoms: C_11  and  O_12
REMARK    6  A    between atoms: O_12  and  C_13
REMARK    7  A    between atoms: C_16  and  N_17
REMARK    8  A    between atoms: C_18  and  C_20
REMARK    9  A    between atoms: C_20  and  N_21
REMARK                            x       y       z     vdW  Elec       q    Type
REMARK                         _______ _______ _______ _____ _____    ______ ____
ROOT
ATOM      1  C   UNL     1       3.155   4.184  17.633  0.00  0.00    +0.000 A 
ATOM      2  N   UNL     1       4.070   4.003  16.620  0.00  0.00    +0.000 N 
ATOM      3  C   UNL     1       5.175   4.799  16.813  0.00  0.00    +0.000 A 
ATOM      4  C   UNL     1       6.364   4.896  16.081  0.00  0.00    +0.000 A 
ATOM      5  C   UNL     1       7.357   5.767  16.557  0.00  0.00    +0.000 A 
ATOM      6  C   UNL     1       7.166   6.512  17.719  0.00  0.00    +0.000 A 
ATOM      7  C   UNL     1       5.956   6.414  18.416  0.00  0.00    +0.000 A 
ATOM      8  C   UNL     1       4.935   5.558  17.958  0.00  0.00    +0.000 A 
ATOM      9  C   UNL     1       3.640   5.197  18.435  0.00  0.00    +0.000 A 
ATOM     10  H   UNL     1       3.960   3.337  15.868  0.00  0.00    +0.000 HD
ENDROOT
BRANCH   9  11
ATOM     11  N   UNL     1       2.942   5.682  19.533  0.00  0.00    +0.000 N 
ATOM     12  C   UNL     1       2.307   6.907  19.483  0.00  0.00    +0.000 C 
ATOM     13  O   UNL     1       2.302   7.665  18.514  0.00  0.00    +0.000 OA
ATOM     14  H   UNL     1       2.516   4.980  20.133  0.00  0.00    +0.000 HD
BRANCH  12  15
ATOM     15  C   UNL     1       1.550   7.265  20.770  0.00  0.00    +0.000 C 
BRANCH  15  16
ATOM     16  N   UNL     1       1.398   8.729  20.918  0.00  0.00    +0.000 NA
ATOM     17  C   UNL     1       1.550   9.143  22.323  0.00  0.00    +0.000 C 
ATOM     18  C   UNL     1       0.260   9.514  23.070  0.00  0.00    +0.000 C 
ATOM     19  C   UNL     1      -0.494  10.547  22.280  0.00  0.00    +0.000 A 
ATOM     20  C   UNL     1      -1.212  11.578  22.886  0.00  0.00    +0.000 A 
ATOM     21  C   UNL     1      -1.905  12.498  22.101  0.00  0.00    +0.000 A 
ATOM     22  C   UNL     1      -1.887  12.388  20.709  0.00  0.00    +0.000 A 
ATOM     23  C   UNL     1      -1.187  11.346  20.101  0.00  0.00    +0.000 A 
ATOM     24  C   UNL     1      -0.483  10.423  20.882  0.00  0.00    +0.000 A 
ATOM     25  C   UNL     1       0.153   9.202  20.270  0.00  0.00    +0.000 C 
ENDBRANCH  15  16
ENDBRANCH  12  15
ENDBRANCH   9  11
BRANCH   1  26
ATOM     26  C   UNL     1       1.931   3.450  17.797  0.00  0.00    +0.000 C 
ATOM     27  O   UNL     1       0.810   3.925  17.657  0.00  0.00    +0.000 OA
BRANCH  26  28
ATOM     28  O   UNL     1       2.208   2.199  18.256  0.00  0.00    +0.000 OA
BRANCH  28  30
ATOM     29  C   UNL     1       1.456   2.542  20.488  0.00  0.00    +0.000 C 
ATOM     30  C   UNL     1       2.644   2.164  19.620  0.00  0.00    +0.000 C 
ENDBRANCH  28  30
ENDBRANCH  26  28
ENDBRANCH   1  26
BRANCH   6  31
ATOM     31  O   UNL     1       8.075   7.359  18.295  0.00  0.00    +0.000 OA
ATOM     32  C   UNL     1       8.066   8.712  17.866  0.00  0.00    +0.000 C 
ENDBRANCH   6  31
TORSDOF 7
ENDMDL
MODEL 8
REMARK VINA RESULT:      -7.9      2.966      5.540
REMARK  Name = 
REMARK  9 active torsions:
REMARK  status: ('A' for Active; 'I' for Inactive)
REMARK    1  A    between atoms: C_1  and  C_2
REMARK    2  A    between atoms: C_2  and  O_3
REMARK    3  A    between atoms: O_3  and  C_4
REMARK    4  A    between atoms: C_4  and  C_6
REMARK    5  A    between atoms: C_11  and  O_12
REMARK    6  A    between atoms: O_12  and  C_13
REMARK    7  A    between atoms: C_16  and  N_17
REMARK    8  A    between atoms: C_18  and  C_20
REMARK    9  A    between atoms: C_20  and  N_21
REMARK                            x       y       z     vdW  Elec       q    Type
REMARK                         _______ _______ _______ _____ _____    ______ ____
ROOT
ATOM      1  C   UNL     1       6.855   5.728  15.728  0.00  0.00    +0.000 A 
ATOM      2  N   UNL     1       7.735   5.344  14.742  0.00  0.00    +0.000 N 
ATOM      3  C   UNL     1       7.090   4.621  13.766  0.00  0.00    +0.000 A 
ATOM      4  C   UNL     1       7.567   4.092  12.561  0.00  0.00    +0.000 A 
ATOM      5  C   UNL     1       6.649   3.439  11.723  0.00  0.00    +0.000 A 
ATOM      6  C   UNL     1       5.307   3.321  12.077  0.00  0.00    +0.000 A 
ATOM      7  C   UNL     1       4.863   3.837  13.301  0.00  0.00    +0.000 A 
ATOM      8  C   UNL     1       5.762   4.486  14.170  0.00  0.00    +0.000 A 
ATOM      9  C   UNL     1       5.640   5.144  15.430  0.00  0.00    +0.000 A 
ATOM     10  H   UNL     1       8.711   5.607  14.718  0.00  0.00    +0.000 HD
ENDROOT
BRANCH   9  11
ATOM     11  N   UNL     1       4.525   5.276  16.247  0.00  0.00    +0.000 N 
ATOM     12  C   UNL     1       4.102   4.228  17.040  0.00  0.00    +0.000 C 
ATOM     13  O   UNL     1       4.633   3.120  17.094  0.00  0.00    +0.000 OA
ATOM     14  H   UNL     1       4.346   6.211  16.606  0.00  0.00    +0.000 HD
BRANCH  12  15
ATOM     15  C   UNL     1       2.881   4.562  17.909  0.00  0.00    +0.000 C 
BRANCH  15  16
ATOM     16  N   UNL     1       3.085   5.816  18.667  0.00  0.00    +0.000 NA
ATOM     17  C   UNL     1       2.978   5.586  20.119  0.00  0.00    +0.000 C 
ATOM     18  C   UNL     1       1.684   6.067  20.793  0.00  0.00    +0.000 C 
ATOM     19  C   UNL     1       1.453   7.513  20.455  0.00  0.00    +0.000 A 
ATOM     20  C   UNL     1       0.900   8.417  21.363  0.00  0.00    +0.000 A 
ATOM     21  C   UNL     1       0.695   9.743  20.987  0.00  0.00    +0.000 A 
ATOM     22  C   UNL     1       1.037  10.170  19.702  0.00  0.00    +0.000 A 
ATOM     23  C   UNL     1       1.571   9.264  18.785  0.00  0.00    +0.000 A 
ATOM     24  C   UNL     1       1.786   7.933  19.158  0.00  0.00    +0.000 A 
ATOM     25  C   UNL     1       2.214   6.897  18.151  0.00  0.00    +0.000 C 
ENDBRANCH  15  16
ENDBRANCH  12  15
ENDBRANCH   9  11
BRANCH   1  26
ATOM     26  C   UNL     1       7.168   6.569  16.849  0.00  0.00    +0.000 C 
ATOM     27  O   UNL     1       6.760   7.715  16.995  0.00  0.00    +0.000 OA
BRANCH  26  28
ATOM     28  O   UNL     1       8.081   5.948  17.644  0.00  0.00    +0.000 OA
BRANCH  28  30
ATOM     29  C   UNL     1       6.628   5.367  19.438  0.00  0.00    +0.000 C 
ATOM     30  C   UNL     1       7.557   4.826  18.364  0.00  0.00    +0.000 C 
ENDBRANCH  28  30
ENDBRANCH  26  28
ENDBRANCH   1  26
BRANCH   6  31
ATOM     31  O   UNL     1       4.320   2.743  11.325  0.00  0.00    +0.000 OA
ATOM     32  C   UNL     1       3.516   3.604  10.533  0.00  0.00    +0.000 C 
ENDBRANCH   6  31
TORSDOF 7
ENDMDL
MODEL 9
REMARK VINA RESULT:      -7.9      3.451      8.104
REMARK  Name = 
REMARK  9 active torsions:
REMARK  status: ('A' for Active; 'I' for Inactive)
REMARK    1  A    between atoms: C_1  and  C_2
REMARK    2  A    between atoms: C_2  and  O_3
REMARK    3  A    between atoms: O_3  and  C_4
REMARK    4  A    between atoms: C_4  and  C_6
REMARK    5  A    between atoms: C_11  and  O_12
REMARK    6  A    between atoms: O_12  and  C_13
REMARK    7  A    between atoms: C_16  and  N_17
REMARK    8  A    between atoms: C_18  and  C_20
REMARK    9  A    between atoms: C_20  and  N_21
REMARK                            x       y       z     vdW  Elec       q    Type
REMARK                         _______ _______ _______ _____ _____    ______ ____
ROOT
ATOM      1  C   UNL     1       5.865   5.045  15.924  0.00  0.00    +0.000 A 
ATOM      2  N   UNL     1       4.864   4.169  16.280  0.00  0.00    +0.000 N 
ATOM      3  C   UNL     1       4.014   4.746  17.195  0.00  0.00    +0.000 A 
ATOM      4  C   UNL     1       2.840   4.256  17.778  0.00  0.00    +0.000 A 
ATOM      5  C   UNL     1       2.137   5.105  18.648  0.00  0.00    +0.000 A 
ATOM      6  C   UNL     1       2.594   6.393  18.924  0.00  0.00    +0.000 A 
ATOM      7  C   UNL     1       3.786   6.846  18.347  0.00  0.00    +0.000 A 
ATOM      8  C   UNL     1       4.520   6.014  17.479  0.00  0.00    +0.000 A 
ATOM      9  C   UNL     1       5.712   6.170  16.710  0.00  0.00    +0.000 A 
ATOM     10  H   UNL     1       4.747   3.249  15.880  0.00  0.00    +0.000 HD
ENDROOT
BRANCH   9  11
ATOM     11  N   UNL     1       6.586   7.247  16.655  0.00  0.00    +0.000 N 
ATOM     12  C   UNL     1       7.557   7.421  17.623  0.00  0.00    +0.000 C 
ATOM     13  O   UNL     1       7.731   6.685  18.593  0.00  0.00    +0.000 OA
ATOM     14  H   UNL     1       6.817   7.584  15.724  0.00  0.00    +0.000 HD
BRANCH  12  15
ATOM     15  C   UNL     1       8.460   8.638  17.382  0.00  0.00    +0.000 C 
BRANCH  15  16
ATOM     16  N   UNL     1       8.128   9.748  18.301  0.00  0.00    +0.000 NA
ATOM     17  C   UNL     1       7.767  10.967  17.556  0.00  0.00    +0.000 C 
ATOM     18  C   UNL     1       8.823  12.082  17.518  0.00  0.00    +0.000 C 
ATOM     19  C   UNL     1       9.253  12.411  18.920  0.00  0.00    +0.000 A 
ATOM     20  C   UNL     1       9.566  13.709  19.325  0.00  0.00    +0.000 A 
ATOM     21  C   UNL     1       9.974  13.950  20.634  0.00  0.00    +0.000 A 
ATOM     22  C   UNL     1      10.075  12.896  21.545  0.00  0.00    +0.000 A 
ATOM     23  C   UNL     1       9.783  11.594  21.138  0.00  0.00    +0.000 A 
ATOM     24  C   UNL     1       9.366  11.344  19.826  0.00  0.00    +0.000 A 
ATOM     25  C   UNL     1       9.192   9.939  19.312  0.00  0.00    +0.000 C 
ENDBRANCH  15  16
ENDBRANCH  12  15
ENDBRANCH   9  11
BRANCH   1  26
ATOM     26  C   UNL     1       6.870   4.808  14.926  0.00  0.00    +0.000 C 
ATOM     27  O   UNL     1       7.833   5.538  14.721  0.00  0.00    +0.000 OA
BRANCH  26  28
ATOM     28  O   UNL     1       6.517   3.733  14.170  0.00  0.00    +0.000 OA
BRANCH  28  30
ATOM     29  C   UNL     1       5.428   3.193  12.124  0.00  0.00    +0.000 C 
ATOM     30  C   UNL     1       6.565   3.975  12.759  0.00  0.00    +0.000 C 
ENDBRANCH  28  30
ENDBRANCH  26  28
ENDBRANCH   1  26
BRANCH   6  31
ATOM     31  O   UNL     1       1.974   7.316  19.722  0.00  0.00    +0.000 OA
ATOM     32  C   UNL     1       1.699   8.588  19.154  0.00  0.00    +0.000 C 
ENDBRANCH   6  31
TORSDOF 7
ENDMDL
