MODEL 1
REMARK VINA RESULT:      -7.5      0.000      0.000
REMARK  Name = 
REMARK  5 active torsions:
REMARK  status: ('A' for Active; 'I' for Inactive)
REMARK    1  A    between atoms: C_2  and  C_3
REMARK    2  A    between atoms: N_5  and  C_6
REMARK    3  A    between atoms: C_9  and  C_10
REMARK    4  A    between atoms: C_10  and  O_12
REMARK    5  A    between atoms: C_19  and  C_20
REMARK                            x       y       z     vdW  Elec       q    Type
REMARK                         _______ _______ _______ _____ _____    ______ ____
ROOT
ATOM      1  C   UNL     1       0.678   8.807  21.483  0.00  0.00    +0.000 A 
ATOM      2  C   UNL     1       1.084   7.497  21.564  0.00  0.00    +0.000 A 
ATOM      3  N   UNL     1       1.711   7.136  20.396  0.00  0.00    +0.000 N 
ATOM      4  C   UNL     1       1.674   8.233  19.527  0.00  0.00    +0.000 A 
ATOM      5  C   UNL     1       2.053   8.333  18.174  0.00  0.00    +0.000 A 
ATOM      6  C   UNL     1       1.930   9.551  17.521  0.00  0.00    +0.000 A 
ATOM      7  C   UNL     1       1.431  10.656  18.191  0.00  0.00    +0.000 A 
ATOM      8  C   UNL     1       0.984  10.592  19.533  0.00  0.00    +0.000 A 
ATOM      9  C   UNL     1       1.082   9.326  20.208  0.00  0.00    +0.000 A 
ENDROOT
BRANCH   3  10
ATOM     10  C   UNL     1       2.293   5.848  20.192  0.00  0.00    +0.000 A 
ATOM     11  C   UNL     1       3.564   5.753  19.597  0.00  0.00    +0.000 A 
ATOM     12  C   UNL     1       4.133   4.506  19.335  0.00  0.00    +0.000 A 
ATOM     13  C   UNL     1       3.440   3.337  19.649  0.00  0.00    +0.000 A 
ATOM     14  C   UNL     1       2.185   3.420  20.267  0.00  0.00    +0.000 A 
ATOM     15  C   UNL     1       1.609   4.672  20.523  0.00  0.00    +0.000 A 
BRANCH  13  16
ATOM     16  C   UNL     1       4.087   2.040  19.331  0.00  0.00    +0.000 C 
ATOM     17  O   UNL     1       3.640   1.260  18.511  0.00  0.00    +0.000 OA
BRANCH  16  18
ATOM     18  O   UNL     1       5.184   1.782  20.075  0.00  0.00    +0.000 OA
ATOM     19  H   UNL     1       5.297   0.849  20.340  0.00  0.00    +0.000 HD
ENDBRANCH  16  18
ENDBRANCH  13  16
ENDBRANCH   3  10
BRANCH   8  20
ATOM     20  C   UNL     1       0.429  11.813  20.167  0.00  0.00    +0.000 A 
ATOM     21  C   UNL     1       1.269  12.737  20.825  0.00  0.00    +0.000 A 
ATOM     22  C   UNL     1       0.761  13.878  21.457  0.00  0.00    +0.000 A 
ATOM     23  C   UNL     1      -0.600  14.151  21.407  0.00  0.00    +0.000 A 
ATOM     24  C   UNL     1      -1.454  13.256  20.775  0.00  0.00    +0.000 A 
ATOM     25  C   UNL     1      -0.947  12.080  20.206  0.00  0.00    +0.000 A 
ENDBRANCH   8  20
BRANCH   1  27
ATOM     26  N   UNL     1      -0.525   9.986  23.450  0.00  0.00    +0.000 NA
ATOM     27  C   UNL     1      -0.020   9.424  22.571  0.00  0.00    +0.000 C 
ENDBRANCH   1  27
TORSDOF 5
ENDMDL
MODEL 2
REMARK VINA RESULT:      -7.4      0.238      1.353
REMARK  Name = 
REMARK  5 active torsions:
REMARK  status: ('A' for Active; 'I' for Inactive)
REMARK    1  A    between atoms: C_2  and  C_3
REMARK    2  A    between atoms: N_5  and  C_6
REMARK    3  A    between atoms: C_9  and  C_10
REMARK    4  A    between atoms: C_10  and  O_12
REMARK    5  A    between atoms: C_19  and  C_20
REMARK                            x       y       z     vdW  Elec       q    Type
REMARK                         _______ _______ _______ _____ _____    ______ ____
ROOT
ATOM      1  C   UNL     1       0.740   8.887  21.535  0.00  0.00    +0.000 A 
ATOM      2  C   UNL     1       1.150   7.576  21.526  0.00  0.00    +0.000 A 
ATOM      3  N   UNL     1       1.738   7.285  20.319  0.00  0.00    +0.000 N 
ATOM      4  C   UNL     1       1.669   8.429  19.516  0.00  0.00    +0.000 A 
ATOM      5  C   UNL     1       2.001   8.608  18.158  0.00  0.00    +0.000 A 
ATOM      6  C   UNL     1       1.855   9.861  17.581  0.00  0.00    +0.000 A 
ATOM      7  C   UNL     1       1.377  10.924  18.330  0.00  0.00    +0.000 A 
ATOM      8  C   UNL     1       0.977  10.782  19.681  0.00  0.00    +0.000 A 
ATOM      9  C   UNL     1       1.100   9.480  20.279  0.00  0.00    +0.000 A 
ENDROOT
BRANCH   3  10
ATOM     10  C   UNL     1       2.314   6.012  20.021  0.00  0.00    +0.000 A 
ATOM     11  C   UNL     1       1.628   4.842  20.391  0.00  0.00    +0.000 A 
ATOM     12  C   UNL     1       2.192   3.586  20.163  0.00  0.00    +0.000 A 
ATOM     13  C   UNL     1       3.453   3.479  19.576  0.00  0.00    +0.000 A 
ATOM     14  C   UNL     1       4.134   4.636  19.179  0.00  0.00    +0.000 A 
ATOM     15  C   UNL     1       3.571   5.899  19.416  0.00  0.00    +0.000 A 
BRANCH  13  16
ATOM     16  C   UNL     1       4.010   2.118  19.374  0.00  0.00    +0.000 C 
ATOM     17  O   UNL     1       3.518   1.308  18.610  0.00  0.00    +0.000 OA
BRANCH  16  18
ATOM     18  O   UNL     1       5.076   1.844  20.155  0.00  0.00    +0.000 OA
ATOM     19  H   UNL     1       5.076   0.958  20.565  0.00  0.00    +0.000 HD
ENDBRANCH  16  18
ENDBRANCH  13  16
ENDBRANCH   3  10
BRANCH   8  20
ATOM     20  C   UNL     1       0.442  11.962  20.403  0.00  0.00    +0.000 A 
ATOM     21  C   UNL     1      -0.948  12.151  20.561  0.00  0.00    +0.000 A 
ATOM     22  C   UNL     1      -1.473  13.274  21.211  0.00  0.00    +0.000 A 
ATOM     23  C   UNL     1      -0.617  14.218  21.764  0.00  0.00    +0.000 A 
ATOM     24  C   UNL     1       0.756  14.066  21.618  0.00  0.00    +0.000 A 
ATOM     25  C   UNL     1       1.272  12.976  20.905  0.00  0.00    +0.000 A 
ENDBRANCH   8  20
BRANCH   1  27
ATOM     26  N   UNL     1      -0.487   9.945  23.555  0.00  0.00    +0.000 NA
ATOM     27  C   UNL     1       0.079   9.438  22.679  0.00  0.00    +0.000 C 
ENDBRANCH   1  27
TORSDOF 5
ENDMDL
MODEL 3
REMARK VINA RESULT:      -7.4      0.264      1.150
REMARK  Name = 
REMARK  5 active torsions:
REMARK  status: ('A' for Active; 'I' for Inactive)
REMARK    1  A    between atoms: C_2  and  C_3
REMARK    2  A    between atoms: N_5  and  C_6
REMARK    3  A    between atoms: C_9  and  C_10
REMARK    4  A    between atoms: C_10  and  O_12
REMARK    5  A    between atoms: C_19  and  C_20
REMARK                            x       y       z     vdW  Elec       q    Type
REMARK                         _______ _______ _______ _____ _____    ______ ____
ROOT
ATOM      1  C   UNL     1       0.648   8.854  21.505  0.00  0.00    +0.000 A 
ATOM      2  C   UNL     1       1.109   7.560  21.558  0.00  0.00    +0.000 A 
ATOM      3  N   UNL     1       1.751   7.251  20.384  0.00  0.00    +0.000 N 
ATOM      4  C   UNL     1       1.668   8.363  19.538  0.00  0.00    +0.000 A 
ATOM      5  C   UNL     1       2.043   8.508  18.187  0.00  0.00    +0.000 A 
ATOM      6  C   UNL     1       1.869   9.733  17.561  0.00  0.00    +0.000 A 
ATOM      7  C   UNL     1       1.324  10.801  18.253  0.00  0.00    +0.000 A 
ATOM      8  C   UNL     1       0.880  10.690  19.593  0.00  0.00    +0.000 A 
ATOM      9  C   UNL     1       1.031   9.416  20.241  0.00  0.00    +0.000 A 
ENDROOT
BRANCH   3  10
ATOM     10  C   UNL     1       2.387   5.993  20.153  0.00  0.00    +0.000 A 
ATOM     11  C   UNL     1       1.856   4.834  20.747  0.00  0.00    +0.000 A 
ATOM     12  C   UNL     1       2.488   3.600  20.584  0.00  0.00    +0.000 A 
ATOM     13  C   UNL     1       3.664   3.505  19.839  0.00  0.00    +0.000 A 
ATOM     14  C   UNL     1       4.186   4.648  19.220  0.00  0.00    +0.000 A 
ATOM     15  C   UNL     1       3.556   5.889  19.391  0.00  0.00    +0.000 A 
BRANCH  13  16
ATOM     16  C   UNL     1       4.300   2.171  19.715  0.00  0.00    +0.000 C 
ATOM     17  O   UNL     1       5.058   1.718  20.553  0.00  0.00    +0.000 OA
BRANCH  16  18
ATOM     18  O   UNL     1       4.006   1.531  18.563  0.00  0.00    +0.000 OA
ATOM     19  H   UNL     1       4.445   0.669  18.442  0.00  0.00    +0.000 HD
ENDBRANCH  16  18
ENDBRANCH  13  16
ENDBRANCH   3  10
BRANCH   8  20
ATOM     20  C   UNL     1       0.274  11.873  20.253  0.00  0.00    +0.000 A 
ATOM     21  C   UNL     1       1.073  12.816  20.933  0.00  0.00    +0.000 A 
ATOM     22  C   UNL     1       0.518  13.921  21.589  0.00  0.00    +0.000 A 
ATOM     23  C   UNL     1      -0.854  14.139  21.541  0.00  0.00    +0.000 A 
ATOM     24  C   UNL     1      -1.669  13.224  20.886  0.00  0.00    +0.000 A 
ATOM     25  C   UNL     1      -1.113  12.083  20.293  0.00  0.00    +0.000 A 
ENDBRANCH   8  20
BRANCH   1  27
ATOM     26  N   UNL     1      -0.607   9.941  23.491  0.00  0.00    +0.000 NA
ATOM     27  C   UNL     1      -0.074   9.417  22.605  0.00  0.00    +0.000 C 
ENDBRANCH   1  27
TORSDOF 5
ENDMDL
MODEL 4
REMARK VINA RESULT:      -7.1      4.304      8.108
REMARK  Name = 
REMARK  5 active torsions:
REMARK  status: ('A' for Active; 'I' for Inactive)
REMARK    1  A    between atoms: C_2  and  C_3
REMARK    2  A    between atoms: N_5  and  C_6
REMARK    3  A    between atoms: C_9  and  C_10
REMARK    4  A    between atoms: C_10  and  O_12
REMARK    5  A    between atoms: C_19  and  C_20
REMARK                            x       y       z     vdW  Elec       q    Type
REMARK                         _______ _______ _______ _____ _____    ______ ____
ROOT
ATOM      1  C   UNL     1       1.677   6.597  20.638  0.00  0.00    +0.000 A 
ATOM      2  C   UNL     1       0.929   7.405  21.461  0.00  0.00    +0.000 A 
ATOM      3  N   UNL     1       0.747   8.628  20.863  0.00  0.00    +0.000 N 
ATOM      4  C   UNL     1       1.428   8.619  19.640  0.00  0.00    +0.000 A 
ATOM      5  C   UNL     1       1.664   9.663  18.724  0.00  0.00    +0.000 A 
ATOM      6  C   UNL     1       2.366   9.398  17.557  0.00  0.00    +0.000 A 
ATOM      7  C   UNL     1       2.840   8.123  17.300  0.00  0.00    +0.000 A 
ATOM      8  C   UNL     1       2.678   7.054  18.215  0.00  0.00    +0.000 A 
ATOM      9  C   UNL     1       1.975   7.327  19.439  0.00  0.00    +0.000 A 
ENDROOT
BRANCH   3  10
ATOM     10  C   UNL     1      -0.035   9.670  21.447  0.00  0.00    +0.000 A 
ATOM     11  C   UNL     1      -0.382   9.591  22.808  0.00  0.00    +0.000 A 
ATOM     12  C   UNL     1      -1.191  10.566  23.393  0.00  0.00    +0.000 A 
ATOM     13  C   UNL     1      -1.677  11.626  22.627  0.00  0.00    +0.000 A 
ATOM     14  C   UNL     1      -1.317  11.730  21.278  0.00  0.00    +0.000 A 
ATOM     15  C   UNL     1      -0.511  10.746  20.688  0.00  0.00    +0.000 A 
BRANCH  13  16
ATOM     16  C   UNL     1      -2.548  12.624  23.298  0.00  0.00    +0.000 C 
ATOM     17  O   UNL     1      -2.260  13.803  23.383  0.00  0.00    +0.000 OA
BRANCH  16  18
ATOM     18  O   UNL     1      -3.658  12.092  23.853  0.00  0.00    +0.000 OA
ATOM     19  H   UNL     1      -3.796  11.142  23.679  0.00  0.00    +0.000 HD
ENDBRANCH  16  18
ENDBRANCH  13  16
ENDBRANCH   3  10
BRANCH   8  20
ATOM     20  C   UNL     1       3.246   5.725  17.881  0.00  0.00    +0.000 A 
ATOM     21  C   UNL     1       2.409   4.621  17.618  0.00  0.00    +0.000 A 
ATOM     22  C   UNL     1       2.925   3.352  17.332  0.00  0.00    +0.000 A 
ATOM     23  C   UNL     1       4.300   3.164  17.254  0.00  0.00    +0.000 A 
ATOM     24  C   UNL     1       5.152   4.229  17.517  0.00  0.00    +0.000 A 
ATOM     25  C   UNL     1       4.628   5.479  17.872  0.00  0.00    +0.000 A 
ENDBRANCH   8  20
BRANCH   1  27
ATOM     26  N   UNL     1       2.236   4.193  21.421  0.00  0.00    +0.000 NA
ATOM     27  C   UNL     1       2.023   5.267  21.040  0.00  0.00    +0.000 C 
ENDBRANCH   1  27
TORSDOF 5
ENDMDL
MODEL 5
REMARK VINA RESULT:      -7.1      1.863      2.668
REMARK  Name = 
REMARK  5 active torsions:
REMARK  status: ('A' for Active; 'I' for Inactive)
REMARK    1  A    between atoms: C_2  and  C_3
REMARK    2  A    between atoms: N_5  and  C_6
REMARK    3  A    between atoms: C_9  and  C_10
REMARK    4  A    between atoms: C_10  and  O_12
REMARK    5  A    between atoms: C_19  and  C_20
REMARK                            x       y       z     vdW  Elec       q    Type
REMARK                         _______ _______ _______ _____ _____    ______ ____
ROOT
ATOM      1  C   UNL     1       0.764   9.293  21.643  0.00  0.00    +0.000 A 
ATOM      2  C   UNL     1       1.515   8.245  21.167  0.00  0.00    +0.000 A 
ATOM      3  N   UNL     1       1.577   8.309  19.796  0.00  0.00    +0.000 N 
ATOM      4  C   UNL     1       0.814   9.406  19.377  0.00  0.00    +0.000 A 
ATOM      5  C   UNL     1       0.450   9.818  18.080  0.00  0.00    +0.000 A 
ATOM      6  C   UNL     1      -0.313  10.965  17.920  0.00  0.00    +0.000 A 
ATOM      7  C   UNL     1      -0.721  11.693  19.025  0.00  0.00    +0.000 A 
ATOM      8  C   UNL     1      -0.429  11.290  20.351  0.00  0.00    +0.000 A 
ATOM      9  C   UNL     1       0.339  10.087  20.527  0.00  0.00    +0.000 A 
ENDROOT
BRANCH   3  10
ATOM     10  C   UNL     1       2.330   7.386  19.008  0.00  0.00    +0.000 A 
ATOM     11  C   UNL     1       2.282   6.015  19.320  0.00  0.00    +0.000 A 
ATOM     12  C   UNL     1       3.050   5.097  18.602  0.00  0.00    +0.000 A 
ATOM     13  C   UNL     1       3.885   5.532  17.573  0.00  0.00    +0.000 A 
ATOM     14  C   UNL     1       3.920   6.891  17.236  0.00  0.00    +0.000 A 
ATOM     15  C   UNL     1       3.155   7.815  17.962  0.00  0.00    +0.000 A 
BRANCH  13  16
ATOM     16  C   UNL     1       4.692   4.513  16.857  0.00  0.00    +0.000 C 
ATOM     17  O   UNL     1       5.109   4.675  15.725  0.00  0.00    +0.000 OA
BRANCH  16  18
ATOM     18  O   UNL     1       4.870   3.371  17.554  0.00  0.00    +0.000 OA
ATOM     19  H   UNL     1       5.500   2.737  17.161  0.00  0.00    +0.000 HD
ENDBRANCH  16  18
ENDBRANCH  13  16
ENDBRANCH   3  10
BRANCH   8  20
ATOM     20  C   UNL     1      -0.933  12.107  21.482  0.00  0.00    +0.000 A 
ATOM     21  C   UNL     1      -2.105  11.741  22.177  0.00  0.00    +0.000 A 
ATOM     22  C   UNL     1      -2.615  12.516  23.226  0.00  0.00    +0.000 A 
ATOM     23  C   UNL     1      -1.937  13.656  23.640  0.00  0.00    +0.000 A 
ATOM     24  C   UNL     1      -0.784  14.047  22.969  0.00  0.00    +0.000 A 
ATOM     25  C   UNL     1      -0.320  13.305  21.875  0.00  0.00    +0.000 A 
ENDBRANCH   8  20
BRANCH   1  27
ATOM     26  N   UNL     1       0.400   9.503  24.198  0.00  0.00    +0.000 NA
ATOM     27  C   UNL     1       0.533   9.445  23.048  0.00  0.00    +0.000 C 
ENDBRANCH   1  27
TORSDOF 5
ENDMDL
MODEL 6
REMARK VINA RESULT:      -7.0      1.993      3.403
REMARK  Name = 
REMARK  5 active torsions:
REMARK  status: ('A' for Active; 'I' for Inactive)
REMARK    1  A    between atoms: C_2  and  C_3
REMARK    2  A    between atoms: N_5  and  C_6
REMARK    3  A    between atoms: C_9  and  C_10
REMARK    4  A    between atoms: C_10  and  O_12
REMARK    5  A    between atoms: C_19  and  C_20
REMARK                            x       y       z     vdW  Elec       q    Type
REMARK                         _______ _______ _______ _____ _____    ______ ____
ROOT
ATOM      1  C   UNL     1       0.221  11.192  19.384  0.00  0.00    +0.000 A 
ATOM      2  C   UNL     1       1.000  10.231  18.784  0.00  0.00    +0.000 A 
ATOM      3  N   UNL     1       1.245   9.215  19.675  0.00  0.00    +0.000 N 
ATOM      4  C   UNL     1       0.639   9.549  20.893  0.00  0.00    +0.000 A 
ATOM      5  C   UNL     1       0.712   8.914  22.148  0.00  0.00    +0.000 A 
ATOM      6  C   UNL     1      -0.000   9.438  23.218  0.00  0.00    +0.000 A 
ATOM      7  C   UNL     1      -0.766  10.580  23.055  0.00  0.00    +0.000 A 
ATOM      8  C   UNL     1      -0.826  11.286  21.828  0.00  0.00    +0.000 A 
ATOM      9  C   UNL     1      -0.070  10.765  20.723  0.00  0.00    +0.000 A 
ENDROOT
BRANCH   3  10
ATOM     10  C   UNL     1       1.984   8.042  19.333  0.00  0.00    +0.000 A 
ATOM     11  C   UNL     1       2.701   8.009  18.123  0.00  0.00    +0.000 A 
ATOM     12  C   UNL     1       3.387   6.857  17.736  0.00  0.00    +0.000 A 
ATOM     13  C   UNL     1       3.358   5.718  18.542  0.00  0.00    +0.000 A 
ATOM     14  C   UNL     1       2.669   5.748  19.761  0.00  0.00    +0.000 A 
ATOM     15  C   UNL     1       1.973   6.902  20.146  0.00  0.00    +0.000 A 
BRANCH  13  16
ATOM     16  C   UNL     1       4.091   4.516  18.070  0.00  0.00    +0.000 C 
ATOM     17  O   UNL     1       3.765   3.888  17.080  0.00  0.00    +0.000 OA
BRANCH  16  18
ATOM     18  O   UNL     1       5.115   4.154  18.872  0.00  0.00    +0.000 OA
ATOM     19  H   UNL     1       4.870   3.598  19.635  0.00  0.00    +0.000 HD
ENDBRANCH  16  18
ENDBRANCH  13  16
ENDBRANCH   3  10
BRANCH   8  20
ATOM     20  C   UNL     1      -1.643  12.522  21.746  0.00  0.00    +0.000 A 
ATOM     21  C   UNL     1      -1.204  13.724  22.340  0.00  0.00    +0.000 A 
ATOM     22  C   UNL     1      -1.975  14.892  22.301  0.00  0.00    +0.000 A 
ATOM     23  C   UNL     1      -3.188  14.901  21.624  0.00  0.00    +0.000 A 
ATOM     24  C   UNL     1      -3.652  13.730  21.037  0.00  0.00    +0.000 A 
ATOM     25  C   UNL     1      -2.908  12.548  21.141  0.00  0.00    +0.000 A 
ENDBRANCH   8  20
BRANCH   1  27
ATOM     26  N   UNL     1      -0.504  13.357  18.164  0.00  0.00    +0.000 NA
ATOM     27  C   UNL     1      -0.164  12.371  18.668  0.00  0.00    +0.000 C 
ENDBRANCH   1  27
TORSDOF 5
ENDMDL
MODEL 7
REMARK VINA RESULT:      -7.0      4.302      8.102
REMARK  Name = 
REMARK  5 active torsions:
REMARK  status: ('A' for Active; 'I' for Inactive)
REMARK    1  A    between atoms: C_2  and  C_3
REMARK    2  A    between atoms: N_5  and  C_6
REMARK    3  A    between atoms: C_9  and  C_10
REMARK    4  A    between atoms: C_10  and  O_12
REMARK    5  A    between atoms: C_19  and  C_20
REMARK                            x       y       z     vdW  Elec       q    Type
REMARK                         _______ _______ _______ _____ _____    ______ ____
ROOT
ATOM      1  C   UNL     1       1.654   6.581  20.703  0.00  0.00    +0.000 A 
ATOM      2  C   UNL     1       1.005   7.458  21.538  0.00  0.00    +0.000 A 
ATOM      3  N   UNL     1       0.893   8.681  20.923  0.00  0.00    +0.000 N 
ATOM      4  C   UNL     1       1.520   8.599  19.674  0.00  0.00    +0.000 A 
ATOM      5  C   UNL     1       1.797   9.606  18.728  0.00  0.00    +0.000 A 
ATOM      6  C   UNL     1       2.428   9.267  17.540  0.00  0.00    +0.000 A 
ATOM      7  C   UNL     1       2.792   7.954  17.291  0.00  0.00    +0.000 A 
ATOM      8  C   UNL     1       2.586   6.917  18.233  0.00  0.00    +0.000 A 
ATOM      9  C   UNL     1       1.957   7.265  19.478  0.00  0.00    +0.000 A 
ENDROOT
BRANCH   3  10
ATOM     10  C   UNL     1       0.218   9.791  21.517  0.00  0.00    +0.000 A 
ATOM     11  C   UNL     1       0.402  11.078  20.978  0.00  0.00    +0.000 A 
ATOM     12  C   UNL     1      -0.201  12.188  21.571  0.00  0.00    +0.000 A 
ATOM     13  C   UNL     1      -0.984  12.035  22.716  0.00  0.00    +0.000 A 
ATOM     14  C   UNL     1      -1.196  10.755  23.245  0.00  0.00    +0.000 A 
ATOM     15  C   UNL     1      -0.584   9.641  22.654  0.00  0.00    +0.000 A 
BRANCH  13  16
ATOM     16  C   UNL     1      -1.585  13.253  23.313  0.00  0.00    +0.000 C 
ATOM     17  O   UNL     1      -2.776  13.361  23.540  0.00  0.00    +0.000 OA
BRANCH  16  18
ATOM     18  O   UNL     1      -0.698  14.249  23.528  0.00  0.00    +0.000 OA
ATOM     19  H   UNL     1      -0.910  14.841  24.274  0.00  0.00    +0.000 HD
ENDBRANCH  16  18
ENDBRANCH  13  16
ENDBRANCH   3  10
BRANCH   8  20
ATOM     20  C   UNL     1       3.036   5.543  17.903  0.00  0.00    +0.000 A 
ATOM     21  C   UNL     1       2.105   4.514  17.647  0.00  0.00    +0.000 A 
ATOM     22  C   UNL     1       2.510   3.204  17.366  0.00  0.00    +0.000 A 
ATOM     23  C   UNL     1       3.862   2.897  17.286  0.00  0.00    +0.000 A 
ATOM     24  C   UNL     1       4.804   3.886  17.542  0.00  0.00    +0.000 A 
ATOM     25  C   UNL     1       4.391   5.178  17.892  0.00  0.00    +0.000 A 
ENDBRANCH   8  20
BRANCH   1  27
ATOM     26  N   UNL     1       2.174   4.138  21.384  0.00  0.00    +0.000 NA
ATOM     27  C   UNL     1       1.913   5.235  21.117  0.00  0.00    +0.000 C 
ENDBRANCH   1  27
TORSDOF 5
ENDMDL
MODEL 8
REMARK VINA RESULT:      -7.0      1.840      2.264
REMARK  Name = 
REMARK  5 active torsions:
REMARK  status: ('A' for Active; 'I' for Inactive)
REMARK    1  A    between atoms: C_2  and  C_3
REMARK    2  A    between atoms: N_5  and  C_6
REMARK    3  A    between atoms: C_9  and  C_10
REMARK    4  A    between atoms: C_10  and  O_12
REMARK    5  A    between atoms: C_19  and  C_20
REMARK                            x       y       z     vdW  Elec       q    Type
REMARK                         _______ _______ _______ _____ _____    ______ ____
ROOT
ATOM      1  C   UNL     1       0.801   9.184  21.633  0.00  0.00    +0.000 A 
ATOM      2  C   UNL     1       1.548   8.110  21.210  0.00  0.00    +0.000 A 
ATOM      3  N   UNL     1       1.673   8.147  19.843  0.00  0.00    +0.000 N 
ATOM      4  C   UNL     1       0.957   9.253  19.370  0.00  0.00    +0.000 A 
ATOM      5  C   UNL     1       0.661   9.647  18.050  0.00  0.00    +0.000 A 
ATOM      6  C   UNL     1      -0.067  10.808  17.834  0.00  0.00    +0.000 A 
ATOM      7  C   UNL     1      -0.508  11.566  18.907  0.00  0.00    +0.000 A 
ATOM      8  C   UNL     1      -0.285  11.182  20.251  0.00  0.00    +0.000 A 
ATOM      9  C   UNL     1       0.445   9.966  20.483  0.00  0.00    +0.000 A 
ENDROOT
BRANCH   3  10
ATOM     10  C   UNL     1       2.439   7.192  19.106  0.00  0.00    +0.000 A 
ATOM     11  C   UNL     1       3.250   7.631  18.045  0.00  0.00    +0.000 A 
ATOM     12  C   UNL     1       3.967   6.715  17.273  0.00  0.00    +0.000 A 
ATOM     13  C   UNL     1       3.875   5.349  17.539  0.00  0.00    +0.000 A 
ATOM     14  C   UNL     1       3.091   4.902  18.611  0.00  0.00    +0.000 A 
ATOM     15  C   UNL     1       2.365   5.821  19.381  0.00  0.00    +0.000 A 
BRANCH  13  16
ATOM     16  C   UNL     1       4.645   4.421  16.674  0.00  0.00    +0.000 C 
ATOM     17  O   UNL     1       5.121   4.754  15.604  0.00  0.00    +0.000 OA
BRANCH  16  18
ATOM     18  O   UNL     1       4.720   3.162  17.156  0.00  0.00    +0.000 OA
ATOM     19  H   UNL     1       4.537   3.070  18.111  0.00  0.00    +0.000 HD
ENDBRANCH  16  18
ENDBRANCH  13  16
ENDBRANCH   3  10
BRANCH   8  20
ATOM     20  C   UNL     1      -0.821  12.031  21.343  0.00  0.00    +0.000 A 
ATOM     21  C   UNL     1      -0.163  13.217  21.732  0.00  0.00    +0.000 A 
ATOM     22  C   UNL     1      -0.634  14.016  22.780  0.00  0.00    +0.000 A 
ATOM     23  C   UNL     1      -1.809  13.673  23.439  0.00  0.00    +0.000 A 
ATOM     24  C   UNL     1      -2.476  12.506  23.085  0.00  0.00    +0.000 A 
ATOM     25  C   UNL     1      -1.959  11.676  22.082  0.00  0.00    +0.000 A 
ENDBRANCH   8  20
BRANCH   1  27
ATOM     26  N   UNL     1       0.357   9.540  24.158  0.00  0.00    +0.000 NA
ATOM     27  C   UNL     1       0.510   9.368  23.022  0.00  0.00    +0.000 C 
ENDBRANCH   1  27
TORSDOF 5
ENDMDL
MODEL 9
REMARK VINA RESULT:      -7.0      1.990      3.550
REMARK  Name = 
REMARK  5 active torsions:
REMARK  status: ('A' for Active; 'I' for Inactive)
REMARK    1  A    between atoms: C_2  and  C_3
REMARK    2  A    between atoms: N_5  and  C_6
REMARK    3  A    between atoms: C_9  and  C_10
REMARK    4  A    between atoms: C_10  and  O_12
REMARK    5  A    between atoms: C_19  and  C_20
REMARK                            x       y       z     vdW  Elec       q    Type
REMARK                         _______ _______ _______ _____ _____    ______ ____
ROOT
ATOM      1  C   UNL     1       0.221  11.222  19.381  0.00  0.00    +0.000 A 
ATOM      2  C   UNL     1       0.986  10.270  18.750  0.00  0.00    +0.000 A 
ATOM      3  N   UNL     1       1.237   9.234  19.616  0.00  0.00    +0.000 N 
ATOM      4  C   UNL     1       0.649   9.545  20.848  0.00  0.00    +0.000 A 
ATOM      5  C   UNL     1       0.735   8.882  22.088  0.00  0.00    +0.000 A 
ATOM      6  C   UNL     1       0.041   9.387  23.178  0.00  0.00    +0.000 A 
ATOM      7  C   UNL     1      -0.721  10.537  23.050  0.00  0.00    +0.000 A 
ATOM      8  C   UNL     1      -0.794  11.269  21.841  0.00  0.00    +0.000 A 
ATOM      9  C   UNL     1      -0.055  10.767  20.714  0.00  0.00    +0.000 A 
ENDROOT
BRANCH   3  10
ATOM     10  C   UNL     1       1.965   8.064  19.238  0.00  0.00    +0.000 A 
ATOM     11  C   UNL     1       1.983   6.955  20.103  0.00  0.00    +0.000 A 
ATOM     12  C   UNL     1       2.731   5.820  19.786  0.00  0.00    +0.000 A 
ATOM     13  C   UNL     1       3.481   5.779  18.610  0.00  0.00    +0.000 A 
ATOM     14  C   UNL     1       3.449   6.867  17.729  0.00  0.00    +0.000 A 
ATOM     15  C   UNL     1       2.705   8.011  18.051  0.00  0.00    +0.000 A 
BRANCH  13  16
ATOM     16  C   UNL     1       4.271   4.553  18.334  0.00  0.00    +0.000 C 
ATOM     17  O   UNL     1       5.005   4.039  19.158  0.00  0.00    +0.000 OA
BRANCH  16  18
ATOM     18  O   UNL     1       4.142   4.095  17.071  0.00  0.00    +0.000 OA
ATOM     19  H   UNL     1       3.349   3.549  16.905  0.00  0.00    +0.000 HD
ENDBRANCH  16  18
ENDBRANCH  13  16
ENDBRANCH   3  10
BRANCH   8  20
ATOM     20  C   UNL     1      -1.605  12.510  21.796  0.00  0.00    +0.000 A 
ATOM     21  C   UNL     1      -1.148  13.699  22.403  0.00  0.00    +0.000 A 
ATOM     22  C   UNL     1      -1.913  14.872  22.400  0.00  0.00    +0.000 A 
ATOM     23  C   UNL     1      -3.138  14.900  21.745  0.00  0.00    +0.000 A 
ATOM     24  C   UNL     1      -3.619  13.743  21.145  0.00  0.00    +0.000 A 
ATOM     25  C   UNL     1      -2.880  12.554  21.214  0.00  0.00    +0.000 A 
ENDBRANCH   8  20
BRANCH   1  27
ATOM     26  N   UNL     1      -0.517  13.412  18.215  0.00  0.00    +0.000 NA
ATOM     27  C   UNL     1      -0.167  12.417  18.696  0.00  0.00    +0.000 C 
ENDBRANCH   1  27
TORSDOF 5
ENDMDL
