MODEL 1
REMARK VINA RESULT:      -7.1      0.000      0.000
REMARK  Name = 
REMARK  3 active torsions:
REMARK  status: ('A' for Active; 'I' for Inactive)
REMARK    1  A    between atoms: C_4  and  C_5
REMARK    2  A    between atoms: C_5  and  S_6
REMARK    3  A    between atoms: S_6  and  C_7
REMARK                            x       y       z     vdW  Elec       q    Type
REMARK                         _______ _______ _______ _____ _____    ______ ____
ROOT
ATOM      1  C   UNL     1       5.251   4.032  17.892  0.00  0.00    +0.000 A 
ATOM      2  N   UNL     1       5.700   4.605  19.082  0.00  0.00    +0.000 N 
ATOM      3  C   UNL     1       6.752   5.479  19.172  0.00  0.00    +0.000 A 
ATOM      4  C   UNL     1       7.465   5.879  18.113  0.00  0.00    +0.000 A 
ATOM      5  C   UNL     1       7.033   5.308  16.832  0.00  0.00    +0.000 A 
ATOM      6  N   UNL     1       7.515   5.502  15.644  0.00  0.00    +0.000 NA
ATOM      7  C   UNL     1       6.710   4.707  14.845  0.00  0.00    +0.000 A 
ATOM      8  N   UNL     1       5.764   4.031  15.434  0.00  0.00    +0.000 NA
ATOM      9  C   UNL     1       5.897   4.365  16.756  0.00  0.00    +0.000 A 
ATOM     10  H   UNL     1       5.188   4.338  19.917  0.00  0.00    +0.000 HD
ENDROOT
BRANCH   1  11
ATOM     11  S   UNL     1       3.886   2.933  17.989  0.00  0.00    +0.000 S 
BRANCH  11  12
ATOM     12  C   UNL     1       2.416   3.897  17.555  0.00  0.00    +0.000 C 
BRANCH  12  16
ATOM     13  C   UNL     1       2.009   7.315  20.174  0.00  0.00    +0.000 A 
ATOM     14  C   UNL     1       2.390   7.492  18.845  0.00  0.00    +0.000 A 
ATOM     15  C   UNL     1       2.516   6.389  18.000  0.00  0.00    +0.000 A 
ATOM     16  C   UNL     1       2.259   5.093  18.472  0.00  0.00    +0.000 A 
ATOM     17  C   UNL     1       1.880   4.927  19.814  0.00  0.00    +0.000 A 
ATOM     18  C   UNL     1       1.754   6.034  20.657  0.00  0.00    +0.000 A 
ENDBRANCH  12  16
ENDBRANCH  11  12
ENDBRANCH   1  11
TORSDOF 3
ENDMDL
MODEL 2
REMARK VINA RESULT:      -7.0      1.598      2.559
REMARK  Name = 
REMARK  3 active torsions:
REMARK  status: ('A' for Active; 'I' for Inactive)
REMARK    1  A    between atoms: C_4  and  C_5
REMARK    2  A    between atoms: C_5  and  S_6
REMARK    3  A    between atoms: S_6  and  C_7
REMARK                            x       y       z     vdW  Elec       q    Type
REMARK                         _______ _______ _______ _____ _____    ______ ____
ROOT
ATOM      1  C   UNL     1       5.092   6.090  17.686  0.00  0.00    +0.000 A 
ATOM      2  N   UNL     1       5.752   5.916  18.902  0.00  0.00    +0.000 N 
ATOM      3  C   UNL     1       6.977   5.317  19.041  0.00  0.00    +0.000 A 
ATOM      4  C   UNL     1       7.677   4.832  18.007  0.00  0.00    +0.000 A 
ATOM      5  C   UNL     1       7.029   4.993  16.700  0.00  0.00    +0.000 A 
ATOM      6  N   UNL     1       7.451   4.634  15.527  0.00  0.00    +0.000 NA
ATOM      7  C   UNL     1       6.427   5.041  14.688  0.00  0.00    +0.000 A 
ATOM      8  N   UNL     1       5.399   5.625  15.237  0.00  0.00    +0.000 NA
ATOM      9  C   UNL     1       5.706   5.639  16.573  0.00  0.00    +0.000 A 
ATOM     10  H   UNL     1       5.265   6.271  19.719  0.00  0.00    +0.000 HD
ENDROOT
BRANCH   1  11
ATOM     11  S   UNL     1       3.526   6.881  17.722  0.00  0.00    +0.000 S 
BRANCH  11  12
ATOM     12  C   UNL     1       2.831   6.572  19.366  0.00  0.00    +0.000 C 
BRANCH  12  16
ATOM     13  C   UNL     1       0.887   2.712  19.534  0.00  0.00    +0.000 A 
ATOM     14  C   UNL     1       1.126   3.428  20.706  0.00  0.00    +0.000 A 
ATOM     15  C   UNL     1       1.750   4.675  20.650  0.00  0.00    +0.000 A 
ATOM     16  C   UNL     1       2.138   5.226  19.419  0.00  0.00    +0.000 A 
ATOM     17  C   UNL     1       1.896   4.494  18.246  0.00  0.00    +0.000 A 
ATOM     18  C   UNL     1       1.271   3.245  18.305  0.00  0.00    +0.000 A 
ENDBRANCH  12  16
ENDBRANCH  11  12
ENDBRANCH   1  11
TORSDOF 3
ENDMDL
MODEL 3
REMARK VINA RESULT:      -6.9      0.455      1.250
REMARK  Name = 
REMARK  3 active torsions:
REMARK  status: ('A' for Active; 'I' for Inactive)
REMARK    1  A    between atoms: C_4  and  C_5
REMARK    2  A    between atoms: C_5  and  S_6
REMARK    3  A    between atoms: S_6  and  C_7
REMARK                            x       y       z     vdW  Elec       q    Type
REMARK                         _______ _______ _______ _____ _____    ______ ____
ROOT
ATOM      1  C   UNL     1       5.542   4.231  18.345  0.00  0.00    +0.000 A 
ATOM      2  N   UNL     1       6.175   4.827  19.436  0.00  0.00    +0.000 N 
ATOM      3  C   UNL     1       7.226   5.702  19.338  0.00  0.00    +0.000 A 
ATOM      4  C   UNL     1       7.757   6.081  18.169  0.00  0.00    +0.000 A 
ATOM      5  C   UNL     1       7.125   5.485  16.987  0.00  0.00    +0.000 A 
ATOM      6  N   UNL     1       7.409   5.656  15.732  0.00  0.00    +0.000 NA
ATOM      7  C   UNL     1       6.487   4.845  15.090  0.00  0.00    +0.000 A 
ATOM      8  N   UNL     1       5.651   4.181  15.837  0.00  0.00    +0.000 NA
ATOM      9  C   UNL     1       5.995   4.541  17.114  0.00  0.00    +0.000 A 
ATOM     10  H   UNL     1       5.806   4.577  20.348  0.00  0.00    +0.000 HD
ENDROOT
BRANCH   1  11
ATOM     11  S   UNL     1       4.214   3.134  18.683  0.00  0.00    +0.000 S 
BRANCH  11  12
ATOM     12  C   UNL     1       2.720   3.913  18.017  0.00  0.00    +0.000 C 
BRANCH  12  16
ATOM     13  C   UNL     1       1.913   7.699  19.947  0.00  0.00    +0.000 A 
ATOM     14  C   UNL     1       1.718   6.504  20.638  0.00  0.00    +0.000 A 
ATOM     15  C   UNL     1       1.983   5.284  20.016  0.00  0.00    +0.000 A 
ATOM     16  C   UNL     1       2.451   5.242  18.693  0.00  0.00    +0.000 A 
ATOM     17  C   UNL     1       2.640   6.451  18.006  0.00  0.00    +0.000 A 
ATOM     18  C   UNL     1       2.373   7.672  18.632  0.00  0.00    +0.000 A 
ENDBRANCH  12  16
ENDBRANCH  11  12
ENDBRANCH   1  11
TORSDOF 3
ENDMDL
MODEL 4
REMARK VINA RESULT:      -6.7      1.823      2.452
REMARK  Name = 
REMARK  3 active torsions:
REMARK  status: ('A' for Active; 'I' for Inactive)
REMARK    1  A    between atoms: C_4  and  C_5
REMARK    2  A    between atoms: C_5  and  S_6
REMARK    3  A    between atoms: S_6  and  C_7
REMARK                            x       y       z     vdW  Elec       q    Type
REMARK                         _______ _______ _______ _____ _____    ______ ____
ROOT
ATOM      1  C   UNL     1       4.899   5.483  17.775  0.00  0.00    +0.000 A 
ATOM      2  N   UNL     1       5.527   5.661  19.008  0.00  0.00    +0.000 N 
ATOM      3  C   UNL     1       6.870   5.491  19.225  0.00  0.00    +0.000 A 
ATOM      4  C   UNL     1       7.728   5.133  18.262  0.00  0.00    +0.000 A 
ATOM      5  C   UNL     1       7.120   4.936  16.941  0.00  0.00    +0.000 A 
ATOM      6  N   UNL     1       7.682   4.594  15.823  0.00  0.00    +0.000 NA
ATOM      7  C   UNL     1       6.619   4.567  14.935  0.00  0.00    +0.000 A 
ATOM      8  N   UNL     1       5.439   4.861  15.403  0.00  0.00    +0.000 NA
ATOM      9  C   UNL     1       5.669   5.121  16.729  0.00  0.00    +0.000 A 
ATOM     10  H   UNL     1       4.920   5.938  19.773  0.00  0.00    +0.000 HD
ENDROOT
BRANCH   1  11
ATOM     11  S   UNL     1       3.165   5.749  17.706  0.00  0.00    +0.000 S 
BRANCH  11  12
ATOM     12  C   UNL     1       2.392   4.110  17.715  0.00  0.00    +0.000 C 
BRANCH  12  16
ATOM     13  C   UNL     1       2.126   2.501  21.720  0.00  0.00    +0.000 A 
ATOM     14  C   UNL     1       3.310   2.384  20.996  0.00  0.00    +0.000 A 
ATOM     15  C   UNL     1       3.396   2.907  19.705  0.00  0.00    +0.000 A 
ATOM     16  C   UNL     1       2.299   3.560  19.123  0.00  0.00    +0.000 A 
ATOM     17  C   UNL     1       1.110   3.669  19.861  0.00  0.00    +0.000 A 
ATOM     18  C   UNL     1       1.027   3.144  21.154  0.00  0.00    +0.000 A 
ENDBRANCH  12  16
ENDBRANCH  11  12
ENDBRANCH   1  11
TORSDOF 3
ENDMDL
MODEL 5
REMARK VINA RESULT:      -6.6      2.216      2.593
REMARK  Name = 
REMARK  3 active torsions:
REMARK  status: ('A' for Active; 'I' for Inactive)
REMARK    1  A    between atoms: C_4  and  C_5
REMARK    2  A    between atoms: C_5  and  S_6
REMARK    3  A    between atoms: S_6  and  C_7
REMARK                            x       y       z     vdW  Elec       q    Type
REMARK                         _______ _______ _______ _____ _____    ______ ____
ROOT
ATOM      1  C   UNL     1       4.804   4.594  16.731  0.00  0.00    +0.000 A 
ATOM      2  N   UNL     1       5.136   5.337  17.863  0.00  0.00    +0.000 N 
ATOM      3  C   UNL     1       6.276   6.088  17.990  0.00  0.00    +0.000 A 
ATOM      4  C   UNL     1       7.199   6.188  17.026  0.00  0.00    +0.000 A 
ATOM      5  C   UNL     1       6.897   5.427  15.808  0.00  0.00    +0.000 A 
ATOM      6  N   UNL     1       7.585   5.327  14.713  0.00  0.00    +0.000 NA
ATOM      7  C   UNL     1       6.809   4.485  13.932  0.00  0.00    +0.000 A 
ATOM      8  N   UNL     1       5.694   4.049  14.447  0.00  0.00    +0.000 NA
ATOM      9  C   UNL     1       5.663   4.621  15.692  0.00  0.00    +0.000 A 
ATOM     10  H   UNL     1       4.466   5.299  18.625  0.00  0.00    +0.000 HD
ENDROOT
BRANCH   1  11
ATOM     11  S   UNL     1       3.296   3.696  16.768  0.00  0.00    +0.000 S 
BRANCH  11  12
ATOM     12  C   UNL     1       3.527   2.350  17.958  0.00  0.00    +0.000 C 
BRANCH  12  16
ATOM     13  C   UNL     1       1.290   3.044  21.594  0.00  0.00    +0.000 A 
ATOM     14  C   UNL     1       2.616   2.620  21.657  0.00  0.00    +0.000 A 
ATOM     15  C   UNL     1       3.338   2.401  20.483  0.00  0.00    +0.000 A 
ATOM     16  C   UNL     1       2.744   2.607  19.229  0.00  0.00    +0.000 A 
ATOM     17  C   UNL     1       1.406   3.030  19.177  0.00  0.00    +0.000 A 
ATOM     18  C   UNL     1       0.686   3.249  20.354  0.00  0.00    +0.000 A 
ENDBRANCH  12  16
ENDBRANCH  11  12
ENDBRANCH   1  11
TORSDOF 3
ENDMDL
MODEL 6
REMARK VINA RESULT:      -6.6      1.131      2.246
REMARK  Name = 
REMARK  3 active torsions:
REMARK  status: ('A' for Active; 'I' for Inactive)
REMARK    1  A    between atoms: C_4  and  C_5
REMARK    2  A    between atoms: C_5  and  S_6
REMARK    3  A    between atoms: S_6  and  C_7
REMARK                            x       y       z     vdW  Elec       q    Type
REMARK                         _______ _______ _______ _____ _____    ______ ____
ROOT
ATOM      1  C   UNL     1       5.112   3.746  18.232  0.00  0.00    +0.000 A 
ATOM      2  N   UNL     1       4.899   3.383  16.902  0.00  0.00    +0.000 N 
ATOM      3  C   UNL     1       5.652   3.828  15.847  0.00  0.00    +0.000 A 
ATOM      4  C   UNL     1       6.685   4.667  15.987  0.00  0.00    +0.000 A 
ATOM      5  C   UNL     1       6.957   5.080  17.368  0.00  0.00    +0.000 A 
ATOM      6  N   UNL     1       7.879   5.872  17.820  0.00  0.00    +0.000 NA
ATOM      7  C   UNL     1       7.642   5.880  19.185  0.00  0.00    +0.000 A 
ATOM      8  N   UNL     1       6.648   5.161  19.626  0.00  0.00    +0.000 NA
ATOM      9  C   UNL     1       6.131   4.590  18.492  0.00  0.00    +0.000 A 
ATOM     10  H   UNL     1       4.128   2.742  16.741  0.00  0.00    +0.000 HD
ENDROOT
BRANCH   1  11
ATOM     11  S   UNL     1       4.033   3.066  19.438  0.00  0.00    +0.000 S 
BRANCH  11  12
ATOM     12  C   UNL     1       2.365   3.626  19.010  0.00  0.00    +0.000 C 
BRANCH  12  16
ATOM     13  C   UNL     1       1.996   7.893  19.607  0.00  0.00    +0.000 A 
ATOM     14  C   UNL     1       2.387   7.391  18.368  0.00  0.00    +0.000 A 
ATOM     15  C   UNL     1       2.501   6.013  18.175  0.00  0.00    +0.000 A 
ATOM     16  C   UNL     1       2.221   5.119  19.220  0.00  0.00    +0.000 A 
ATOM     17  C   UNL     1       1.832   5.637  20.465  0.00  0.00    +0.000 A 
ATOM     18  C   UNL     1       1.718   7.017  20.655  0.00  0.00    +0.000 A 
ENDBRANCH  12  16
ENDBRANCH  11  12
ENDBRANCH   1  11
TORSDOF 3
ENDMDL
MODEL 7
REMARK VINA RESULT:      -6.6      1.110      2.495
REMARK  Name = 
REMARK  3 active torsions:
REMARK  status: ('A' for Active; 'I' for Inactive)
REMARK    1  A    between atoms: C_4  and  C_5
REMARK    2  A    between atoms: C_5  and  S_6
REMARK    3  A    between atoms: S_6  and  C_7
REMARK                            x       y       z     vdW  Elec       q    Type
REMARK                         _______ _______ _______ _____ _____    ______ ____
ROOT
ATOM      1  C   UNL     1       5.142   3.765  18.183  0.00  0.00    +0.000 A 
ATOM      2  N   UNL     1       4.969   3.388  16.852  0.00  0.00    +0.000 N 
ATOM      3  C   UNL     1       5.745   3.834  15.813  0.00  0.00    +0.000 A 
ATOM      4  C   UNL     1       6.765   4.686  15.973  0.00  0.00    +0.000 A 
ATOM      5  C   UNL     1       6.995   5.113  17.358  0.00  0.00    +0.000 A 
ATOM      6  N   UNL     1       7.895   5.919  17.828  0.00  0.00    +0.000 NA
ATOM      7  C   UNL     1       7.621   5.937  19.186  0.00  0.00    +0.000 A 
ATOM      8  N   UNL     1       6.624   5.210  19.605  0.00  0.00    +0.000 NA
ATOM      9  C   UNL     1       6.144   4.623  18.464  0.00  0.00    +0.000 A 
ATOM     10  H   UNL     1       4.210   2.738  16.676  0.00  0.00    +0.000 HD
ENDROOT
BRANCH   1  11
ATOM     11  S   UNL     1       4.039   3.084  19.366  0.00  0.00    +0.000 S 
BRANCH  11  12
ATOM     12  C   UNL     1       2.384   3.676  18.928  0.00  0.00    +0.000 C 
BRANCH  12  16
ATOM     13  C   UNL     1       1.970   7.918  19.667  0.00  0.00    +0.000 A 
ATOM     14  C   UNL     1       1.713   7.001  20.685  0.00  0.00    +0.000 A 
ATOM     15  C   UNL     1       1.851   5.633  20.446  0.00  0.00    +0.000 A 
ATOM     16  C   UNL     1       2.253   5.163  19.186  0.00  0.00    +0.000 A 
ATOM     17  C   UNL     1       2.505   6.096  18.168  0.00  0.00    +0.000 A 
ATOM     18  C   UNL     1       2.366   7.465  18.410  0.00  0.00    +0.000 A 
ENDBRANCH  12  16
ENDBRANCH  11  12
ENDBRANCH   1  11
TORSDOF 3
ENDMDL
MODEL 8
REMARK VINA RESULT:      -6.6      1.816      3.156
REMARK  Name = 
REMARK  3 active torsions:
REMARK  status: ('A' for Active; 'I' for Inactive)
REMARK    1  A    between atoms: C_4  and  C_5
REMARK    2  A    between atoms: C_5  and  S_6
REMARK    3  A    between atoms: S_6  and  C_7
REMARK                            x       y       z     vdW  Elec       q    Type
REMARK                         _______ _______ _______ _____ _____    ______ ____
ROOT
ATOM      1  C   UNL     1       4.961   5.502  17.382  0.00  0.00    +0.000 A 
ATOM      2  N   UNL     1       4.678   5.051  16.092  0.00  0.00    +0.000 N 
ATOM      3  C   UNL     1       5.556   4.348  15.308  0.00  0.00    +0.000 A 
ATOM      4  C   UNL     1       6.790   4.016  15.705  0.00  0.00    +0.000 A 
ATOM      5  C   UNL     1       7.139   4.463  17.059  0.00  0.00    +0.000 A 
ATOM      6  N   UNL     1       8.243   4.295  17.718  0.00  0.00    +0.000 NA
ATOM      7  C   UNL     1       7.987   4.928  18.923  0.00  0.00    +0.000 A 
ATOM      8  N   UNL     1       6.816   5.479  19.074  0.00  0.00    +0.000 NA
ATOM      9  C   UNL     1       6.179   5.223  17.888  0.00  0.00    +0.000 A 
ATOM     10  H   UNL     1       3.751   5.273  15.744  0.00  0.00    +0.000 HD
ENDROOT
BRANCH   1  11
ATOM     11  S   UNL     1       3.700   6.388  18.222  0.00  0.00    +0.000 S 
BRANCH  11  12
ATOM     12  C   UNL     1       2.161   5.471  17.955  0.00  0.00    +0.000 C 
BRANCH  12  16
ATOM     13  C   UNL     1       1.488   2.661  21.174  0.00  0.00    +0.000 A 
ATOM     14  C   UNL     1       2.106   3.884  21.429  0.00  0.00    +0.000 A 
ATOM     15  C   UNL     1       2.318   4.791  20.390  0.00  0.00    +0.000 A 
ATOM     16  C   UNL     1       1.911   4.490  19.082  0.00  0.00    +0.000 A 
ATOM     17  C   UNL     1       1.293   3.253  18.836  0.00  0.00    +0.000 A 
ATOM     18  C   UNL     1       1.081   2.346  19.878  0.00  0.00    +0.000 A 
ENDBRANCH  12  16
ENDBRANCH  11  12
ENDBRANCH   1  11
TORSDOF 3
ENDMDL
MODEL 9
REMARK VINA RESULT:      -6.6      1.468      2.299
REMARK  Name = 
REMARK  3 active torsions:
REMARK  status: ('A' for Active; 'I' for Inactive)
REMARK    1  A    between atoms: C_4  and  C_5
REMARK    2  A    between atoms: C_5  and  S_6
REMARK    3  A    between atoms: S_6  and  C_7
REMARK                            x       y       z     vdW  Elec       q    Type
REMARK                         _______ _______ _______ _____ _____    ______ ____
ROOT
ATOM      1  C   UNL     1       4.897   5.271  18.008  0.00  0.00    +0.000 A 
ATOM      2  N   UNL     1       5.565   5.528  19.206  0.00  0.00    +0.000 N 
ATOM      3  C   UNL     1       6.927   5.482  19.358  0.00  0.00    +0.000 A 
ATOM      4  C   UNL     1       7.766   5.184  18.359  0.00  0.00    +0.000 A 
ATOM      5  C   UNL     1       7.115   4.907  17.074  0.00  0.00    +0.000 A 
ATOM      6  N   UNL     1       7.651   4.596  15.934  0.00  0.00    +0.000 NA
ATOM      7  C   UNL     1       6.554   4.456  15.100  0.00  0.00    +0.000 A 
ATOM      8  N   UNL     1       5.376   4.653  15.622  0.00  0.00    +0.000 NA
ATOM      9  C   UNL     1       5.645   4.959  16.931  0.00  0.00    +0.000 A 
ATOM     10  H   UNL     1       4.973   5.765  19.996  0.00  0.00    +0.000 HD
ENDROOT
BRANCH   1  11
ATOM     11  S   UNL     1       3.145   5.380  18.022  0.00  0.00    +0.000 S 
BRANCH  11  12
ATOM     12  C   UNL     1       2.690   6.172  19.586  0.00  0.00    +0.000 C 
BRANCH  12  16
ATOM     13  C   UNL     1       1.066  10.124  18.916  0.00  0.00    +0.000 A 
ATOM     14  C   UNL     1       0.974   9.534  20.174  0.00  0.00    +0.000 A 
ATOM     15  C   UNL     1       1.503   8.260  20.390  0.00  0.00    +0.000 A 
ATOM     16  C   UNL     1       2.134   7.562  19.350  0.00  0.00    +0.000 A 
ATOM     17  C   UNL     1       2.217   8.165  18.085  0.00  0.00    +0.000 A 
ATOM     18  C   UNL     1       1.687   9.441  17.872  0.00  0.00    +0.000 A 
ENDBRANCH  12  16
ENDBRANCH  11  12
ENDBRANCH   1  11
TORSDOF 3
ENDMDL
