MODEL 1
REMARK VINA RESULT:      -7.8      0.000      0.000
REMARK  Name = 
REMARK  3 active torsions:
REMARK  status: ('A' for Active; 'I' for Inactive)
REMARK    1  A    between atoms: C_2  and  C_10
REMARK    2  A    between atoms: N_3  and  N_4
REMARK    3  A    between atoms: C_17  and  C_18
REMARK                            x       y       z     vdW  Elec       q    Type
REMARK                         _______ _______ _______ _____ _____    ______ ____
ROOT
ATOM      1  C   UNL     1       1.482   8.590  19.050  0.00  0.00    +0.000 A 
ATOM      2  C   UNL     1       1.221   9.209  17.826  0.00  0.00    +0.000 A 
ATOM      3  C   UNL     1       0.311  10.260  17.755  0.00  0.00    +0.000 A 
ATOM      4  C   UNL     1      -0.327  10.707  18.917  0.00  0.00    +0.000 A 
ATOM      5  C   UNL     1      -0.023  10.132  20.165  0.00  0.00    +0.000 A 
ATOM      6  C   UNL     1       0.862   9.047  20.225  0.00  0.00    +0.000 A 
ATOM      7  N   UNL     1      -0.548  10.640  21.373  0.00  0.00    +0.000 NA
ATOM      8  C   UNL     1      -0.415  11.899  21.669  0.00  0.00    +0.000 C 
ATOM      9  C   UNL     1       0.240  12.928  20.723  0.00  0.00    +0.000 A 
ATOM     10  C   UNL     1       1.233  13.825  21.125  0.00  0.00    +0.000 A 
ATOM     11  C   UNL     1       1.374  15.037  20.432  0.00  0.00    +0.000 A 
ATOM     12  C   UNL     1       0.645  15.283  19.266  0.00  0.00    +0.000 A 
ATOM     13  C   UNL     1      -0.139  14.273  18.723  0.00  0.00    +0.000 A 
ATOM     14  C   UNL     1      -0.345  13.091  19.447  0.00  0.00    +0.000 A 
ATOM     15  C   UNL     1      -1.166  11.965  18.875  0.00  0.00    +0.000 C 
ENDROOT
BRANCH   8  16
ATOM     16  C   UNL     1      -1.084  12.419  23.021  0.00  0.00    +0.000 C 
ATOM     17  C   UNL     1      -1.103  13.952  23.137  0.00  0.00    +0.000 C 
ATOM     18  C   UNL     1      -2.187  14.552  22.223  0.00  0.00    +0.000 C 
ATOM     19  C   UNL     1      -3.609  14.043  22.412  0.00  0.00    +0.000 C 
ATOM     20  C   UNL     1      -3.632  12.517  22.498  0.00  0.00    +0.000 C 
ATOM     21  C   UNL     1      -2.526  11.974  23.406  0.00  0.00    +0.000 C 
ENDBRANCH   8  16
BRANCH   1  23
ATOM     22  O   UNL     1       2.486   6.723  20.083  0.00  0.00    +0.000 OA
ATOM     23  C   UNL     1       2.449   7.475  19.069  0.00  0.00    +0.000 C 
ATOM     24  N   UNL     1       3.279   7.373  17.982  0.00  0.00    +0.000 N 
ATOM     25  H   UNL     1       3.255   8.088  17.254  0.00  0.00    +0.000 HD
BRANCH  24  26
ATOM     26  N   UNL     1       4.269   6.379  17.939  0.00  0.00    +0.000 NA
ATOM     27  C   UNL     1       3.733   5.123  17.410  0.00  0.00    +0.000 C 
ATOM     28  C   UNL     1       4.783   4.013  17.466  0.00  0.00    +0.000 C 
ATOM     29  C   UNL     1       6.058   4.421  16.737  0.00  0.00    +0.000 C 
ATOM     30  C   UNL     1       6.564   5.763  17.254  0.00  0.00    +0.000 C 
ATOM     31  C   UNL     1       5.465   6.828  17.219  0.00  0.00    +0.000 C 
ENDBRANCH  24  26
ENDBRANCH   1  23
TORSDOF 3
ENDMDL
MODEL 2
REMARK VINA RESULT:      -7.7      2.395      4.161
REMARK  Name = 
REMARK  3 active torsions:
REMARK  status: ('A' for Active; 'I' for Inactive)
REMARK    1  A    between atoms: C_2  and  C_10
REMARK    2  A    between atoms: N_3  and  N_4
REMARK    3  A    between atoms: C_17  and  C_18
REMARK                            x       y       z     vdW  Elec       q    Type
REMARK                         _______ _______ _______ _____ _____    ______ ____
ROOT
ATOM      1  C   UNL     1       1.123   8.748  20.845  0.00  0.00    +0.000 A 
ATOM      2  C   UNL     1       0.384   8.578  22.018  0.00  0.00    +0.000 A 
ATOM      3  C   UNL     1      -0.199   9.677  22.642  0.00  0.00    +0.000 A 
ATOM      4  C   UNL     1      -0.059  10.950  22.079  0.00  0.00    +0.000 A 
ATOM      5  C   UNL     1       0.630  11.123  20.864  0.00  0.00    +0.000 A 
ATOM      6  C   UNL     1       1.250  10.020  20.263  0.00  0.00    +0.000 A 
ATOM      7  N   UNL     1       0.681  12.369  20.202  0.00  0.00    +0.000 NA
ATOM      8  C   UNL     1      -0.415  13.015  19.931  0.00  0.00    +0.000 C 
ATOM      9  C   UNL     1      -1.814  12.529  20.363  0.00  0.00    +0.000 A 
ATOM     10  C   UNL     1      -2.907  12.451  19.497  0.00  0.00    +0.000 A 
ATOM     11  C   UNL     1      -4.202  12.549  20.027  0.00  0.00    +0.000 A 
ATOM     12  C   UNL     1      -4.410  12.569  21.407  0.00  0.00    +0.000 A 
ATOM     13  C   UNL     1      -3.335  12.372  22.265  0.00  0.00    +0.000 A 
ATOM     14  C   UNL     1      -2.033  12.350  21.748  0.00  0.00    +0.000 A 
ATOM     15  C   UNL     1      -0.847  12.110  22.646  0.00  0.00    +0.000 C 
ENDROOT
BRANCH   8  16
ATOM     16  C   UNL     1      -0.281  14.445  19.235  0.00  0.00    +0.000 C 
ATOM     17  C   UNL     1      -1.118  15.534  19.924  0.00  0.00    +0.000 C 
ATOM     18  C   UNL     1      -0.456  15.976  21.242  0.00  0.00    +0.000 C 
ATOM     19  C   UNL     1       0.984  16.461  21.163  0.00  0.00    +0.000 C 
ATOM     20  C   UNL     1       1.832  15.509  20.320  0.00  0.00    +0.000 C 
ATOM     21  C   UNL     1       1.121  15.091  19.031  0.00  0.00    +0.000 C 
ENDBRANCH   8  16
BRANCH   1  23
ATOM     22  O   UNL     1       2.277   7.664  19.097  0.00  0.00    +0.000 OA
ATOM     23  C   UNL     1       1.728   7.551  20.228  0.00  0.00    +0.000 C 
ATOM     24  N   UNL     1       1.600   6.378  20.927  0.00  0.00    +0.000 N 
ATOM     25  H   UNL     1       1.046   6.354  21.785  0.00  0.00    +0.000 HD
BRANCH  24  26
ATOM     26  N   UNL     1       2.094   5.178  20.391  0.00  0.00    +0.000 NA
ATOM     27  C   UNL     1       2.183   4.138  21.418  0.00  0.00    +0.000 C 
ATOM     28  C   UNL     1       2.822   2.868  20.857  0.00  0.00    +0.000 C 
ATOM     29  C   UNL     1       2.072   2.368  19.629  0.00  0.00    +0.000 C 
ATOM     30  C   UNL     1       1.928   3.482  18.598  0.00  0.00    +0.000 C 
ATOM     31  C   UNL     1       1.326   4.746  19.218  0.00  0.00    +0.000 C 
ENDBRANCH  24  26
ENDBRANCH   1  23
TORSDOF 3
ENDMDL
MODEL 3
REMARK VINA RESULT:      -7.7      1.696      3.728
REMARK  Name = 
REMARK  3 active torsions:
REMARK  status: ('A' for Active; 'I' for Inactive)
REMARK    1  A    between atoms: C_2  and  C_10
REMARK    2  A    between atoms: N_3  and  N_4
REMARK    3  A    between atoms: C_17  and  C_18
REMARK                            x       y       z     vdW  Elec       q    Type
REMARK                         _______ _______ _______ _____ _____    ______ ____
ROOT
ATOM      1  C   UNL     1       1.122   8.129  20.922  0.00  0.00    +0.000 A 
ATOM      2  C   UNL     1       0.348   8.195  22.082  0.00  0.00    +0.000 A 
ATOM      3  C   UNL     1      -0.113   9.423  22.547  0.00  0.00    +0.000 A 
ATOM      4  C   UNL     1       0.186  10.590  21.836  0.00  0.00    +0.000 A 
ATOM      5  C   UNL     1       0.911  10.529  20.632  0.00  0.00    +0.000 A 
ATOM      6  C   UNL     1       1.407   9.295  20.191  0.00  0.00    +0.000 A 
ATOM      7  N   UNL     1       1.120  11.667  19.823  0.00  0.00    +0.000 NA
ATOM      8  C   UNL     1       0.113  12.395  19.440  0.00  0.00    +0.000 C 
ATOM      9  C   UNL     1      -1.341  12.131  19.884  0.00  0.00    +0.000 A 
ATOM     10  C   UNL     1      -2.421  12.071  19.000  0.00  0.00    +0.000 A 
ATOM     11  C   UNL     1      -3.704  12.383  19.472  0.00  0.00    +0.000 A 
ATOM     12  C   UNL     1      -3.932  12.601  20.832  0.00  0.00    +0.000 A 
ATOM     13  C   UNL     1      -2.902  12.391  21.742  0.00  0.00    +0.000 A 
ATOM     14  C   UNL     1      -1.603  12.155  21.273  0.00  0.00    +0.000 A 
ATOM     15  C   UNL     1      -0.470  11.895  22.231  0.00  0.00    +0.000 C 
ENDROOT
BRANCH   8  16
ATOM     16  C   UNL     1       0.427  13.701  18.578  0.00  0.00    +0.000 C 
ATOM     17  C   UNL     1      -0.372  14.933  19.033  0.00  0.00    +0.000 C 
ATOM     18  C   UNL     1       0.210  15.505  20.339  0.00  0.00    +0.000 C 
ATOM     19  C   UNL     1       1.687  15.869  20.336  0.00  0.00    +0.000 C 
ATOM     20  C   UNL     1       2.521  14.750  19.712  0.00  0.00    +0.000 C 
ATOM     21  C   UNL     1       1.890  14.209  18.426  0.00  0.00    +0.000 C 
ENDBRANCH   8  16
BRANCH   1  23
ATOM     22  O   UNL     1       1.121   5.774  21.038  0.00  0.00    +0.000 OA
ATOM     23  C   UNL     1       1.591   6.803  20.477  0.00  0.00    +0.000 C 
ATOM     24  N   UNL     1       2.557   6.796  19.502  0.00  0.00    +0.000 N 
ATOM     25  H   UNL     1       2.960   7.676  19.179  0.00  0.00    +0.000 HD
BRANCH  24  26
ATOM     26  N   UNL     1       3.105   5.582  19.058  0.00  0.00    +0.000 NA
ATOM     27  C   UNL     1       2.392   5.080  17.882  0.00  0.00    +0.000 C 
ATOM     28  C   UNL     1       2.920   3.707  17.467  0.00  0.00    +0.000 C 
ATOM     29  C   UNL     1       4.424   3.742  17.227  0.00  0.00    +0.000 C 
ATOM     30  C   UNL     1       5.145   4.331  18.435  0.00  0.00    +0.000 C 
ATOM     31  C   UNL     1       4.552   5.683  18.838  0.00  0.00    +0.000 C 
ENDBRANCH  24  26
ENDBRANCH   1  23
TORSDOF 3
ENDMDL
MODEL 4
REMARK VINA RESULT:      -7.6      1.914      3.956
REMARK  Name = 
REMARK  3 active torsions:
REMARK  status: ('A' for Active; 'I' for Inactive)
REMARK    1  A    between atoms: C_2  and  C_10
REMARK    2  A    between atoms: N_3  and  N_4
REMARK    3  A    between atoms: C_17  and  C_18
REMARK                            x       y       z     vdW  Elec       q    Type
REMARK                         _______ _______ _______ _____ _____    ______ ____
ROOT
ATOM      1  C   UNL     1       1.246   8.821  20.450  0.00  0.00    +0.000 A 
ATOM      2  C   UNL     1       0.582   8.607  21.660  0.00  0.00    +0.000 A 
ATOM      3  C   UNL     1       0.038   9.682  22.358  0.00  0.00    +0.000 A 
ATOM      4  C   UNL     1       0.143  10.974  21.834  0.00  0.00    +0.000 A 
ATOM      5  C   UNL     1       0.755  11.193  20.585  0.00  0.00    +0.000 A 
ATOM      6  C   UNL     1       1.336  10.113  19.908  0.00  0.00    +0.000 A 
ATOM      7  N   UNL     1       0.765  12.461  19.967  0.00  0.00    +0.000 NA
ATOM      8  C   UNL     1      -0.345  13.115  19.789  0.00  0.00    +0.000 C 
ATOM      9  C   UNL     1      -1.715  12.611  20.290  0.00  0.00    +0.000 A 
ATOM     10  C   UNL     1      -2.860  12.562  19.491  0.00  0.00    +0.000 A 
ATOM     11  C   UNL     1      -4.119  12.638  20.105  0.00  0.00    +0.000 A 
ATOM     12  C   UNL     1      -4.241  12.608  21.495  0.00  0.00    +0.000 A 
ATOM     13  C   UNL     1      -3.114  12.383  22.276  0.00  0.00    +0.000 A 
ATOM     14  C   UNL     1      -1.847  12.382  21.679  0.00  0.00    +0.000 A 
ATOM     15  C   UNL     1      -0.607  12.112  22.491  0.00  0.00    +0.000 C 
ENDROOT
BRANCH   8  16
ATOM     16  C   UNL     1      -0.254  14.569  19.138  0.00  0.00    +0.000 C 
ATOM     17  C   UNL     1      -1.101  15.617  19.878  0.00  0.00    +0.000 C 
ATOM     18  C   UNL     1      -0.424  16.030  21.197  0.00  0.00    +0.000 C 
ATOM     19  C   UNL     1       1.005  16.548  21.108  0.00  0.00    +0.000 C 
ATOM     20  C   UNL     1       1.856  15.643  20.218  0.00  0.00    +0.000 C 
ATOM     21  C   UNL     1       1.129  15.251  18.929  0.00  0.00    +0.000 C 
ENDBRANCH   8  16
BRANCH   1  23
ATOM     22  O   UNL     1       1.962   7.702  18.502  0.00  0.00    +0.000 OA
ATOM     23  C   UNL     1       1.810   7.648  19.754  0.00  0.00    +0.000 C 
ATOM     24  N   UNL     1       2.086   6.554  20.534  0.00  0.00    +0.000 N 
ATOM     25  H   UNL     1       1.832   6.557  21.523  0.00  0.00    +0.000 HD
BRANCH  24  26
ATOM     26  N   UNL     1       2.571   5.373  19.950  0.00  0.00    +0.000 NA
ATOM     27  C   UNL     1       4.005   5.472  19.672  0.00  0.00    +0.000 C 
ATOM     28  C   UNL     1       4.507   4.229  18.937  0.00  0.00    +0.000 C 
ATOM     29  C   UNL     1       4.182   2.959  19.714  0.00  0.00    +0.000 C 
ATOM     30  C   UNL     1       2.697   2.905  20.055  0.00  0.00    +0.000 C 
ATOM     31  C   UNL     1       2.233   4.189  20.747  0.00  0.00    +0.000 C 
ENDBRANCH  24  26
ENDBRANCH   1  23
TORSDOF 3
ENDMDL
MODEL 5
REMARK VINA RESULT:      -7.5      1.688      3.732
REMARK  Name = 
REMARK  3 active torsions:
REMARK  status: ('A' for Active; 'I' for Inactive)
REMARK    1  A    between atoms: C_2  and  C_10
REMARK    2  A    between atoms: N_3  and  N_4
REMARK    3  A    between atoms: C_17  and  C_18
REMARK                            x       y       z     vdW  Elec       q    Type
REMARK                         _______ _______ _______ _____ _____    ______ ____
ROOT
ATOM      1  C   UNL     1       1.246   9.569  19.455  0.00  0.00    +0.000 A 
ATOM      2  C   UNL     1       0.802   9.075  20.683  0.00  0.00    +0.000 A 
ATOM      3  C   UNL     1       0.316   9.947  21.653  0.00  0.00    +0.000 A 
ATOM      4  C   UNL     1       0.256  11.319  21.385  0.00  0.00    +0.000 A 
ATOM      5  C   UNL     1       0.642  11.820  20.128  0.00  0.00    +0.000 A 
ATOM      6  C   UNL     1       1.169  10.943  19.171  0.00  0.00    +0.000 A 
ATOM      7  N   UNL     1       0.474  13.177  19.778  0.00  0.00    +0.000 NA
ATOM      8  C   UNL     1      -0.687  13.749  19.900  0.00  0.00    +0.000 C 
ATOM      9  C   UNL     1      -1.924  13.039  20.488  0.00  0.00    +0.000 A 
ATOM     10  C   UNL     1      -3.179  13.035  19.874  0.00  0.00    +0.000 A 
ATOM     11  C   UNL     1      -4.324  12.882  20.670  0.00  0.00    +0.000 A 
ATOM     12  C   UNL     1      -4.215  12.582  22.029  0.00  0.00    +0.000 A 
ATOM     13  C   UNL     1      -2.965  12.319  22.575  0.00  0.00    +0.000 A 
ATOM     14  C   UNL     1      -1.815  12.544  21.808  0.00  0.00    +0.000 A 
ATOM     15  C   UNL     1      -0.445  12.241  22.358  0.00  0.00    +0.000 C 
ENDROOT
BRANCH   8  16
ATOM     16  C   UNL     1      -0.792  15.301  19.543  0.00  0.00    +0.000 C 
ATOM     17  C   UNL     1      -1.648  16.095  20.543  0.00  0.00    +0.000 C 
ATOM     18  C   UNL     1      -0.879  16.321  21.857  0.00  0.00    +0.000 C 
ATOM     19  C   UNL     1       0.481  16.996  21.754  0.00  0.00    +0.000 C 
ATOM     20  C   UNL     1       1.315  16.370  20.636  0.00  0.00    +0.000 C 
ATOM     21  C   UNL     1       0.497  16.154  19.360  0.00  0.00    +0.000 C 
ENDBRANCH   8  16
BRANCH   1  23
ATOM     22  O   UNL     1       1.722   8.912  17.241  0.00  0.00    +0.000 OA
ATOM     23  C   UNL     1       1.759   8.603  18.464  0.00  0.00    +0.000 C 
ATOM     24  N   UNL     1       2.200   7.402  18.960  0.00  0.00    +0.000 N 
ATOM     25  H   UNL     1       2.094   7.192  19.953  0.00  0.00    +0.000 HD
BRANCH  24  26
ATOM     26  N   UNL     1       2.652   6.400  18.088  0.00  0.00    +0.000 NA
ATOM     27  C   UNL     1       4.105   6.460  17.920  0.00  0.00    +0.000 C 
ATOM     28  C   UNL     1       4.581   5.439  16.887  0.00  0.00    +0.000 C 
ATOM     29  C   UNL     1       4.125   4.031  17.251  0.00  0.00    +0.000 C 
ATOM     30  C   UNL     1       2.620   4.000  17.488  0.00  0.00    +0.000 C 
ATOM     31  C   UNL     1       2.188   5.069  18.495  0.00  0.00    +0.000 C 
ENDBRANCH  24  26
ENDBRANCH   1  23
TORSDOF 3
ENDMDL
MODEL 6
REMARK VINA RESULT:      -7.3      1.649      1.978
REMARK  Name = 
REMARK  3 active torsions:
REMARK  status: ('A' for Active; 'I' for Inactive)
REMARK    1  A    between atoms: C_2  and  C_10
REMARK    2  A    between atoms: N_3  and  N_4
REMARK    3  A    between atoms: C_17  and  C_18
REMARK                            x       y       z     vdW  Elec       q    Type
REMARK                         _______ _______ _______ _____ _____    ______ ____
ROOT
ATOM      1  C   UNL     1       1.535   8.430  19.311  0.00  0.00    +0.000 A 
ATOM      2  C   UNL     1       1.434   9.034  18.056  0.00  0.00    +0.000 A 
ATOM      3  C   UNL     1       0.619  10.149  17.881  0.00  0.00    +0.000 A 
ATOM      4  C   UNL     1      -0.084  10.673  18.971  0.00  0.00    +0.000 A 
ATOM      5  C   UNL     1       0.060  10.110  20.253  0.00  0.00    +0.000 A 
ATOM      6  C   UNL     1       0.849   8.963  20.414  0.00  0.00    +0.000 A 
ATOM      7  N   UNL     1      -0.531  10.688  21.397  0.00  0.00    +0.000 NA
ATOM      8  C   UNL     1      -0.328  11.941  21.680  0.00  0.00    +0.000 C 
ATOM      9  C   UNL     1       0.488  12.891  20.778  0.00  0.00    +0.000 A 
ATOM     10  C   UNL     1       1.507  13.722  21.252  0.00  0.00    +0.000 A 
ATOM     11  C   UNL     1       1.803  14.900  20.552  0.00  0.00    +0.000 A 
ATOM     12  C   UNL     1       1.204  15.170  19.320  0.00  0.00    +0.000 A 
ATOM     13  C   UNL     1       0.396  14.208  18.726  0.00  0.00    +0.000 A 
ATOM     14  C   UNL     1       0.035  13.065  19.450  0.00  0.00    +0.000 A 
ATOM     15  C   UNL     1      -0.816  11.989  18.827  0.00  0.00    +0.000 C 
ENDROOT
BRANCH   8  16
ATOM     16  C   UNL     1      -1.074  12.545  22.954  0.00  0.00    +0.000 C 
ATOM     17  C   UNL     1      -1.122  14.081  22.955  0.00  0.00    +0.000 C 
ATOM     18  C   UNL     1      -2.167  14.593  21.946  0.00  0.00    +0.000 C 
ATOM     19  C   UNL     1      -3.588  14.072  22.100  0.00  0.00    +0.000 C 
ATOM     20  C   UNL     1      -3.593  12.556  22.297  0.00  0.00    +0.000 C 
ATOM     21  C   UNL     1      -2.526  12.102  23.298  0.00  0.00    +0.000 C 
ENDBRANCH   8  16
BRANCH   1  23
ATOM     22  O   UNL     1       3.453   7.184  18.736  0.00  0.00    +0.000 OA
ATOM     23  C   UNL     1       2.407   7.246  19.440  0.00  0.00    +0.000 C 
ATOM     24  N   UNL     1       1.976   6.266  20.297  0.00  0.00    +0.000 N 
ATOM     25  H   UNL     1       1.063   6.347  20.746  0.00  0.00    +0.000 HD
BRANCH  24  26
ATOM     26  N   UNL     1       2.711   5.079  20.441  0.00  0.00    +0.000 NA
ATOM     27  C   UNL     1       1.948   4.070  21.178  0.00  0.00    +0.000 C 
ATOM     28  C   UNL     1       2.790   2.820  21.428  0.00  0.00    +0.000 C 
ATOM     29  C   UNL     1       3.338   2.253  20.123  0.00  0.00    +0.000 C 
ATOM     30  C   UNL     1       4.072   3.333  19.337  0.00  0.00    +0.000 C 
ATOM     31  C   UNL     1       3.204   4.580  19.152  0.00  0.00    +0.000 C 
ENDBRANCH  24  26
ENDBRANCH   1  23
TORSDOF 3
ENDMDL
MODEL 7
REMARK VINA RESULT:      -7.3      1.738      2.065
REMARK  Name = 
REMARK  3 active torsions:
REMARK  status: ('A' for Active; 'I' for Inactive)
REMARK    1  A    between atoms: C_2  and  C_10
REMARK    2  A    between atoms: N_3  and  N_4
REMARK    3  A    between atoms: C_17  and  C_18
REMARK                            x       y       z     vdW  Elec       q    Type
REMARK                         _______ _______ _______ _____ _____    ______ ____
ROOT
ATOM      1  C   UNL     1       1.477   8.506  19.597  0.00  0.00    +0.000 A 
ATOM      2  C   UNL     1       1.833   8.913  18.310  0.00  0.00    +0.000 A 
ATOM      3  C   UNL     1       1.513  10.193  17.868  0.00  0.00    +0.000 A 
ATOM      4  C   UNL     1       0.850  11.078  18.724  0.00  0.00    +0.000 A 
ATOM      5  C   UNL     1       0.543  10.700  20.045  0.00  0.00    +0.000 A 
ATOM      6  C   UNL     1       0.830   9.396  20.470  0.00  0.00    +0.000 A 
ATOM      7  N   UNL     1      -0.009  11.606  20.976  0.00  0.00    +0.000 NA
ATOM      8  C   UNL     1       0.568  12.750  21.200  0.00  0.00    +0.000 C 
ATOM      9  C   UNL     1       1.821  13.232  20.438  0.00  0.00    +0.000 A 
ATOM     10  C   UNL     1       2.959  13.742  21.066  0.00  0.00    +0.000 A 
ATOM     11  C   UNL     1       3.779  14.637  20.363  0.00  0.00    +0.000 A 
ATOM     12  C   UNL     1       3.556  14.899  19.010  0.00  0.00    +0.000 A 
ATOM     13  C   UNL     1       2.587  14.178  18.323  0.00  0.00    +0.000 A 
ATOM     14  C   UNL     1       1.716  13.341  19.032  0.00  0.00    +0.000 A 
ATOM     15  C   UNL     1       0.672  12.523  18.316  0.00  0.00    +0.000 C 
ENDROOT
BRANCH   8  16
ATOM     16  C   UNL     1      -0.141  13.752  22.220  0.00  0.00    +0.000 C 
ATOM     17  C   UNL     1      -0.543  15.088  21.575  0.00  0.00    +0.000 C 
ATOM     18  C   UNL     1      -1.790  14.910  20.689  0.00  0.00    +0.000 C 
ATOM     19  C   UNL     1      -3.024  14.308  21.346  0.00  0.00    +0.000 C 
ATOM     20  C   UNL     1      -2.654  13.074  22.167  0.00  0.00    +0.000 C 
ATOM     21  C   UNL     1      -1.400  13.301  23.017  0.00  0.00    +0.000 C 
ENDBRANCH   8  16
BRANCH   1  23
ATOM     22  O   UNL     1       1.588   6.780  21.200  0.00  0.00    +0.000 OA
ATOM     23  C   UNL     1       1.833   7.135  20.014  0.00  0.00    +0.000 C 
ATOM     24  N   UNL     1       2.458   6.358  19.072  0.00  0.00    +0.000 N 
ATOM     25  H   UNL     1       2.716   6.761  18.170  0.00  0.00    +0.000 HD
BRANCH  24  26
ATOM     26  N   UNL     1       2.885   5.061  19.396  0.00  0.00    +0.000 NA
ATOM     27  C   UNL     1       1.901   4.061  18.978  0.00  0.00    +0.000 C 
ATOM     28  C   UNL     1       2.318   2.661  19.429  0.00  0.00    +0.000 C 
ATOM     29  C   UNL     1       3.712   2.309  18.923  0.00  0.00    +0.000 C 
ATOM     30  C   UNL     1       4.711   3.394  19.310  0.00  0.00    +0.000 C 
ATOM     31  C   UNL     1       4.228   4.781  18.876  0.00  0.00    +0.000 C 
ENDBRANCH  24  26
ENDBRANCH   1  23
TORSDOF 3
ENDMDL
MODEL 8
REMARK VINA RESULT:      -7.3      1.567      3.759
REMARK  Name = 
REMARK  3 active torsions:
REMARK  status: ('A' for Active; 'I' for Inactive)
REMARK    1  A    between atoms: C_2  and  C_10
REMARK    2  A    between atoms: N_3  and  N_4
REMARK    3  A    between atoms: C_17  and  C_18
REMARK                            x       y       z     vdW  Elec       q    Type
REMARK                         _______ _______ _______ _____ _____    ______ ____
ROOT
ATOM      1  C   UNL     1       0.900   8.717  21.010  0.00  0.00    +0.000 A 
ATOM      2  C   UNL     1       0.195   8.608  22.210  0.00  0.00    +0.000 A 
ATOM      3  C   UNL     1      -0.341   9.743  22.811  0.00  0.00    +0.000 A 
ATOM      4  C   UNL     1      -0.187  10.991  22.198  0.00  0.00    +0.000 A 
ATOM      5  C   UNL     1       0.467  11.103  20.957  0.00  0.00    +0.000 A 
ATOM      6  C   UNL     1       1.040   9.963  20.378  0.00  0.00    +0.000 A 
ATOM      7  N   UNL     1       0.529  12.322  20.249  0.00  0.00    +0.000 NA
ATOM      8  C   UNL     1      -0.558  12.987  19.989  0.00  0.00    +0.000 C 
ATOM      9  C   UNL     1      -1.955  12.554  20.481  0.00  0.00    +0.000 A 
ATOM     10  C   UNL     1      -3.077  12.474  19.652  0.00  0.00    +0.000 A 
ATOM     11  C   UNL     1      -4.351  12.625  20.218  0.00  0.00    +0.000 A 
ATOM     12  C   UNL     1      -4.515  12.700  21.603  0.00  0.00    +0.000 A 
ATOM     13  C   UNL     1      -3.418  12.505  22.434  0.00  0.00    +0.000 A 
ATOM     14  C   UNL     1      -2.134  12.431  21.878  0.00  0.00    +0.000 A 
ATOM     15  C   UNL     1      -0.927  12.191  22.747  0.00  0.00    +0.000 C 
ENDROOT
BRANCH   8  16
ATOM     16  C   UNL     1      -0.410  14.387  19.237  0.00  0.00    +0.000 C 
ATOM     17  C   UNL     1      -1.177  15.528  19.926  0.00  0.00    +0.000 C 
ATOM     18  C   UNL     1      -0.439  15.990  21.195  0.00  0.00    +0.000 C 
ATOM     19  C   UNL     1       1.012  16.422  21.032  0.00  0.00    +0.000 C 
ATOM     20  C   UNL     1       1.787  15.413  20.184  0.00  0.00    +0.000 C 
ATOM     21  C   UNL     1       1.000  14.977  18.945  0.00  0.00    +0.000 C 
ENDBRANCH   8  16
BRANCH   1  23
ATOM     22  O   UNL     1       1.163   6.374  20.948  0.00  0.00    +0.000 OA
ATOM     23  C   UNL     1       1.454   7.483  20.419  0.00  0.00    +0.000 C 
ATOM     24  N   UNL     1       2.297   7.648  19.349  0.00  0.00    +0.000 N 
ATOM     25  H   UNL     1       2.565   8.587  19.052  0.00  0.00    +0.000 HD
BRANCH  24  26
ATOM     26  N   UNL     1       2.916   6.535  18.759  0.00  0.00    +0.000 NA
ATOM     27  C   UNL     1       3.786   6.939  17.652  0.00  0.00    +0.000 C 
ATOM     28  C   UNL     1       4.372   5.719  16.943  0.00  0.00    +0.000 C 
ATOM     29  C   UNL     1       5.110   4.812  17.921  0.00  0.00    +0.000 C 
ATOM     30  C   UNL     1       4.213   4.456  19.101  0.00  0.00    +0.000 C 
ATOM     31  C   UNL     1       3.614   5.708  19.749  0.00  0.00    +0.000 C 
ENDBRANCH  24  26
ENDBRANCH   1  23
TORSDOF 3
ENDMDL
MODEL 9
REMARK VINA RESULT:      -7.3      1.734      3.786
REMARK  Name = 
REMARK  3 active torsions:
REMARK  status: ('A' for Active; 'I' for Inactive)
REMARK    1  A    between atoms: C_2  and  C_10
REMARK    2  A    between atoms: N_3  and  N_4
REMARK    3  A    between atoms: C_17  and  C_18
REMARK                            x       y       z     vdW  Elec       q    Type
REMARK                         _______ _______ _______ _____ _____    ______ ____
ROOT
ATOM      1  C   UNL     1       1.156   8.445  20.805  0.00  0.00    +0.000 A 
ATOM      2  C   UNL     1       0.414   8.386  21.987  0.00  0.00    +0.000 A 
ATOM      3  C   UNL     1      -0.103   9.551  22.546  0.00  0.00    +0.000 A 
ATOM      4  C   UNL     1       0.108  10.779  21.911  0.00  0.00    +0.000 A 
ATOM      5  C   UNL     1       0.801  10.842  20.687  0.00  0.00    +0.000 A 
ATOM      6  C   UNL     1       1.354   9.672  20.151  0.00  0.00    +0.000 A 
ATOM      7  N   UNL     1       0.922  12.042  19.955  0.00  0.00    +0.000 NA
ATOM      8  C   UNL     1      -0.136  12.734  19.648  0.00  0.00    +0.000 C 
ATOM      9  C   UNL     1      -1.559  12.356  20.109  0.00  0.00    +0.000 A 
ATOM     10  C   UNL     1      -2.659  12.292  19.249  0.00  0.00    +0.000 A 
ATOM     11  C   UNL     1      -3.944  12.495  19.773  0.00  0.00    +0.000 A 
ATOM     12  C   UNL     1      -4.145  12.606  21.150  0.00  0.00    +0.000 A 
ATOM     13  C   UNL     1      -3.079  12.397  22.017  0.00  0.00    +0.000 A 
ATOM     14  C   UNL     1      -1.783  12.270  21.502  0.00  0.00    +0.000 A 
ATOM     15  C   UNL     1      -0.609  12.013  22.411  0.00  0.00    +0.000 C 
ENDROOT
BRANCH   8  16
ATOM     16  C   UNL     1       0.078  14.111  18.870  0.00  0.00    +0.000 C 
ATOM     17  C   UNL     1      -0.769  15.263  19.436  0.00  0.00    +0.000 C 
ATOM     18  C   UNL     1      -0.173  15.775  20.760  0.00  0.00    +0.000 C 
ATOM     19  C   UNL     1       1.282  16.220  20.737  0.00  0.00    +0.000 C 
ATOM     20  C   UNL     1       2.152  15.195  20.010  0.00  0.00    +0.000 C 
ATOM     21  C   UNL     1       1.506  14.709  18.710  0.00  0.00    +0.000 C 
ENDBRANCH   8  16
BRANCH   1  23
ATOM     22  O   UNL     1       1.448   6.106  20.875  0.00  0.00    +0.000 OA
ATOM     23  C   UNL     1       1.688   7.181  20.258  0.00  0.00    +0.000 C 
ATOM     24  N   UNL     1       2.456   7.286  19.127  0.00  0.00    +0.000 N 
ATOM     25  H   UNL     1       2.691   8.207  18.754  0.00  0.00    +0.000 HD
BRANCH  24  26
ATOM     26  N   UNL     1       3.052   6.144  18.569  0.00  0.00    +0.000 NA
ATOM     27  C   UNL     1       4.016   5.544  19.493  0.00  0.00    +0.000 C 
ATOM     28  C   UNL     1       4.741   4.367  18.842  0.00  0.00    +0.000 C 
ATOM     29  C   UNL     1       3.754   3.328  18.324  0.00  0.00    +0.000 C 
ATOM     30  C   UNL     1       2.717   3.981  17.416  0.00  0.00    +0.000 C 
ATOM     31  C   UNL     1       2.052   5.180  18.096  0.00  0.00    +0.000 C 
ENDBRANCH  24  26
ENDBRANCH   1  23
TORSDOF 3
ENDMDL
