MODEL 1
REMARK VINA RESULT:      -6.8      0.000      0.000
REMARK  Name = 
REMARK  13 active torsions:
REMARK  status: ('A' for Active; 'I' for Inactive)
REMARK    1  A    between atoms: C_1  and  C_2
REMARK    2  A    between atoms: C_2  and  C_3
REMARK    3  A    between atoms: N_5  and  C_6
REMARK    4  A    between atoms: C_6  and  C_7
REMARK    5  A    between atoms: C_10  and  O_11
REMARK    6  A    between atoms: O_11  and  C_12
REMARK    7  A    between atoms: C_12  and  C_13
REMARK    8  A    between atoms: C_13  and  O_14
REMARK    9  A    between atoms: C_13  and  C_15
REMARK   10  A    between atoms: C_15  and  N_16
REMARK   11  A    between atoms: N_16  and  C_17
REMARK   12  A    between atoms: C_17  and  C_18
REMARK   13  A    between atoms: C_17  and  C_19
REMARK                            x       y       z     vdW  Elec       q    Type
REMARK                         _______ _______ _______ _____ _____    ______ ____
ROOT
ATOM      1  C   UNL     1       5.358   6.239  17.786  0.00  0.00    +0.000 A 
ATOM      2  C   UNL     1       5.362   5.350  18.863  0.00  0.00    +0.000 A 
ATOM      3  C   UNL     1       4.223   5.207  19.658  0.00  0.00    +0.000 A 
ATOM      4  C   UNL     1       3.047   5.925  19.388  0.00  0.00    +0.000 A 
ATOM      5  C   UNL     1       3.049   6.837  18.324  0.00  0.00    +0.000 A 
ATOM      6 CL   UNL     1       1.746   7.902  17.929  0.00  0.00    +0.000 Cl
ATOM      7  C   UNL     1       4.194   6.973  17.521  0.00  0.00    +0.000 A 
ENDROOT
BRANCH   1   8
ATOM      8  C   UNL     1       6.573   6.407  16.919  0.00  0.00    +0.000 C 
BRANCH   8  11
ATOM      9  C   UNL     1       8.003   8.086  17.961  0.00  0.00    +0.000 C 
ATOM     10  O   UNL     1       8.404   7.286  18.798  0.00  0.00    +0.000 OA
ATOM     11  N   UNL     1       7.092   7.752  16.987  0.00  0.00    +0.000 N 
ATOM     12  H   UNL     1       6.798   8.436  16.302  0.00  0.00    +0.000 HD
BRANCH   9  14
ATOM     13  C   UNL     1       9.147   9.961  19.179  0.00  0.00    +0.000 C 
ATOM     14  C   UNL     1       8.460   9.529  17.894  0.00  0.00    +0.000 C 
ENDBRANCH   9  14
ENDBRANCH   8  11
ENDBRANCH   1   8
BRANCH   4  15
ATOM     15  O   UNL     1       2.048   5.632  20.276  0.00  0.00    +0.000 OA
BRANCH  15  16
ATOM     16  C   UNL     1       2.270   4.573  21.212  0.00  0.00    +0.000 C 
BRANCH  16  17
ATOM     17  C   UNL     1       1.312   3.409  20.904  0.00  0.00    +0.000 C 
BRANCH  17  18
ATOM     18  O   UNL     1       0.251   3.879  20.059  0.00  0.00    +0.000 OA
ATOM     19  H   UNL     1      -0.577   3.700  20.542  0.00  0.00    +0.000 HD
ENDBRANCH  17  18
BRANCH  17  20
ATOM     20  C   UNL     1       2.008   2.218  20.214  0.00  0.00    +0.000 C 
BRANCH  20  21
ATOM     21  N   UNL     1       1.432   1.935  18.899  0.00  0.00    +0.000 NA
ATOM     22  H   UNL     1       0.689   2.608  18.705  0.00  0.00    +0.000 HD
BRANCH  21  23
ATOM     23  C   UNL     1       2.406   1.967  17.802  0.00  0.00    +0.000 C 
ATOM     24  C   UNL     1       2.480   3.329  17.108  0.00  0.00    +0.000 C 
ATOM     25  C   UNL     1       3.776   1.623  18.393  0.00  0.00    +0.000 C 
ENDBRANCH  21  23
ENDBRANCH  20  21
ENDBRANCH  17  20
ENDBRANCH  16  17
ENDBRANCH  15  16
ENDBRANCH   4  15
TORSDOF 10
ENDMDL
MODEL 2
REMARK VINA RESULT:      -6.7      3.179      4.365
REMARK  Name = 
REMARK  13 active torsions:
REMARK  status: ('A' for Active; 'I' for Inactive)
REMARK    1  A    between atoms: C_1  and  C_2
REMARK    2  A    between atoms: C_2  and  C_3
REMARK    3  A    between atoms: N_5  and  C_6
REMARK    4  A    between atoms: C_6  and  C_7
REMARK    5  A    between atoms: C_10  and  O_11
REMARK    6  A    between atoms: O_11  and  C_12
REMARK    7  A    between atoms: C_12  and  C_13
REMARK    8  A    between atoms: C_13  and  O_14
REMARK    9  A    between atoms: C_13  and  C_15
REMARK   10  A    between atoms: C_15  and  N_16
REMARK   11  A    between atoms: N_16  and  C_17
REMARK   12  A    between atoms: C_17  and  C_18
REMARK   13  A    between atoms: C_17  and  C_19
REMARK                            x       y       z     vdW  Elec       q    Type
REMARK                         _______ _______ _______ _____ _____    ______ ____
ROOT
ATOM      1  C   UNL     1       6.059   5.102  15.860  0.00  0.00    +0.000 A 
ATOM      2  C   UNL     1       6.374   4.286  16.947  0.00  0.00    +0.000 A 
ATOM      3  C   UNL     1       5.760   4.497  18.184  0.00  0.00    +0.000 A 
ATOM      4  C   UNL     1       4.804   5.509  18.362  0.00  0.00    +0.000 A 
ATOM      5  C   UNL     1       4.505   6.346  17.279  0.00  0.00    +0.000 A 
ATOM      6 CL   UNL     1       3.462   7.723  17.347  0.00  0.00    +0.000 Cl
ATOM      7  C   UNL     1       5.118   6.126  16.035  0.00  0.00    +0.000 A 
ENDROOT
BRANCH   1   8
ATOM      8  C   UNL     1       6.708   4.890  14.521  0.00  0.00    +0.000 C 
BRANCH   8  11
ATOM      9  C   UNL     1       6.375   3.673  12.434  0.00  0.00    +0.000 C 
ATOM     10  O   UNL     1       7.315   4.249  11.900  0.00  0.00    +0.000 OA
ATOM     11  N   UNL     1       5.988   3.921  13.730  0.00  0.00    +0.000 N 
ATOM     12  H   UNL     1       5.218   3.413  14.143  0.00  0.00    +0.000 HD
BRANCH   9  14
ATOM     13  C   UNL     1       4.187   3.187  11.301  0.00  0.00    +0.000 C 
ATOM     14  C   UNL     1       5.529   2.625  11.741  0.00  0.00    +0.000 C 
ENDBRANCH   9  14
ENDBRANCH   8  11
ENDBRANCH   1   8
BRANCH   4  15
ATOM     15  O   UNL     1       4.318   5.541  19.641  0.00  0.00    +0.000 OA
BRANCH  15  16
ATOM     16  C   UNL     1       2.906   5.689  19.820  0.00  0.00    +0.000 C 
BRANCH  16  17
ATOM     17  C   UNL     1       2.388   4.576  20.747  0.00  0.00    +0.000 C 
BRANCH  17  18
ATOM     18  O   UNL     1       0.952   4.573  20.727  0.00  0.00    +0.000 OA
ATOM     19  H   UNL     1       0.687   5.425  20.332  0.00  0.00    +0.000 HD
ENDBRANCH  17  18
BRANCH  17  20
ATOM     20  C   UNL     1       2.894   3.174  20.353  0.00  0.00    +0.000 C 
BRANCH  20  21
ATOM     21  N   UNL     1       1.886   2.417  19.610  0.00  0.00    +0.000 NA
ATOM     22  H   UNL     1       1.033   2.974  19.537  0.00  0.00    +0.000 HD
BRANCH  21  23
ATOM     23  C   UNL     1       2.312   2.016  18.264  0.00  0.00    +0.000 C 
ATOM     24  C   UNL     1       2.337   3.180  17.273  0.00  0.00    +0.000 C 
ATOM     25  C   UNL     1       3.720   1.423  18.387  0.00  0.00    +0.000 C 
ENDBRANCH  21  23
ENDBRANCH  20  21
ENDBRANCH  17  20
ENDBRANCH  16  17
ENDBRANCH  15  16
ENDBRANCH   4  15
TORSDOF 10
ENDMDL
MODEL 3
REMARK VINA RESULT:      -6.6      3.684      5.194
REMARK  Name = 
REMARK  13 active torsions:
REMARK  status: ('A' for Active; 'I' for Inactive)
REMARK    1  A    between atoms: C_1  and  C_2
REMARK    2  A    between atoms: C_2  and  C_3
REMARK    3  A    between atoms: N_5  and  C_6
REMARK    4  A    between atoms: C_6  and  C_7
REMARK    5  A    between atoms: C_10  and  O_11
REMARK    6  A    between atoms: O_11  and  C_12
REMARK    7  A    between atoms: C_12  and  C_13
REMARK    8  A    between atoms: C_13  and  O_14
REMARK    9  A    between atoms: C_13  and  C_15
REMARK   10  A    between atoms: C_15  and  N_16
REMARK   11  A    between atoms: N_16  and  C_17
REMARK   12  A    between atoms: C_17  and  C_18
REMARK   13  A    between atoms: C_17  and  C_19
REMARK                            x       y       z     vdW  Elec       q    Type
REMARK                         _______ _______ _______ _____ _____    ______ ____
ROOT
ATOM      1  C   UNL     1       6.001   4.241  15.973  0.00  0.00    +0.000 A 
ATOM      2  C   UNL     1       6.672   4.641  17.130  0.00  0.00    +0.000 A 
ATOM      3  C   UNL     1       6.059   4.506  18.378  0.00  0.00    +0.000 A 
ATOM      4  C   UNL     1       4.776   3.951  18.507  0.00  0.00    +0.000 A 
ATOM      5  C   UNL     1       4.091   3.573  17.344  0.00  0.00    +0.000 A 
ATOM      6 CL   UNL     1       2.460   3.002  17.296  0.00  0.00    +0.000 Cl
ATOM      7  C   UNL     1       4.713   3.702  16.092  0.00  0.00    +0.000 A 
ENDROOT
BRANCH   1   8
ATOM      8  C   UNL     1       6.644   4.377  14.622  0.00  0.00    +0.000 C 
BRANCH   8  11
ATOM      9  C   UNL     1       6.418   3.562  12.334  0.00  0.00    +0.000 C 
ATOM     10  O   UNL     1       7.269   4.344  11.927  0.00  0.00    +0.000 OA
ATOM     11  N   UNL     1       6.031   3.501  13.652  0.00  0.00    +0.000 N 
ATOM     12  H   UNL     1       5.337   2.830  13.953  0.00  0.00    +0.000 HD
BRANCH   9  14
ATOM     13  C   UNL     1       4.271   3.025  11.145  0.00  0.00    +0.000 C 
ATOM     14  C   UNL     1       5.692   2.574  11.444  0.00  0.00    +0.000 C 
ENDBRANCH   9  14
ENDBRANCH   8  11
ENDBRANCH   1   8
BRANCH   4  15
ATOM     15  O   UNL     1       4.364   3.899  19.811  0.00  0.00    +0.000 OA
BRANCH  15  16
ATOM     16  C   UNL     1       3.668   2.729  20.250  0.00  0.00    +0.000 C 
BRANCH  16  17
ATOM     17  C   UNL     1       2.348   3.140  20.923  0.00  0.00    +0.000 C 
BRANCH  17  18
ATOM     18  O   UNL     1       2.184   2.393  22.139  0.00  0.00    +0.000 OA
ATOM     19  H   UNL     1       1.538   2.890  22.675  0.00  0.00    +0.000 HD
ENDBRANCH  17  18
BRANCH  17  20
ATOM     20  C   UNL     1       2.278   4.645  21.251  0.00  0.00    +0.000 C 
BRANCH  20  21
ATOM     21  N   UNL     1       1.681   5.416  20.160  0.00  0.00    +0.000 NA
ATOM     22  H   UNL     1       0.745   5.717  20.433  0.00  0.00    +0.000 HD
BRANCH  21  23
ATOM     23  C   UNL     1       2.465   6.591  19.761  0.00  0.00    +0.000 C 
ATOM     24  C   UNL     1       2.654   6.698  18.247  0.00  0.00    +0.000 C 
ATOM     25  C   UNL     1       1.722   7.831  20.269  0.00  0.00    +0.000 C 
ENDBRANCH  21  23
ENDBRANCH  20  21
ENDBRANCH  17  20
ENDBRANCH  16  17
ENDBRANCH  15  16
ENDBRANCH   4  15
TORSDOF 10
ENDMDL
MODEL 4
REMARK VINA RESULT:      -6.5      3.510      4.913
REMARK  Name = 
REMARK  13 active torsions:
REMARK  status: ('A' for Active; 'I' for Inactive)
REMARK    1  A    between atoms: C_1  and  C_2
REMARK    2  A    between atoms: C_2  and  C_3
REMARK    3  A    between atoms: N_5  and  C_6
REMARK    4  A    between atoms: C_6  and  C_7
REMARK    5  A    between atoms: C_10  and  O_11
REMARK    6  A    between atoms: O_11  and  C_12
REMARK    7  A    between atoms: C_12  and  C_13
REMARK    8  A    between atoms: C_13  and  O_14
REMARK    9  A    between atoms: C_13  and  C_15
REMARK   10  A    between atoms: C_15  and  N_16
REMARK   11  A    between atoms: N_16  and  C_17
REMARK   12  A    between atoms: C_17  and  C_18
REMARK   13  A    between atoms: C_17  and  C_19
REMARK                            x       y       z     vdW  Elec       q    Type
REMARK                         _______ _______ _______ _____ _____    ______ ____
ROOT
ATOM      1  C   UNL     1       6.248   5.059  15.548  0.00  0.00    +0.000 A 
ATOM      2  C   UNL     1       5.352   6.074  15.207  0.00  0.00    +0.000 A 
ATOM      3  C   UNL     1       4.609   6.716  16.200  0.00  0.00    +0.000 A 
ATOM      4  C   UNL     1       4.755   6.380  17.556  0.00  0.00    +0.000 A 
ATOM      5  C   UNL     1       5.635   5.345  17.898  0.00  0.00    +0.000 A 
ATOM      6 CL   UNL     1       5.843   4.706  19.490  0.00  0.00    +0.000 Cl
ATOM      7  C   UNL     1       6.387   4.707  16.898  0.00  0.00    +0.000 A 
ENDROOT
BRANCH   1   8
ATOM      8  C   UNL     1       7.057   4.357  14.495  0.00  0.00    +0.000 C 
BRANCH   8  11
ATOM      9  C   UNL     1       6.394   3.482  12.317  0.00  0.00    +0.000 C 
ATOM     10  O   UNL     1       7.210   4.188  11.738  0.00  0.00    +0.000 OA
ATOM     11  N   UNL     1       6.235   3.492  13.683  0.00  0.00    +0.000 N 
ATOM     12  H   UNL     1       5.562   2.882  14.127  0.00  0.00    +0.000 HD
BRANCH   9  14
ATOM     13  C   UNL     1       4.134   3.163  11.268  0.00  0.00    +0.000 C 
ATOM     14  C   UNL     1       5.467   2.516  11.608  0.00  0.00    +0.000 C 
ENDBRANCH   9  14
ENDBRANCH   8  11
ENDBRANCH   1   8
BRANCH   4  15
ATOM     15  O   UNL     1       3.946   7.132  18.364  0.00  0.00    +0.000 OA
BRANCH  15  16
ATOM     16  C   UNL     1       2.595   6.701  18.551  0.00  0.00    +0.000 C 
BRANCH  16  17
ATOM     17  C   UNL     1       2.489   5.901  19.861  0.00  0.00    +0.000 C 
BRANCH  17  18
ATOM     18  O   UNL     1       1.820   6.699  20.850  0.00  0.00    +0.000 OA
ATOM     19  H   UNL     1       1.072   6.161  21.169  0.00  0.00    +0.000 HD
ENDBRANCH  17  18
BRANCH  17  20
ATOM     20  C   UNL     1       1.729   4.570  19.699  0.00  0.00    +0.000 C 
BRANCH  20  21
ATOM     21  N   UNL     1       2.636   3.423  19.650  0.00  0.00    +0.000 NA
ATOM     22  H   UNL     1       2.497   2.848  20.483  0.00  0.00    +0.000 HD
BRANCH  21  23
ATOM     23  C   UNL     1       2.475   2.584  18.457  0.00  0.00    +0.000 C 
ATOM     24  C   UNL     1       2.597   3.372  17.151  0.00  0.00    +0.000 C 
ATOM     25  C   UNL     1       3.563   1.507  18.504  0.00  0.00    +0.000 C 
ENDBRANCH  21  23
ENDBRANCH  20  21
ENDBRANCH  17  20
ENDBRANCH  16  17
ENDBRANCH  15  16
ENDBRANCH   4  15
TORSDOF 10
ENDMDL
MODEL 5
REMARK VINA RESULT:      -6.4      2.299      3.353
REMARK  Name = 
REMARK  13 active torsions:
REMARK  status: ('A' for Active; 'I' for Inactive)
REMARK    1  A    between atoms: C_1  and  C_2
REMARK    2  A    between atoms: C_2  and  C_3
REMARK    3  A    between atoms: N_5  and  C_6
REMARK    4  A    between atoms: C_6  and  C_7
REMARK    5  A    between atoms: C_10  and  O_11
REMARK    6  A    between atoms: O_11  and  C_12
REMARK    7  A    between atoms: C_12  and  C_13
REMARK    8  A    between atoms: C_13  and  O_14
REMARK    9  A    between atoms: C_13  and  C_15
REMARK   10  A    between atoms: C_15  and  N_16
REMARK   11  A    between atoms: N_16  and  C_17
REMARK   12  A    between atoms: C_17  and  C_18
REMARK   13  A    between atoms: C_17  and  C_19
REMARK                            x       y       z     vdW  Elec       q    Type
REMARK                         _______ _______ _______ _____ _____    ______ ____
ROOT
ATOM      1  C   UNL     1       7.749   7.841  17.912  0.00  0.00    +0.000 A 
ATOM      2  C   UNL     1       8.223   6.998  18.919  0.00  0.00    +0.000 A 
ATOM      3  C   UNL     1       7.634   5.748  19.121  0.00  0.00    +0.000 A 
ATOM      4  C   UNL     1       6.576   5.298  18.314  0.00  0.00    +0.000 A 
ATOM      5  C   UNL     1       6.083   6.153  17.320  0.00  0.00    +0.000 A 
ATOM      6 CL   UNL     1       4.706   5.828  16.327  0.00  0.00    +0.000 Cl
ATOM      7  C   UNL     1       6.683   7.406  17.114  0.00  0.00    +0.000 A 
ENDROOT
BRANCH   1   8
ATOM      8  C   UNL     1       8.370   9.189  17.679  0.00  0.00    +0.000 C 
BRANCH   8  11
ATOM      9  C   UNL     1       9.626  10.922  18.849  0.00  0.00    +0.000 C 
ATOM     10  O   UNL     1       9.700  11.610  17.838  0.00  0.00    +0.000 OA
ATOM     11  N   UNL     1       8.992   9.702  18.876  0.00  0.00    +0.000 N 
ATOM     12  H   UNL     1       8.936   9.171  19.735  0.00  0.00    +0.000 HD
BRANCH   9  14
ATOM     13  C   UNL     1       9.138  11.566  21.227  0.00  0.00    +0.000 C 
ATOM     14  C   UNL     1      10.217  11.325  20.184  0.00  0.00    +0.000 C 
ENDBRANCH   9  14
ENDBRANCH   8  11
ENDBRANCH   1   8
BRANCH   4  15
ATOM     15  O   UNL     1       6.151   4.047  18.670  0.00  0.00    +0.000 OA
BRANCH  15  16
ATOM     16  C   UNL     1       4.895   3.931  19.345  0.00  0.00    +0.000 C 
BRANCH  16  17
ATOM     17  C   UNL     1       4.455   2.457  19.359  0.00  0.00    +0.000 C 
BRANCH  17  18
ATOM     18  O   UNL     1       3.971   2.120  20.668  0.00  0.00    +0.000 OA
ATOM     19  H   UNL     1       4.106   2.915  21.218  0.00  0.00    +0.000 HD
ENDBRANCH  17  18
BRANCH  17  20
ATOM     20  C   UNL     1       3.354   2.143  18.326  0.00  0.00    +0.000 C 
BRANCH  20  21
ATOM     21  N   UNL     1       2.087   1.790  18.966  0.00  0.00    +0.000 NA
ATOM     22  H   UNL     1       2.256   1.565  19.948  0.00  0.00    +0.000 HD
BRANCH  21  23
ATOM     23  C   UNL     1       1.065   2.840  18.886  0.00  0.00    +0.000 C 
ATOM     24  C   UNL     1       0.866   3.584  20.208  0.00  0.00    +0.000 C 
ATOM     25  C   UNL     1       1.509   3.832  17.807  0.00  0.00    +0.000 C 
ENDBRANCH  21  23
ENDBRANCH  20  21
ENDBRANCH  17  20
ENDBRANCH  16  17
ENDBRANCH  15  16
ENDBRANCH   4  15
TORSDOF 10
ENDMDL
MODEL 6
REMARK VINA RESULT:      -6.3      4.197      5.882
REMARK  Name = 
REMARK  13 active torsions:
REMARK  status: ('A' for Active; 'I' for Inactive)
REMARK    1  A    between atoms: C_1  and  C_2
REMARK    2  A    between atoms: C_2  and  C_3
REMARK    3  A    between atoms: N_5  and  C_6
REMARK    4  A    between atoms: C_6  and  C_7
REMARK    5  A    between atoms: C_10  and  O_11
REMARK    6  A    between atoms: O_11  and  C_12
REMARK    7  A    between atoms: C_12  and  C_13
REMARK    8  A    between atoms: C_13  and  O_14
REMARK    9  A    between atoms: C_13  and  C_15
REMARK   10  A    between atoms: C_15  and  N_16
REMARK   11  A    between atoms: N_16  and  C_17
REMARK   12  A    between atoms: C_17  and  C_18
REMARK   13  A    between atoms: C_17  and  C_19
REMARK                            x       y       z     vdW  Elec       q    Type
REMARK                         _______ _______ _______ _____ _____    ______ ____
ROOT
ATOM      1  C   UNL     1       6.305   4.494  15.786  0.00  0.00    +0.000 A 
ATOM      2  C   UNL     1       5.008   4.049  16.043  0.00  0.00    +0.000 A 
ATOM      3  C   UNL     1       4.487   4.114  17.337  0.00  0.00    +0.000 A 
ATOM      4  C   UNL     1       5.236   4.643  18.400  0.00  0.00    +0.000 A 
ATOM      5  C   UNL     1       6.548   5.067  18.150  0.00  0.00    +0.000 A 
ATOM      6 CL   UNL     1       7.660   5.616  19.354  0.00  0.00    +0.000 Cl
ATOM      7  C   UNL     1       7.065   5.008  16.845  0.00  0.00    +0.000 A 
ENDROOT
BRANCH   1   8
ATOM      8  C   UNL     1       6.882   4.433  14.399  0.00  0.00    +0.000 C 
BRANCH   8  11
ATOM      9  C   UNL     1       6.449   3.415  12.226  0.00  0.00    +0.000 C 
ATOM     10  O   UNL     1       7.275   4.135  11.677  0.00  0.00    +0.000 OA
ATOM     11  N   UNL     1       6.176   3.485  13.572  0.00  0.00    +0.000 N 
ATOM     12  H   UNL     1       5.500   2.862  13.992  0.00  0.00    +0.000 HD
BRANCH   9  14
ATOM     13  C   UNL     1       6.481   1.163  11.115  0.00  0.00    +0.000 C 
ATOM     14  C   UNL     1       5.635   2.366  11.498  0.00  0.00    +0.000 C 
ENDBRANCH   9  14
ENDBRANCH   8  11
ENDBRANCH   1   8
BRANCH   4  15
ATOM     15  O   UNL     1       4.542   4.626  19.580  0.00  0.00    +0.000 OA
BRANCH  15  16
ATOM     16  C   UNL     1       3.263   3.986  19.597  0.00  0.00    +0.000 C 
BRANCH  16  17
ATOM     17  C   UNL     1       2.225   4.930  20.228  0.00  0.00    +0.000 C 
BRANCH  17  18
ATOM     18  O   UNL     1       2.522   5.096  21.622  0.00  0.00    +0.000 OA
ATOM     19  H   UNL     1       1.695   5.402  22.039  0.00  0.00    +0.000 HD
ENDBRANCH  17  18
BRANCH  17  20
ATOM     20  C   UNL     1       2.183   6.318  19.559  0.00  0.00    +0.000 C 
BRANCH  20  21
ATOM     21  N   UNL     1       2.342   7.400  20.532  0.00  0.00    +0.000 NA
ATOM     22  H   UNL     1       3.121   7.997  20.248  0.00  0.00    +0.000 HD
BRANCH  21  23
ATOM     23  C   UNL     1       1.143   8.228  20.705  0.00  0.00    +0.000 C 
ATOM     24  C   UNL     1       1.071   8.896  22.079  0.00  0.00    +0.000 C 
ATOM     25  C   UNL     1       1.169   9.306  19.617  0.00  0.00    +0.000 C 
ENDBRANCH  21  23
ENDBRANCH  20  21
ENDBRANCH  17  20
ENDBRANCH  16  17
ENDBRANCH  15  16
ENDBRANCH   4  15
TORSDOF 10
ENDMDL
MODEL 7
REMARK VINA RESULT:      -6.3      1.778      2.793
REMARK  Name = 
REMARK  13 active torsions:
REMARK  status: ('A' for Active; 'I' for Inactive)
REMARK    1  A    between atoms: C_1  and  C_2
REMARK    2  A    between atoms: C_2  and  C_3
REMARK    3  A    between atoms: N_5  and  C_6
REMARK    4  A    between atoms: C_6  and  C_7
REMARK    5  A    between atoms: C_10  and  O_11
REMARK    6  A    between atoms: O_11  and  C_12
REMARK    7  A    between atoms: C_12  and  C_13
REMARK    8  A    between atoms: C_13  and  O_14
REMARK    9  A    between atoms: C_13  and  C_15
REMARK   10  A    between atoms: C_15  and  N_16
REMARK   11  A    between atoms: N_16  and  C_17
REMARK   12  A    between atoms: C_17  and  C_18
REMARK   13  A    between atoms: C_17  and  C_19
REMARK                            x       y       z     vdW  Elec       q    Type
REMARK                         _______ _______ _______ _____ _____    ______ ____
ROOT
ATOM      1  C   UNL     1       5.215   6.543  17.685  0.00  0.00    +0.000 A 
ATOM      2  C   UNL     1       5.203   5.630  18.741  0.00  0.00    +0.000 A 
ATOM      3  C   UNL     1       4.062   5.489  19.533  0.00  0.00    +0.000 A 
ATOM      4  C   UNL     1       2.900   6.236  19.281  0.00  0.00    +0.000 A 
ATOM      5  C   UNL     1       2.918   7.171  18.237  0.00  0.00    +0.000 A 
ATOM      6 CL   UNL     1       1.636   8.269  17.867  0.00  0.00    +0.000 Cl
ATOM      7  C   UNL     1       4.065   7.304  17.438  0.00  0.00    +0.000 A 
ENDROOT
BRANCH   1   8
ATOM      8  C   UNL     1       6.434   6.708  16.821  0.00  0.00    +0.000 C 
BRANCH   8  11
ATOM      9  C   UNL     1       7.065   4.811  15.424  0.00  0.00    +0.000 C 
ATOM     10  O   UNL     1       7.842   4.391  16.273  0.00  0.00    +0.000 OA
ATOM     11  N   UNL     1       6.321   5.955  15.595  0.00  0.00    +0.000 N 
ATOM     12  H   UNL     1       5.676   6.260  14.879  0.00  0.00    +0.000 HD
BRANCH   9  14
ATOM     13  C   UNL     1       5.352   4.105  13.728  0.00  0.00    +0.000 C 
ATOM     14  C   UNL     1       6.827   4.129  14.093  0.00  0.00    +0.000 C 
ENDBRANCH   9  14
ENDBRANCH   8  11
ENDBRANCH   1   8
BRANCH   4  15
ATOM     15  O   UNL     1       1.895   5.942  20.163  0.00  0.00    +0.000 OA
BRANCH  15  16
ATOM     16  C   UNL     1       2.062   4.806  21.016  0.00  0.00    +0.000 C 
BRANCH  16  17
ATOM     17  C   UNL     1       1.175   3.653  20.515  0.00  0.00    +0.000 C 
BRANCH  17  18
ATOM     18  O   UNL     1       0.717   3.951  19.188  0.00  0.00    +0.000 OA
ATOM     19  H   UNL     1       0.594   3.090  18.746  0.00  0.00    +0.000 HD
ENDBRANCH  17  18
BRANCH  17  20
ATOM     20  C   UNL     1       1.901   2.293  20.497  0.00  0.00    +0.000 C 
BRANCH  20  21
ATOM     21  N   UNL     1       1.950   1.716  19.154  0.00  0.00    +0.000 NA
ATOM     22  H   UNL     1       1.339   2.252  18.534  0.00  0.00    +0.000 HD
BRANCH  21  23
ATOM     23  C   UNL     1       3.297   1.668  18.573  0.00  0.00    +0.000 C 
ATOM     24  C   UNL     1       3.495   2.673  17.437  0.00  0.00    +0.000 C 
ATOM     25  C   UNL     1       4.292   1.969  19.698  0.00  0.00    +0.000 C 
ENDBRANCH  21  23
ENDBRANCH  20  21
ENDBRANCH  17  20
ENDBRANCH  16  17
ENDBRANCH  15  16
ENDBRANCH   4  15
TORSDOF 10
ENDMDL
MODEL 8
REMARK VINA RESULT:      -6.3      2.273      3.207
REMARK  Name = 
REMARK  13 active torsions:
REMARK  status: ('A' for Active; 'I' for Inactive)
REMARK    1  A    between atoms: C_1  and  C_2
REMARK    2  A    between atoms: C_2  and  C_3
REMARK    3  A    between atoms: N_5  and  C_6
REMARK    4  A    between atoms: C_6  and  C_7
REMARK    5  A    between atoms: C_10  and  O_11
REMARK    6  A    between atoms: O_11  and  C_12
REMARK    7  A    between atoms: C_12  and  C_13
REMARK    8  A    between atoms: C_13  and  O_14
REMARK    9  A    between atoms: C_13  and  C_15
REMARK   10  A    between atoms: C_15  and  N_16
REMARK   11  A    between atoms: N_16  and  C_17
REMARK   12  A    between atoms: C_17  and  C_18
REMARK   13  A    between atoms: C_17  and  C_19
REMARK                            x       y       z     vdW  Elec       q    Type
REMARK                         _______ _______ _______ _____ _____    ______ ____
ROOT
ATOM      1  C   UNL     1       4.905   6.205  17.284  0.00  0.00    +0.000 A 
ATOM      2  C   UNL     1       5.229   5.222  18.220  0.00  0.00    +0.000 A 
ATOM      3  C   UNL     1       4.454   5.066  19.371  0.00  0.00    +0.000 A 
ATOM      4  C   UNL     1       3.325   5.868  19.607  0.00  0.00    +0.000 A 
ATOM      5  C   UNL     1       3.013   6.872  18.681  0.00  0.00    +0.000 A 
ATOM      6 CL   UNL     1       1.750   8.037  18.870  0.00  0.00    +0.000 Cl
ATOM      7  C   UNL     1       3.790   7.021  17.521  0.00  0.00    +0.000 A 
ENDROOT
BRANCH   1   8
ATOM      8  C   UNL     1       5.727   6.387  16.039  0.00  0.00    +0.000 C 
BRANCH   8  11
ATOM      9  C   UNL     1       6.668   4.843  14.403  0.00  0.00    +0.000 C 
ATOM     10  O   UNL     1       7.765   5.385  14.460  0.00  0.00    +0.000 OA
ATOM     11  N   UNL     1       5.588   5.265  15.143  0.00  0.00    +0.000 N 
ATOM     12  H   UNL     1       4.703   4.780  15.082  0.00  0.00    +0.000 HD
BRANCH   9  14
ATOM     13  C   UNL     1       5.134   3.882  12.662  0.00  0.00    +0.000 C 
ATOM     14  C   UNL     1       6.367   3.649  13.520  0.00  0.00    +0.000 C 
ENDBRANCH   9  14
ENDBRANCH   8  11
ENDBRANCH   1   8
BRANCH   4  15
ATOM     15  O   UNL     1       2.701   5.548  20.782  0.00  0.00    +0.000 OA
BRANCH  15  16
ATOM     16  C   UNL     1       1.391   4.977  20.713  0.00  0.00    +0.000 C 
BRANCH  16  17
ATOM     17  C   UNL     1       1.506   3.454  20.529  0.00  0.00    +0.000 C 
BRANCH  17  18
ATOM     18  O   UNL     1       0.910   2.795  21.657  0.00  0.00    +0.000 OA
ATOM     19  H   UNL     1      -0.046   2.981  21.603  0.00  0.00    +0.000 HD
ENDBRANCH  17  18
BRANCH  17  20
ATOM     20  C   UNL     1       0.828   2.946  19.241  0.00  0.00    +0.000 C 
BRANCH  20  21
ATOM     21  N   UNL     1       1.422   1.696  18.766  0.00  0.00    +0.000 NA
ATOM     22  H   UNL     1       0.683   1.081  18.420  0.00  0.00    +0.000 HD
BRANCH  21  23
ATOM     23  C   UNL     1       2.426   1.876  17.711  0.00  0.00    +0.000 C 
ATOM     24  C   UNL     1       2.416   3.281  17.107  0.00  0.00    +0.000 C 
ATOM     25  C   UNL     1       3.799   1.600  18.332  0.00  0.00    +0.000 C 
ENDBRANCH  21  23
ENDBRANCH  20  21
ENDBRANCH  17  20
ENDBRANCH  16  17
ENDBRANCH  15  16
ENDBRANCH   4  15
TORSDOF 10
ENDMDL
MODEL 9
REMARK VINA RESULT:      -6.2      3.660      5.162
REMARK  Name = 
REMARK  13 active torsions:
REMARK  status: ('A' for Active; 'I' for Inactive)
REMARK    1  A    between atoms: C_1  and  C_2
REMARK    2  A    between atoms: C_2  and  C_3
REMARK    3  A    between atoms: N_5  and  C_6
REMARK    4  A    between atoms: C_6  and  C_7
REMARK    5  A    between atoms: C_10  and  O_11
REMARK    6  A    between atoms: O_11  and  C_12
REMARK    7  A    between atoms: C_12  and  C_13
REMARK    8  A    between atoms: C_13  and  O_14
REMARK    9  A    between atoms: C_13  and  C_15
REMARK   10  A    between atoms: C_15  and  N_16
REMARK   11  A    between atoms: N_16  and  C_17
REMARK   12  A    between atoms: C_17  and  C_18
REMARK   13  A    between atoms: C_17  and  C_19
REMARK                            x       y       z     vdW  Elec       q    Type
REMARK                         _______ _______ _______ _____ _____    ______ ____
ROOT
ATOM      1  C   UNL     1       6.284   4.611  15.841  0.00  0.00    +0.000 A 
ATOM      2  C   UNL     1       4.892   4.538  15.915  0.00  0.00    +0.000 A 
ATOM      3  C   UNL     1       4.232   4.899  17.091  0.00  0.00    +0.000 A 
ATOM      4  C   UNL     1       4.938   5.362  18.213  0.00  0.00    +0.000 A 
ATOM      5  C   UNL     1       6.337   5.412  18.150  0.00  0.00    +0.000 A 
ATOM      6 CL   UNL     1       7.374   5.823  19.470  0.00  0.00    +0.000 Cl
ATOM      7  C   UNL     1       6.997   5.056  16.963  0.00  0.00    +0.000 A 
ENDROOT
BRANCH   1   8
ATOM      8  C   UNL     1       7.013   4.229  14.584  0.00  0.00    +0.000 C 
BRANCH   8  11
ATOM      9  C   UNL     1       6.380   3.450  12.360  0.00  0.00    +0.000 C 
ATOM     10  O   UNL     1       7.225   4.159  11.826  0.00  0.00    +0.000 OA
ATOM     11  N   UNL     1       6.191   3.414  13.722  0.00  0.00    +0.000 N 
ATOM     12  H   UNL     1       5.495   2.802  14.127  0.00  0.00    +0.000 HD
BRANCH   9  14
ATOM     13  C   UNL     1       4.125   3.209  11.282  0.00  0.00    +0.000 C 
ATOM     14  C   UNL     1       5.450   2.532  11.595  0.00  0.00    +0.000 C 
ENDBRANCH   9  14
ENDBRANCH   8  11
ENDBRANCH   1   8
BRANCH   4  15
ATOM     15  O   UNL     1       4.106   5.671  19.255  0.00  0.00    +0.000 OA
BRANCH  15  16
ATOM     16  C   UNL     1       3.247   6.806  19.115  0.00  0.00    +0.000 C 
BRANCH  16  17
ATOM     17  C   UNL     1       2.347   6.925  20.357  0.00  0.00    +0.000 C 
BRANCH  17  18
ATOM     18  O   UNL     1       1.586   8.140  20.276  0.00  0.00    +0.000 OA
ATOM     19  H   UNL     1       0.734   7.897  19.868  0.00  0.00    +0.000 HD
ENDBRANCH  17  18
BRANCH  17  20
ATOM     20  C   UNL     1       1.376   5.739  20.518  0.00  0.00    +0.000 C 
BRANCH  20  21
ATOM     21  N   UNL     1       2.079   4.491  20.812  0.00  0.00    +0.000 NA
ATOM     22  H   UNL     1       2.405   4.508  21.780  0.00  0.00    +0.000 HD
BRANCH  21  23
ATOM     23  C   UNL     1       1.269   3.285  20.603  0.00  0.00    +0.000 C 
ATOM     24  C   UNL     1       1.650   2.521  19.333  0.00  0.00    +0.000 C 
ATOM     25  C   UNL     1       1.472   2.379  21.821  0.00  0.00    +0.000 C 
ENDBRANCH  21  23
ENDBRANCH  20  21
ENDBRANCH  17  20
ENDBRANCH  16  17
ENDBRANCH  15  16
ENDBRANCH   4  15
TORSDOF 10
ENDMDL
