MODEL 1
REMARK VINA RESULT:      -8.7      0.000      0.000
REMARK  Name = 
REMARK  7 active torsions:
REMARK  status: ('A' for Active; 'I' for Inactive)
REMARK    1  A    between atoms: C_1  and  O_2
REMARK    2  A    between atoms: O_2  and  C_3
REMARK    3  A    between atoms: C_6  and  S_7
REMARK    4  A    between atoms: S_7  and  N_10
REMARK    5  A    between atoms: N_10  and  C_11
REMARK    6  A    between atoms: C_11  and  C_12
REMARK    7  A    between atoms: C_15  and  C_16
REMARK                            x       y       z     vdW  Elec       q    Type
REMARK                         _______ _______ _______ _____ _____    ______ ____
ROOT
ATOM      1  C   UNL     1       1.942   4.932  19.510  0.00  0.00    +0.000 A 
ATOM      2  C   UNL     1       1.919   5.345  18.168  0.00  0.00    +0.000 A 
ATOM      3  C   UNL     1       1.921   6.707  17.845  0.00  0.00    +0.000 A 
ATOM      4  C   UNL     1       1.924   7.669  18.860  0.00  0.00    +0.000 A 
ATOM      5  C   UNL     1       1.877   7.255  20.195  0.00  0.00    +0.000 A 
ATOM      6  C   UNL     1       1.930   5.903  20.519  0.00  0.00    +0.000 A 
ENDROOT
BRANCH   4   7
ATOM      7  C   UNL     1       1.846   9.109  18.493  0.00  0.00    +0.000 C 
ATOM      8  O   UNL     1       2.325   9.447  17.411  0.00  0.00    +0.000 OA
ATOM      9  N   UNL     1       1.194  10.000  19.334  0.00  0.00    +0.000 N 
ATOM     10  C   UNL     1       0.840  11.339  18.827  0.00  0.00    +0.000 C 
ATOM     11  C   UNL     1      -0.612  11.716  19.214  0.00  0.00    +0.000 C 
ATOM     12  N   UNL     1      -0.749  11.538  20.666  0.00  0.00    +0.000 N 
ATOM     13  C   UNL     1      -1.600  12.348  21.383  0.00  0.00    +0.000 A 
ATOM     14  C   UNL     1      -1.357  12.547  22.745  0.00  0.00    +0.000 A 
ATOM     15  C   UNL     1      -2.146  13.414  23.483  0.00  0.00    +0.000 A 
ATOM     16  C   UNL     1      -3.188  14.069  22.849  0.00  0.00    +0.000 A 
ATOM     17  C   UNL     1      -3.377  13.828  21.497  0.00  0.00    +0.000 A 
ATOM     18  N   UNL     1      -2.601  13.004  20.760  0.00  0.00    +0.000 NA
ATOM     19  C   UNL     1      -0.487  10.175  21.140  0.00  0.00    +0.000 C 
ATOM     20  C   UNL     1       0.971   9.834  20.783  0.00  0.00    +0.000 C 
ENDBRANCH   4   7
BRANCH   1  21
ATOM     21  C   UNL     1       1.865   3.473  19.889  0.00  0.00    +0.000 C 
BRANCH  21  22
ATOM     22  N   UNL     1       3.081   2.987  20.537  0.00  0.00    +0.000 NA
ATOM     23  H   UNL     1       3.513   3.610  21.215  0.00  0.00    +0.000 HD
BRANCH  22  24
ATOM     24  S   UNL     1       4.217   2.243  19.541  0.00  0.00    +0.000 S 
ATOM     25  O   UNL     1       3.520   1.394  18.603  0.00  0.00    +0.000 OA
ATOM     26  O   UNL     1       5.264   1.742  20.403  0.00  0.00    +0.000 OA
BRANCH  24  30
ATOM     27  C   UNL     1       5.958   5.786  17.242  0.00  0.00    +0.000 A 
ATOM     28  C   UNL     1       6.048   5.735  18.636  0.00  0.00    +0.000 A 
ATOM     29  C   UNL     1       5.522   4.653  19.340  0.00  0.00    +0.000 A 
ATOM     30  C   UNL     1       4.883   3.626  18.642  0.00  0.00    +0.000 A 
ATOM     31  C   UNL     1       4.790   3.664  17.248  0.00  0.00    +0.000 A 
ATOM     32  C   UNL     1       5.318   4.754  16.550  0.00  0.00    +0.000 A 
BRANCH  27  34
ATOM     33  C   UNL     1       7.475   7.587  17.443  0.00  0.00    +0.000 C 
ATOM     34  O   UNL     1       6.496   6.903  16.669  0.00  0.00    +0.000 OA
ENDBRANCH  27  34
ENDBRANCH  24  30
ENDBRANCH  22  24
ENDBRANCH  21  22
ENDBRANCH   1  21
TORSDOF 6
ENDMDL
MODEL 2
REMARK VINA RESULT:      -8.4      3.160      3.710
REMARK  Name = 
REMARK  7 active torsions:
REMARK  status: ('A' for Active; 'I' for Inactive)
REMARK    1  A    between atoms: C_1  and  O_2
REMARK    2  A    between atoms: O_2  and  C_3
REMARK    3  A    between atoms: C_6  and  S_7
REMARK    4  A    between atoms: S_7  and  N_10
REMARK    5  A    between atoms: N_10  and  C_11
REMARK    6  A    between atoms: C_11  and  C_12
REMARK    7  A    between atoms: C_15  and  C_16
REMARK                            x       y       z     vdW  Elec       q    Type
REMARK                         _______ _______ _______ _____ _____    ______ ____
ROOT
ATOM      1  C   UNL     1       2.147   7.370  19.604  0.00  0.00    +0.000 A 
ATOM      2  C   UNL     1       2.153   7.860  18.288  0.00  0.00    +0.000 A 
ATOM      3  C   UNL     1       1.522   9.070  17.980  0.00  0.00    +0.000 A 
ATOM      4  C   UNL     1       0.859   9.792  18.979  0.00  0.00    +0.000 A 
ATOM      5  C   UNL     1       0.797   9.267  20.273  0.00  0.00    +0.000 A 
ATOM      6  C   UNL     1       1.470   8.092  20.594  0.00  0.00    +0.000 A 
ENDROOT
BRANCH   4   7
ATOM      7  C   UNL     1       0.129  11.035  18.610  0.00  0.00    +0.000 C 
ATOM      8  O   UNL     1      -1.011  10.913  18.162  0.00  0.00    +0.000 OA
ATOM      9  N   UNL     1       0.716  12.272  18.836  0.00  0.00    +0.000 N 
ATOM     10  C   UNL     1      -0.119  13.485  18.775  0.00  0.00    +0.000 C 
ATOM     11  C   UNL     1       0.177  14.427  19.970  0.00  0.00    +0.000 C 
ATOM     12  N   UNL     1       1.626  14.663  20.005  0.00  0.00    +0.000 N 
ATOM     13  C   UNL     1       2.118  15.867  20.458  0.00  0.00    +0.000 A 
ATOM     14  C   UNL     1       3.377  16.290  20.021  0.00  0.00    +0.000 A 
ATOM     15  C   UNL     1       3.873  17.528  20.394  0.00  0.00    +0.000 A 
ATOM     16  C   UNL     1       3.104  18.333  21.219  0.00  0.00    +0.000 A 
ATOM     17  C   UNL     1       1.866  17.854  21.618  0.00  0.00    +0.000 A 
ATOM     18  N   UNL     1       1.360  16.660  21.242  0.00  0.00    +0.000 NA
ATOM     19  C   UNL     1       2.437  13.452  20.164  0.00  0.00    +0.000 C 
ATOM     20  C   UNL     1       2.161  12.548  18.949  0.00  0.00    +0.000 C 
ENDBRANCH   4   7
BRANCH   1  21
ATOM     21  C   UNL     1       2.756   6.034  19.951  0.00  0.00    +0.000 C 
BRANCH  21  22
ATOM     22  N   UNL     1       2.368   4.971  19.027  0.00  0.00    +0.000 NA
ATOM     23  H   UNL     1       1.501   4.482  19.236  0.00  0.00    +0.000 HD
BRANCH  22  24
ATOM     24  S   UNL     1       3.590   3.921  18.537  0.00  0.00    +0.000 S 
ATOM     25  O   UNL     1       3.164   3.249  17.331  0.00  0.00    +0.000 OA
ATOM     26  O   UNL     1       4.014   3.195  19.713  0.00  0.00    +0.000 OA
BRANCH  24  30
ATOM     27  C   UNL     1       6.926   6.841  17.438  0.00  0.00    +0.000 A 
ATOM     28  C   UNL     1       5.780   6.746  16.643  0.00  0.00    +0.000 A 
ATOM     29  C   UNL     1       4.759   5.859  16.978  0.00  0.00    +0.000 A 
ATOM     30  C   UNL     1       4.897   5.048  18.106  0.00  0.00    +0.000 A 
ATOM     31  C   UNL     1       6.037   5.137  18.911  0.00  0.00    +0.000 A 
ATOM     32  C   UNL     1       7.058   6.027  18.567  0.00  0.00    +0.000 A 
BRANCH  27  34
ATOM     33  C   UNL     1       8.117   8.839  17.856  0.00  0.00    +0.000 C 
ATOM     34  O   UNL     1       7.863   7.733  16.997  0.00  0.00    +0.000 OA
ENDBRANCH  27  34
ENDBRANCH  24  30
ENDBRANCH  22  24
ENDBRANCH  21  22
ENDBRANCH   1  21
TORSDOF 6
ENDMDL
MODEL 3
REMARK VINA RESULT:      -8.3      1.067      1.437
REMARK  Name = 
REMARK  7 active torsions:
REMARK  status: ('A' for Active; 'I' for Inactive)
REMARK    1  A    between atoms: C_1  and  O_2
REMARK    2  A    between atoms: O_2  and  C_3
REMARK    3  A    between atoms: C_6  and  S_7
REMARK    4  A    between atoms: S_7  and  N_10
REMARK    5  A    between atoms: N_10  and  C_11
REMARK    6  A    between atoms: C_11  and  C_12
REMARK    7  A    between atoms: C_15  and  C_16
REMARK                            x       y       z     vdW  Elec       q    Type
REMARK                         _______ _______ _______ _____ _____    ______ ____
ROOT
ATOM      1  C   UNL     1       2.303   6.184  19.877  0.00  0.00    +0.000 A 
ATOM      2  C   UNL     1       2.673   6.700  18.625  0.00  0.00    +0.000 A 
ATOM      3  C   UNL     1       2.398   8.032  18.297  0.00  0.00    +0.000 A 
ATOM      4  C   UNL     1       1.731   8.857  19.210  0.00  0.00    +0.000 A 
ATOM      5  C   UNL     1       1.303   8.321  20.428  0.00  0.00    +0.000 A 
ATOM      6  C   UNL     1       1.623   7.012  20.778  0.00  0.00    +0.000 A 
ENDROOT
BRANCH   4   7
ATOM      7  C   UNL     1       1.380  10.246  18.808  0.00  0.00    +0.000 C 
ATOM      8  O   UNL     1       1.670  10.598  17.665  0.00  0.00    +0.000 OA
ATOM      9  N   UNL     1       0.694  11.066  19.694  0.00  0.00    +0.000 N 
ATOM     10  C   UNL     1       0.073  12.305  19.191  0.00  0.00    +0.000 C 
ATOM     11  C   UNL     1      -1.367  12.469  19.740  0.00  0.00    +0.000 C 
ATOM     12  N   UNL     1      -1.304  12.347  21.202  0.00  0.00    +0.000 N 
ATOM     13  C   UNL     1      -2.187  13.050  21.992  0.00  0.00    +0.000 A 
ATOM     14  C   UNL     1      -1.823  13.354  23.307  0.00  0.00    +0.000 A 
ATOM     15  C   UNL     1      -2.651  14.124  24.107  0.00  0.00    +0.000 A 
ATOM     16  C   UNL     1      -3.852  14.574  23.585  0.00  0.00    +0.000 A 
ATOM     17  C   UNL     1      -4.154  14.237  22.274  0.00  0.00    +0.000 A 
ATOM     18  N   UNL     1      -3.346  13.509  21.475  0.00  0.00    +0.000 NA
ATOM     19  C   UNL     1      -0.773  11.069  21.685  0.00  0.00    +0.000 C 
ATOM     20  C   UNL     1       0.670  10.941  21.164  0.00  0.00    +0.000 C 
ENDBRANCH   4   7
BRANCH   1  21
ATOM     21  C   UNL     1       2.521   4.733  20.228  0.00  0.00    +0.000 C 
BRANCH  21  22
ATOM     22  N   UNL     1       2.529   3.856  19.060  0.00  0.00    +0.000 NA
ATOM     23  H   UNL     1       1.683   3.316  18.892  0.00  0.00    +0.000 HD
BRANCH  22  24
ATOM     24  S   UNL     1       3.925   2.946  18.814  0.00  0.00    +0.000 S 
ATOM     25  O   UNL     1       3.687   2.021  17.731  0.00  0.00    +0.000 OA
ATOM     26  O   UNL     1       4.372   2.507  20.117  0.00  0.00    +0.000 OA
BRANCH  24  30
ATOM     27  C   UNL     1       6.851   6.131  17.346  0.00  0.00    +0.000 A 
ATOM     28  C   UNL     1       5.941   5.546  16.461  0.00  0.00    +0.000 A 
ATOM     29  C   UNL     1       5.044   4.577  16.907  0.00  0.00    +0.000 A 
ATOM     30  C   UNL     1       5.074   4.179  18.245  0.00  0.00    +0.000 A 
ATOM     31  C   UNL     1       5.978   4.760  19.140  0.00  0.00    +0.000 A 
ATOM     32  C   UNL     1       6.876   5.728  18.684  0.00  0.00    +0.000 A 
BRANCH  27  34
ATOM     33  C   UNL     1       7.877   8.252  17.532  0.00  0.00    +0.000 C 
ATOM     34  O   UNL     1       7.689   7.055  16.787  0.00  0.00    +0.000 OA
ENDBRANCH  27  34
ENDBRANCH  24  30
ENDBRANCH  22  24
ENDBRANCH  21  22
ENDBRANCH   1  21
TORSDOF 6
ENDMDL
MODEL 4
REMARK VINA RESULT:      -8.3      2.012      2.847
REMARK  Name = 
REMARK  7 active torsions:
REMARK  status: ('A' for Active; 'I' for Inactive)
REMARK    1  A    between atoms: C_1  and  O_2
REMARK    2  A    between atoms: O_2  and  C_3
REMARK    3  A    between atoms: C_6  and  S_7
REMARK    4  A    between atoms: S_7  and  N_10
REMARK    5  A    between atoms: N_10  and  C_11
REMARK    6  A    between atoms: C_11  and  C_12
REMARK    7  A    between atoms: C_15  and  C_16
REMARK                            x       y       z     vdW  Elec       q    Type
REMARK                         _______ _______ _______ _____ _____    ______ ____
ROOT
ATOM      1  C   UNL     1       2.303   7.205  19.761  0.00  0.00    +0.000 A 
ATOM      2  C   UNL     1       2.356   7.807  18.494  0.00  0.00    +0.000 A 
ATOM      3  C   UNL     1       1.607   8.957  18.223  0.00  0.00    +0.000 A 
ATOM      4  C   UNL     1       0.780   9.505  19.210  0.00  0.00    +0.000 A 
ATOM      5  C   UNL     1       0.676   8.864  20.448  0.00  0.00    +0.000 A 
ATOM      6  C   UNL     1       1.462   7.752  20.737  0.00  0.00    +0.000 A 
ENDROOT
BRANCH   4   7
ATOM      7  C   UNL     1      -0.066  10.682  18.874  0.00  0.00    +0.000 C 
ATOM      8  O   UNL     1      -0.497  10.763  17.724  0.00  0.00    +0.000 OA
ATOM      9  N   UNL     1      -0.391  11.602  19.861  0.00  0.00    +0.000 N 
ATOM     10  C   UNL     1      -1.473  12.571  19.612  0.00  0.00    +0.000 C 
ATOM     11  C   UNL     1      -2.423  12.674  20.833  0.00  0.00    +0.000 C 
ATOM     12  N   UNL     1      -1.599  12.943  22.018  0.00  0.00    +0.000 N 
ATOM     13  C   UNL     1      -2.104  13.699  23.053  0.00  0.00    +0.000 A 
ATOM     14  C   UNL     1      -1.216  14.379  23.890  0.00  0.00    +0.000 A 
ATOM     15  C   UNL     1      -1.688  15.209  24.893  0.00  0.00    +0.000 A 
ATOM     16  C   UNL     1      -3.057  15.341  25.060  0.00  0.00    +0.000 A 
ATOM     17  C   UNL     1      -3.884  14.639  24.197  0.00  0.00    +0.000 A 
ATOM     18  N   UNL     1      -3.438  13.846  23.200  0.00  0.00    +0.000 NA
ATOM     19  C   UNL     1      -0.591  11.918  22.306  0.00  0.00    +0.000 C 
ATOM     20  C   UNL     1       0.366  11.859  21.102  0.00  0.00    +0.000 C 
ENDBRANCH   4   7
BRANCH   1  21
ATOM     21  C   UNL     1       3.042   5.923  20.058  0.00  0.00    +0.000 C 
BRANCH  21  22
ATOM     22  N   UNL     1       3.585   5.286  18.861  0.00  0.00    +0.000 NA
ATOM     23  H   UNL     1       2.948   4.694  18.333  0.00  0.00    +0.000 HD
BRANCH  22  24
ATOM     24  S   UNL     1       5.117   4.600  19.006  0.00  0.00    +0.000 S 
ATOM     25  O   UNL     1       4.970   3.231  19.441  0.00  0.00    +0.000 OA
ATOM     26  O   UNL     1       5.935   5.552  19.724  0.00  0.00    +0.000 OA
BRANCH  24  30
ATOM     27  C   UNL     1       6.539   4.590  14.665  0.00  0.00    +0.000 A 
ATOM     28  C   UNL     1       5.176   4.512  14.962  0.00  0.00    +0.000 A 
ATOM     29  C   UNL     1       4.738   4.519  16.285  0.00  0.00    +0.000 A 
ATOM     30  C   UNL     1       5.676   4.585  17.317  0.00  0.00    +0.000 A 
ATOM     31  C   UNL     1       7.043   4.668  17.032  0.00  0.00    +0.000 A 
ATOM     32  C   UNL     1       7.473   4.657  15.703  0.00  0.00    +0.000 A 
BRANCH  27  34
ATOM     33  C   UNL     1       6.371   3.422  12.617  0.00  0.00    +0.000 C 
ATOM     34  O   UNL     1       6.844   4.558  13.333  0.00  0.00    +0.000 OA
ENDBRANCH  27  34
ENDBRANCH  24  30
ENDBRANCH  22  24
ENDBRANCH  21  22
ENDBRANCH   1  21
TORSDOF 6
ENDMDL
MODEL 5
REMARK VINA RESULT:      -8.3      2.983      3.426
REMARK  Name = 
REMARK  7 active torsions:
REMARK  status: ('A' for Active; 'I' for Inactive)
REMARK    1  A    between atoms: C_1  and  O_2
REMARK    2  A    between atoms: O_2  and  C_3
REMARK    3  A    between atoms: C_6  and  S_7
REMARK    4  A    between atoms: S_7  and  N_10
REMARK    5  A    between atoms: N_10  and  C_11
REMARK    6  A    between atoms: C_11  and  C_12
REMARK    7  A    between atoms: C_15  and  C_16
REMARK                            x       y       z     vdW  Elec       q    Type
REMARK                         _______ _______ _______ _____ _____    ______ ____
ROOT
ATOM      1  C   UNL     1       2.841   7.186  19.101  0.00  0.00    +0.000 A 
ATOM      2  C   UNL     1       2.761   7.829  17.856  0.00  0.00    +0.000 A 
ATOM      3  C   UNL     1       1.902   8.919  17.675  0.00  0.00    +0.000 A 
ATOM      4  C   UNL     1       1.099   9.363  18.731  0.00  0.00    +0.000 A 
ATOM      5  C   UNL     1       1.130   8.677  19.949  0.00  0.00    +0.000 A 
ATOM      6  C   UNL     1       2.023   7.628  20.148  0.00  0.00    +0.000 A 
ENDROOT
BRANCH   4   7
ATOM      7  C   UNL     1       0.136  10.472  18.491  0.00  0.00    +0.000 C 
ATOM      8  O   UNL     1      -1.009  10.170  18.157  0.00  0.00    +0.000 OA
ATOM      9  N   UNL     1       0.531  11.785  18.708  0.00  0.00    +0.000 N 
ATOM     10  C   UNL     1      -0.496  12.841  18.783  0.00  0.00    +0.000 C 
ATOM     11  C   UNL     1      -0.233  13.790  19.980  0.00  0.00    +0.000 C 
ATOM     12  N   UNL     1       1.152  14.267  19.877  0.00  0.00    +0.000 N 
ATOM     13  C   UNL     1       1.483  15.525  20.328  0.00  0.00    +0.000 A 
ATOM     14  C   UNL     1       2.599  16.166  19.784  0.00  0.00    +0.000 A 
ATOM     15  C   UNL     1       2.920  17.461  20.155  0.00  0.00    +0.000 A 
ATOM     16  C   UNL     1       2.122  18.104  21.087  0.00  0.00    +0.000 A 
ATOM     17  C   UNL     1       1.031  17.413  21.590  0.00  0.00    +0.000 A 
ATOM     18  N   UNL     1       0.692  16.160  21.218  0.00  0.00    +0.000 NA
ATOM     19  C   UNL     1       2.165  13.208  19.902  0.00  0.00    +0.000 C 
ATOM     20  C   UNL     1       1.914  12.299  18.684  0.00  0.00    +0.000 C 
ENDBRANCH   4   7
BRANCH   1  21
ATOM     21  C   UNL     1       3.703   5.963  19.304  0.00  0.00    +0.000 C 
BRANCH  21  22
ATOM     22  N   UNL     1       3.052   4.727  18.877  0.00  0.00    +0.000 NA
ATOM     23  H   UNL     1       2.206   4.464  19.378  0.00  0.00    +0.000 HD
BRANCH  22  24
ATOM     24  S   UNL     1       4.059   3.408  18.593  0.00  0.00    +0.000 S 
ATOM     25  O   UNL     1       3.273   2.345  18.010  0.00  0.00    +0.000 OA
ATOM     26  O   UNL     1       4.845   3.216  19.791  0.00  0.00    +0.000 OA
BRANCH  24  30
ATOM     27  C   UNL     1       6.875   4.999  15.368  0.00  0.00    +0.000 A 
ATOM     28  C   UNL     1       7.352   4.737  16.655  0.00  0.00    +0.000 A 
ATOM     29  C   UNL     1       6.496   4.248  17.640  0.00  0.00    +0.000 A 
ATOM     30  C   UNL     1       5.149   4.039  17.337  0.00  0.00    +0.000 A 
ATOM     31  C   UNL     1       4.662   4.294  16.051  0.00  0.00    +0.000 A 
ATOM     32  C   UNL     1       5.526   4.787  15.070  0.00  0.00    +0.000 A 
BRANCH  27  34
ATOM     33  C   UNL     1       7.651   5.097  13.137  0.00  0.00    +0.000 C 
ATOM     34  O   UNL     1       7.806   5.492  14.496  0.00  0.00    +0.000 OA
ENDBRANCH  27  34
ENDBRANCH  24  30
ENDBRANCH  22  24
ENDBRANCH  21  22
ENDBRANCH   1  21
TORSDOF 6
ENDMDL
MODEL 6
REMARK VINA RESULT:      -8.2      1.136      1.507
REMARK  Name = 
REMARK  7 active torsions:
REMARK  status: ('A' for Active; 'I' for Inactive)
REMARK    1  A    between atoms: C_1  and  O_2
REMARK    2  A    between atoms: O_2  and  C_3
REMARK    3  A    between atoms: C_6  and  S_7
REMARK    4  A    between atoms: S_7  and  N_10
REMARK    5  A    between atoms: N_10  and  C_11
REMARK    6  A    between atoms: C_11  and  C_12
REMARK    7  A    between atoms: C_15  and  C_16
REMARK                            x       y       z     vdW  Elec       q    Type
REMARK                         _______ _______ _______ _____ _____    ______ ____
ROOT
ATOM      1  C   UNL     1       2.348   6.327  19.812  0.00  0.00    +0.000 A 
ATOM      2  C   UNL     1       1.692   7.166  20.726  0.00  0.00    +0.000 A 
ATOM      3  C   UNL     1       1.340   8.471  20.364  0.00  0.00    +0.000 A 
ATOM      4  C   UNL     1       1.658   8.957  19.092  0.00  0.00    +0.000 A 
ATOM      5  C   UNL     1       2.373   8.142  18.208  0.00  0.00    +0.000 A 
ATOM      6  C   UNL     1       2.675   6.826  18.546  0.00  0.00    +0.000 A 
ENDROOT
BRANCH   4   7
ATOM      7  C   UNL     1       1.344  10.373  18.758  0.00  0.00    +0.000 C 
ATOM      8  O   UNL     1       1.665  10.779  17.642  0.00  0.00    +0.000 OA
ATOM      9  N   UNL     1       0.657  11.160  19.672  0.00  0.00    +0.000 N 
ATOM     10  C   UNL     1       0.072  12.436  19.223  0.00  0.00    +0.000 C 
ATOM     11  C   UNL     1      -1.376  12.602  19.751  0.00  0.00    +0.000 C 
ATOM     12  N   UNL     1      -1.347  12.402  21.206  0.00  0.00    +0.000 N 
ATOM     13  C   UNL     1      -2.231  13.081  22.014  0.00  0.00    +0.000 A 
ATOM     14  C   UNL     1      -1.890  13.307  23.350  0.00  0.00    +0.000 A 
ATOM     15  C   UNL     1      -2.718  14.052  24.173  0.00  0.00    +0.000 A 
ATOM     16  C   UNL     1      -3.898  14.555  23.652  0.00  0.00    +0.000 A 
ATOM     17  C   UNL     1      -4.179  14.294  22.319  0.00  0.00    +0.000 A 
ATOM     18  N   UNL     1      -3.369  13.591  21.499  0.00  0.00    +0.000 NA
ATOM     19  C   UNL     1      -0.852  11.089  21.630  0.00  0.00    +0.000 C 
ATOM     20  C   UNL     1       0.599  10.958  21.132  0.00  0.00    +0.000 C 
ENDBRANCH   4   7
BRANCH   1  21
ATOM     21  C   UNL     1       2.805   4.941  20.200  0.00  0.00    +0.000 C 
BRANCH  21  22
ATOM     22  N   UNL     1       2.690   3.976  19.109  0.00  0.00    +0.000 NA
ATOM     23  H   UNL     1       1.846   3.408  19.094  0.00  0.00    +0.000 HD
BRANCH  22  24
ATOM     24  S   UNL     1       4.069   3.075  18.756  0.00  0.00    +0.000 S 
ATOM     25  O   UNL     1       3.755   2.151  17.691  0.00  0.00    +0.000 OA
ATOM     26  O   UNL     1       4.616   2.635  20.020  0.00  0.00    +0.000 OA
BRANCH  24  30
ATOM     27  C   UNL     1       6.907   6.241  17.086  0.00  0.00    +0.000 A 
ATOM     28  C   UNL     1       6.979   5.866  18.431  0.00  0.00    +0.000 A 
ATOM     29  C   UNL     1       6.117   4.898  18.943  0.00  0.00    +0.000 A 
ATOM     30  C   UNL     1       5.164   4.316  18.104  0.00  0.00    +0.000 A 
ATOM     31  C   UNL     1       5.085   4.680  16.756  0.00  0.00    +0.000 A 
ATOM     32  C   UNL     1       5.951   5.654  16.252  0.00  0.00    +0.000 A 
BRANCH  27  34
ATOM     33  C   UNL     1       7.813   8.380  17.520  0.00  0.00    +0.000 C 
ATOM     34  O   UNL     1       7.792   7.211  16.709  0.00  0.00    +0.000 OA
ENDBRANCH  27  34
ENDBRANCH  24  30
ENDBRANCH  22  24
ENDBRANCH  21  22
ENDBRANCH   1  21
TORSDOF 6
ENDMDL
MODEL 7
REMARK VINA RESULT:      -8.2      2.607      3.338
REMARK  Name = 
REMARK  7 active torsions:
REMARK  status: ('A' for Active; 'I' for Inactive)
REMARK    1  A    between atoms: C_1  and  O_2
REMARK    2  A    between atoms: O_2  and  C_3
REMARK    3  A    between atoms: C_6  and  S_7
REMARK    4  A    between atoms: S_7  and  N_10
REMARK    5  A    between atoms: N_10  and  C_11
REMARK    6  A    between atoms: C_11  and  C_12
REMARK    7  A    between atoms: C_15  and  C_16
REMARK                            x       y       z     vdW  Elec       q    Type
REMARK                         _______ _______ _______ _____ _____    ______ ____
ROOT
ATOM      1  C   UNL     1       2.488   6.637  19.426  0.00  0.00    +0.000 A 
ATOM      2  C   UNL     1       1.908   7.400  20.451  0.00  0.00    +0.000 A 
ATOM      3  C   UNL     1       1.423   8.686  20.190  0.00  0.00    +0.000 A 
ATOM      4  C   UNL     1       1.532   9.231  18.906  0.00  0.00    +0.000 A 
ATOM      5  C   UNL     1       2.172   8.495  17.904  0.00  0.00    +0.000 A 
ATOM      6  C   UNL     1       2.605   7.195  18.147  0.00  0.00    +0.000 A 
ENDROOT
BRANCH   4   7
ATOM      7  C   UNL     1       1.081  10.630  18.672  0.00  0.00    +0.000 C 
ATOM      8  O   UNL     1       1.933  11.455  18.347  0.00  0.00    +0.000 OA
ATOM      9  N   UNL     1      -0.268  10.943  18.764  0.00  0.00    +0.000 N 
ATOM     10  C   UNL     1      -0.745  12.230  18.226  0.00  0.00    +0.000 C 
ATOM     11  C   UNL     1      -2.038  12.041  17.392  0.00  0.00    +0.000 C 
ATOM     12  N   UNL     1      -3.004  11.312  18.225  0.00  0.00    +0.000 N 
ATOM     13  C   UNL     1      -4.353  11.546  18.081  0.00  0.00    +0.000 A 
ATOM     14  C   UNL     1      -5.203  11.286  19.160  0.00  0.00    +0.000 A 
ATOM     15  C   UNL     1      -6.554  11.580  19.080  0.00  0.00    +0.000 A 
ATOM     16  C   UNL     1      -7.049  12.123  17.906  0.00  0.00    +0.000 A 
ATOM     17  C   UNL     1      -6.155  12.356  16.873  0.00  0.00    +0.000 A 
ATOM     18  N   UNL     1      -4.832  12.097  16.946  0.00  0.00    +0.000 NA
ATOM     19  C   UNL     1      -2.549   9.991  18.671  0.00  0.00    +0.000 C 
ATOM     20  C   UNL     1      -1.289  10.202  19.530  0.00  0.00    +0.000 C 
ENDBRANCH   4   7
BRANCH   1  21
ATOM     21  C   UNL     1       3.085   5.277  19.695  0.00  0.00    +0.000 C 
BRANCH  21  22
ATOM     22  N   UNL     1       2.965   4.365  18.560  0.00  0.00    +0.000 NA
ATOM     23  H   UNL     1       2.032   4.010  18.361  0.00  0.00    +0.000 HD
BRANCH  22  24
ATOM     24  S   UNL     1       4.143   3.168  18.430  0.00  0.00    +0.000 S 
ATOM     25  O   UNL     1       3.548   1.999  17.826  0.00  0.00    +0.000 OA
ATOM     26  O   UNL     1       4.824   3.114  19.704  0.00  0.00    +0.000 OA
BRANCH  24  30
ATOM     27  C   UNL     1       7.011   5.023  15.397  0.00  0.00    +0.000 A 
ATOM     28  C   UNL     1       5.980   4.180  14.971  0.00  0.00    +0.000 A 
ATOM     29  C   UNL     1       5.101   3.616  15.894  0.00  0.00    +0.000 A 
ATOM     30  C   UNL     1       5.269   3.884  17.254  0.00  0.00    +0.000 A 
ATOM     31  C   UNL     1       6.294   4.729  17.691  0.00  0.00    +0.000 A 
ATOM     32  C   UNL     1       7.173   5.288  16.760  0.00  0.00    +0.000 A 
BRANCH  27  34
ATOM     33  C   UNL     1       7.524   5.030  13.090  0.00  0.00    +0.000 C 
ATOM     34  O   UNL     1       7.816   5.500  14.401  0.00  0.00    +0.000 OA
ENDBRANCH  27  34
ENDBRANCH  24  30
ENDBRANCH  22  24
ENDBRANCH  21  22
ENDBRANCH   1  21
TORSDOF 6
ENDMDL
MODEL 8
REMARK VINA RESULT:      -8.2      2.244      3.324
REMARK  Name = 
REMARK  7 active torsions:
REMARK  status: ('A' for Active; 'I' for Inactive)
REMARK    1  A    between atoms: C_1  and  O_2
REMARK    2  A    between atoms: O_2  and  C_3
REMARK    3  A    between atoms: C_6  and  S_7
REMARK    4  A    between atoms: S_7  and  N_10
REMARK    5  A    between atoms: N_10  and  C_11
REMARK    6  A    between atoms: C_11  and  C_12
REMARK    7  A    between atoms: C_15  and  C_16
REMARK                            x       y       z     vdW  Elec       q    Type
REMARK                         _______ _______ _______ _____ _____    ______ ____
ROOT
ATOM      1  C   UNL     1       1.845   8.307  19.068  0.00  0.00    +0.000 A 
ATOM      2  C   UNL     1       1.465   9.044  17.936  0.00  0.00    +0.000 A 
ATOM      3  C   UNL     1       0.424   9.977  18.014  0.00  0.00    +0.000 A 
ATOM      4  C   UNL     1      -0.261  10.166  19.219  0.00  0.00    +0.000 A 
ATOM      5  C   UNL     1       0.075   9.380  20.326  0.00  0.00    +0.000 A 
ATOM      6  C   UNL     1       1.145   8.492  20.266  0.00  0.00    +0.000 A 
ENDROOT
BRANCH   4   7
ATOM      7  C   UNL     1      -1.414  11.105  19.256  0.00  0.00    +0.000 C 
ATOM      8  O   UNL     1      -2.351  10.886  18.489  0.00  0.00    +0.000 OA
ATOM      9  N   UNL     1      -1.429  12.141  20.179  0.00  0.00    +0.000 N 
ATOM     10  C   UNL     1      -2.691  12.861  20.431  0.00  0.00    +0.000 C 
ATOM     11  C   UNL     1      -2.927  13.057  21.950  0.00  0.00    +0.000 C 
ATOM     12  N   UNL     1      -1.724  13.683  22.513  0.00  0.00    +0.000 N 
ATOM     13  C   UNL     1      -1.830  14.542  23.584  0.00  0.00    +0.000 A 
ATOM     14  C   UNL     1      -0.837  15.507  23.778  0.00  0.00    +0.000 A 
ATOM     15  C   UNL     1      -0.947  16.437  24.798  0.00  0.00    +0.000 A 
ATOM     16  C   UNL     1      -2.053  16.385  25.631  0.00  0.00    +0.000 A 
ATOM     17  C   UNL     1      -3.001  15.404  25.386  0.00  0.00    +0.000 A 
ATOM     18  N   UNL     1      -2.919  14.506  24.380  0.00  0.00    +0.000 NA
ATOM     19  C   UNL     1      -0.493  12.906  22.337  0.00  0.00    +0.000 C 
ATOM     20  C   UNL     1      -0.253  12.757  20.824  0.00  0.00    +0.000 C 
ENDBRANCH   4   7
BRANCH   1  21
ATOM     21  C   UNL     1       2.913   7.243  18.996  0.00  0.00    +0.000 C 
BRANCH  21  22
ATOM     22  N   UNL     1       2.747   6.197  20.002  0.00  0.00    +0.000 NA
ATOM     23  H   UNL     1       3.274   6.311  20.865  0.00  0.00    +0.000 HD
BRANCH  22  24
ATOM     24  S   UNL     1       2.777   4.608  19.444  0.00  0.00    +0.000 S 
ATOM     25  O   UNL     1       1.616   4.390  18.612  0.00  0.00    +0.000 OA
ATOM     26  O   UNL     1       3.074   3.770  20.584  0.00  0.00    +0.000 OA
BRANCH  24  30
ATOM     27  C   UNL     1       6.456   4.642  16.738  0.00  0.00    +0.000 A 
ATOM     28  C   UNL     1       5.176   4.530  16.188  0.00  0.00    +0.000 A 
ATOM     29  C   UNL     1       4.051   4.523  17.011  0.00  0.00    +0.000 A 
ATOM     30  C   UNL     1       4.213   4.610  18.395  0.00  0.00    +0.000 A 
ATOM     31  C   UNL     1       5.489   4.727  18.956  0.00  0.00    +0.000 A 
ATOM     32  C   UNL     1       6.611   4.730  18.124  0.00  0.00    +0.000 A 
BRANCH  27  34
ATOM     33  C   UNL     1       7.097   4.740  14.465  0.00  0.00    +0.000 C 
ATOM     34  O   UNL     1       7.478   4.620  15.831  0.00  0.00    +0.000 OA
ENDBRANCH  27  34
ENDBRANCH  24  30
ENDBRANCH  22  24
ENDBRANCH  21  22
ENDBRANCH   1  21
TORSDOF 6
ENDMDL
MODEL 9
REMARK VINA RESULT:      -8.2      3.380      4.010
REMARK  Name = 
REMARK  7 active torsions:
REMARK  status: ('A' for Active; 'I' for Inactive)
REMARK    1  A    between atoms: C_1  and  O_2
REMARK    2  A    between atoms: O_2  and  C_3
REMARK    3  A    between atoms: C_6  and  S_7
REMARK    4  A    between atoms: S_7  and  N_10
REMARK    5  A    between atoms: N_10  and  C_11
REMARK    6  A    between atoms: C_11  and  C_12
REMARK    7  A    between atoms: C_15  and  C_16
REMARK                            x       y       z     vdW  Elec       q    Type
REMARK                         _______ _______ _______ _____ _____    ______ ____
ROOT
ATOM      1  C   UNL     1       2.352   7.404  19.345  0.00  0.00    +0.000 A 
ATOM      2  C   UNL     1       2.243   7.991  18.075  0.00  0.00    +0.000 A 
ATOM      3  C   UNL     1       1.505   9.166  17.897  0.00  0.00    +0.000 A 
ATOM      4  C   UNL     1       0.849   9.755  18.984  0.00  0.00    +0.000 A 
ATOM      5  C   UNL     1       0.902   9.130  20.234  0.00  0.00    +0.000 A 
ATOM      6  C   UNL     1       1.681   7.992  20.424  0.00  0.00    +0.000 A 
ENDROOT
BRANCH   4   7
ATOM      7  C   UNL     1       0.006  10.959  18.755  0.00  0.00    +0.000 C 
ATOM      8  O   UNL     1      -1.165  10.779  18.424  0.00  0.00    +0.000 OA
ATOM      9  N   UNL     1       0.535  12.223  18.978  0.00  0.00    +0.000 N 
ATOM     10  C   UNL     1      -0.377  13.378  19.064  0.00  0.00    +0.000 C 
ATOM     11  C   UNL     1      -0.014  14.287  20.265  0.00  0.00    +0.000 C 
ATOM     12  N   UNL     1       1.412  14.620  20.160  0.00  0.00    +0.000 N 
ATOM     13  C   UNL     1       1.874  15.834  20.617  0.00  0.00    +0.000 A 
ATOM     14  C   UNL     1       3.048  16.360  20.072  0.00  0.00    +0.000 A 
ATOM     15  C   UNL     1       3.502  17.612  20.450  0.00  0.00    +0.000 A 
ATOM     16  C   UNL     1       2.778  18.327  21.389  0.00  0.00    +0.000 A 
ATOM     17  C   UNL     1       1.623  17.750  21.892  0.00  0.00    +0.000 A 
ATOM     18  N   UNL     1       1.155  16.541  21.514  0.00  0.00    +0.000 NA
ATOM     19  C   UNL     1       2.311  13.461  20.174  0.00  0.00    +0.000 C 
ATOM     20  C   UNL     1       1.964  12.591  18.952  0.00  0.00    +0.000 C 
ENDBRANCH   4   7
BRANCH   1  21
ATOM     21  C   UNL     1       3.079   6.098  19.552  0.00  0.00    +0.000 C 
BRANCH  21  22
ATOM     22  N   UNL     1       4.393   6.068  18.914  0.00  0.00    +0.000 NA
ATOM     23  H   UNL     1       4.483   6.577  18.038  0.00  0.00    +0.000 HD
BRANCH  22  24
ATOM     24  S   UNL     1       5.170   4.574  18.865  0.00  0.00    +0.000 S 
ATOM     25  O   UNL     1       4.182   3.535  19.046  0.00  0.00    +0.000 OA
ATOM     26  O   UNL     1       6.337   4.682  19.712  0.00  0.00    +0.000 OA
BRANCH  24  30
ATOM     27  C   UNL     1       6.608   4.427  14.533  0.00  0.00    +0.000 A 
ATOM     28  C   UNL     1       5.277   4.137  14.845  0.00  0.00    +0.000 A 
ATOM     29  C   UNL     1       4.834   4.185  16.166  0.00  0.00    +0.000 A 
ATOM     30  C   UNL     1       5.737   4.507  17.181  0.00  0.00    +0.000 A 
ATOM     31  C   UNL     1       7.070   4.803  16.880  0.00  0.00    +0.000 A 
ATOM     32  C   UNL     1       7.507   4.750  15.553  0.00  0.00    +0.000 A 
BRANCH  27  34
ATOM     33  C   UNL     1       6.122   3.438  12.442  0.00  0.00    +0.000 C 
ATOM     34  O   UNL     1       6.925   4.330  13.207  0.00  0.00    +0.000 OA
ENDBRANCH  27  34
ENDBRANCH  24  30
ENDBRANCH  22  24
ENDBRANCH  21  22
ENDBRANCH   1  21
TORSDOF 6
ENDMDL
