MODEL 1
REMARK VINA RESULT:      -7.9      0.000      0.000
REMARK  Name = 
REMARK  5 active torsions:
REMARK  status: ('A' for Active; 'I' for Inactive)
REMARK    1  A    between atoms: C_2  and  C_3
REMARK    2  A    between atoms: C_3  and  N_4
REMARK    3  A    between atoms: C_7  and  C_8
REMARK    4  A    between atoms: C_8  and  C_10
REMARK    5  A    between atoms: N_20  and  C_21
REMARK                            x       y       z     vdW  Elec       q    Type
REMARK                         _______ _______ _______ _____ _____    ______ ____
ROOT
ATOM      1  N   UNL     1       6.689   5.229  16.497  0.00  0.00    +0.000 NA
ATOM      2  C   UNL     1       5.229   4.996  16.371  0.00  0.00    +0.000 C 
ATOM      3  C   UNL     1       4.395   5.789  17.376  0.00  0.00    +0.000 C 
ATOM      4  C   UNL     1       4.856   5.585  18.823  0.00  0.00    +0.000 C 
ATOM      5  C   UNL     1       6.364   5.812  18.904  0.00  0.00    +0.000 C 
ATOM      6  C   UNL     1       7.131   4.965  17.881  0.00  0.00    +0.000 C 
ENDROOT
BRANCH   4   7
ATOM      7  C   UNL     1       4.467   4.202  19.367  0.00  0.00    +0.000 C 
ATOM      8  O   UNL     1       5.309   3.373  19.710  0.00  0.00    +0.000 OA
BRANCH   7   9
ATOM      9  C   UNL     1       3.031   3.837  19.498  0.00  0.00    +0.000 A 
ATOM     10  C   UNL     1       2.473   2.793  18.753  0.00  0.00    +0.000 A 
ATOM     11  C   UNL     1       1.139   2.447  18.949  0.00  0.00    +0.000 A 
ATOM     12  F   UNL     1       0.613   1.443  18.237  0.00  0.00    +0.000 F 
ATOM     13  C   UNL     1       0.344   3.113  19.878  0.00  0.00    +0.000 A 
ATOM     14  C   UNL     1       0.895   4.149  20.626  0.00  0.00    +0.000 A 
ATOM     15  C   UNL     1       2.232   4.506  20.435  0.00  0.00    +0.000 A 
ATOM     16  F   UNL     1       2.713   5.526  21.157  0.00  0.00    +0.000 F 
ENDBRANCH   7   9
ENDBRANCH   4   7
BRANCH   1  17
ATOM     17  C   UNL     1       7.341   4.275  15.545  0.00  0.00    +0.000 C 
BRANCH  17  19
ATOM     18  O   UNL     1       7.318   5.480  13.462  0.00  0.00    +0.000 OA
ATOM     19  C   UNL     1       6.969   4.472  14.080  0.00  0.00    +0.000 C 
ATOM     20  N   UNL     1       6.297   3.423  13.491  0.00  0.00    +0.000 N 
ATOM     21  H   UNL     1       5.992   2.673  14.105  0.00  0.00    +0.000 HD
BRANCH  20  22
ATOM     22  C   UNL     1       5.900   3.466  12.122  0.00  0.00    +0.000 C 
ATOM     23  C   UNL     1       5.468   2.199  11.437  0.00  0.00    +0.000 C 
ATOM     24  C   UNL     1       4.472   3.295  11.688  0.00  0.00    +0.000 C 
ENDBRANCH  20  22
ENDBRANCH  17  19
ENDBRANCH   1  17
TORSDOF 5
ENDMDL
MODEL 2
REMARK VINA RESULT:      -7.8      1.124      1.300
REMARK  Name = 
REMARK  5 active torsions:
REMARK  status: ('A' for Active; 'I' for Inactive)
REMARK    1  A    between atoms: C_2  and  C_3
REMARK    2  A    between atoms: C_3  and  N_4
REMARK    3  A    between atoms: C_7  and  C_8
REMARK    4  A    between atoms: C_8  and  C_10
REMARK    5  A    between atoms: N_20  and  C_21
REMARK                            x       y       z     vdW  Elec       q    Type
REMARK                         _______ _______ _______ _____ _____    ______ ____
ROOT
ATOM      1  N   UNL     1       6.676   5.813  15.706  0.00  0.00    +0.000 NA
ATOM      2  C   UNL     1       5.353   5.184  15.943  0.00  0.00    +0.000 C 
ATOM      3  C   UNL     1       4.417   6.035  16.800  0.00  0.00    +0.000 C 
ATOM      4  C   UNL     1       5.055   6.473  18.122  0.00  0.00    +0.000 C 
ATOM      5  C   UNL     1       6.421   7.094  17.835  0.00  0.00    +0.000 C 
ATOM      6  C   UNL     1       7.309   6.171  16.991  0.00  0.00    +0.000 C 
ENDROOT
BRANCH   4   7
ATOM      7  C   UNL     1       5.164   5.316  19.126  0.00  0.00    +0.000 C 
ATOM      8  O   UNL     1       6.143   5.175  19.858  0.00  0.00    +0.000 OA
BRANCH   7   9
ATOM      9  C   UNL     1       4.057   4.329  19.239  0.00  0.00    +0.000 A 
ATOM     10  C   UNL     1       4.213   3.008  18.808  0.00  0.00    +0.000 A 
ATOM     11  C   UNL     1       3.170   2.102  18.985  0.00  0.00    +0.000 A 
ATOM     12  F   UNL     1       3.328   0.837  18.576  0.00  0.00    +0.000 F 
ATOM     13  C   UNL     1       1.975   2.478  19.590  0.00  0.00    +0.000 A 
ATOM     14  C   UNL     1       1.817   3.790  20.025  0.00  0.00    +0.000 A 
ATOM     15  C   UNL     1       2.855   4.708  19.850  0.00  0.00    +0.000 A 
ATOM     16  F   UNL     1       2.650   5.966  20.260  0.00  0.00    +0.000 F 
ENDBRANCH   7   9
ENDBRANCH   4   7
BRANCH   1  17
ATOM     17  C   UNL     1       7.495   4.789  14.984  0.00  0.00    +0.000 C 
BRANCH  17  19
ATOM     18  O   UNL     1       7.644   5.400  12.660  0.00  0.00    +0.000 OA
ATOM     19  C   UNL     1       7.170   4.634  13.502  0.00  0.00    +0.000 C 
ATOM     20  N   UNL     1       6.389   3.546  13.175  0.00  0.00    +0.000 N 
ATOM     21  H   UNL     1       5.989   3.022  13.948  0.00  0.00    +0.000 HD
BRANCH  20  22
ATOM     22  C   UNL     1       6.020   3.271  11.826  0.00  0.00    +0.000 C 
ATOM     23  C   UNL     1       5.609   1.877  11.440  0.00  0.00    +0.000 C 
ATOM     24  C   UNL     1       4.603   2.993  11.415  0.00  0.00    +0.000 C 
ENDBRANCH  20  22
ENDBRANCH  17  19
ENDBRANCH   1  17
TORSDOF 5
ENDMDL
MODEL 3
REMARK VINA RESULT:      -7.8      3.126      5.428
REMARK  Name = 
REMARK  5 active torsions:
REMARK  status: ('A' for Active; 'I' for Inactive)
REMARK    1  A    between atoms: C_2  and  C_3
REMARK    2  A    between atoms: C_3  and  N_4
REMARK    3  A    between atoms: C_7  and  C_8
REMARK    4  A    between atoms: C_8  and  C_10
REMARK    5  A    between atoms: N_20  and  C_21
REMARK                            x       y       z     vdW  Elec       q    Type
REMARK                         _______ _______ _______ _____ _____    ______ ____
ROOT
ATOM      1  N   UNL     1       7.073   6.492  17.392  0.00  0.00    +0.000 NA
ATOM      2  C   UNL     1       7.425   5.051  17.416  0.00  0.00    +0.000 C 
ATOM      3  C   UNL     1       6.442   4.170  16.645  0.00  0.00    +0.000 C 
ATOM      4  C   UNL     1       4.988   4.382  17.079  0.00  0.00    +0.000 C 
ATOM      5  C   UNL     1       4.675   5.876  17.063  0.00  0.00    +0.000 C 
ATOM      6  C   UNL     1       5.691   6.688  17.875  0.00  0.00    +0.000 C 
ENDROOT
BRANCH   4   7
ATOM      7  C   UNL     1       4.696   3.762  18.454  0.00  0.00    +0.000 C 
ATOM      8  O   UNL     1       5.592   3.464  19.241  0.00  0.00    +0.000 OA
BRANCH   7   9
ATOM      9  C   UNL     1       3.289   3.516  18.869  0.00  0.00    +0.000 A 
ATOM     10  C   UNL     1       2.601   4.420  19.685  0.00  0.00    +0.000 A 
ATOM     11  C   UNL     1       1.266   4.179  20.002  0.00  0.00    +0.000 A 
ATOM     12  F   UNL     1       0.613   5.052  20.779  0.00  0.00    +0.000 F 
ATOM     13  C   UNL     1       0.595   3.061  19.518  0.00  0.00    +0.000 A 
ATOM     14  C   UNL     1       1.272   2.161  18.702  0.00  0.00    +0.000 A 
ATOM     15  C   UNL     1       2.612   2.391  18.380  0.00  0.00    +0.000 A 
ATOM     16  F   UNL     1       3.232   1.486  17.613  0.00  0.00    +0.000 F 
ENDBRANCH   7   9
ENDBRANCH   4   7
BRANCH   1  17
ATOM     17  C   UNL     1       8.049   7.168  18.304  0.00  0.00    +0.000 C 
BRANCH  17  19
ATOM     18  O   UNL     1       7.567   9.254  17.205  0.00  0.00    +0.000 OA
ATOM     19  C   UNL     1       8.203   8.668  18.083  0.00  0.00    +0.000 C 
ATOM     20  N   UNL     1       9.029   9.320  18.974  0.00  0.00    +0.000 N 
ATOM     21  H   UNL     1       9.564   8.736  19.612  0.00  0.00    +0.000 HD
BRANCH  20  22
ATOM     22  C   UNL     1       9.253  10.725  18.894  0.00  0.00    +0.000 C 
ATOM     23  C   UNL     1      10.547  11.298  19.402  0.00  0.00    +0.000 C 
ATOM     24  C   UNL     1      10.232  11.335  17.933  0.00  0.00    +0.000 C 
ENDBRANCH  20  22
ENDBRANCH  17  19
ENDBRANCH   1  17
TORSDOF 5
ENDMDL
MODEL 4
REMARK VINA RESULT:      -7.7      1.289      1.835
REMARK  Name = 
REMARK  5 active torsions:
REMARK  status: ('A' for Active; 'I' for Inactive)
REMARK    1  A    between atoms: C_2  and  C_3
REMARK    2  A    between atoms: C_3  and  N_4
REMARK    3  A    between atoms: C_7  and  C_8
REMARK    4  A    between atoms: C_8  and  C_10
REMARK    5  A    between atoms: N_20  and  C_21
REMARK                            x       y       z     vdW  Elec       q    Type
REMARK                         _______ _______ _______ _____ _____    ______ ____
ROOT
ATOM      1  N   UNL     1       6.612   5.738  15.835  0.00  0.00    +0.000 NA
ATOM      2  C   UNL     1       5.252   5.171  16.008  0.00  0.00    +0.000 C 
ATOM      3  C   UNL     1       4.331   6.043  16.860  0.00  0.00    +0.000 C 
ATOM      4  C   UNL     1       4.945   6.408  18.216  0.00  0.00    +0.000 C 
ATOM      5  C   UNL     1       6.349   6.966  17.994  0.00  0.00    +0.000 C 
ATOM      6  C   UNL     1       7.218   6.024  17.151  0.00  0.00    +0.000 C 
ENDROOT
BRANCH   4   7
ATOM      7  C   UNL     1       4.961   5.217  19.186  0.00  0.00    +0.000 C 
ATOM      8  O   UNL     1       5.990   4.843  19.746  0.00  0.00    +0.000 OA
BRANCH   7   9
ATOM      9  C   UNL     1       3.699   4.484  19.476  0.00  0.00    +0.000 A 
ATOM     10  C   UNL     1       2.592   5.133  20.031  0.00  0.00    +0.000 A 
ATOM     11  C   UNL     1       1.411   4.422  20.234  0.00  0.00    +0.000 A 
ATOM     12  F   UNL     1       0.353   5.051  20.760  0.00  0.00    +0.000 F 
ATOM     13  C   UNL     1       1.304   3.079  19.889  0.00  0.00    +0.000 A 
ATOM     14  C   UNL     1       2.401   2.430  19.332  0.00  0.00    +0.000 A 
ATOM     15  C   UNL     1       3.591   3.132  19.127  0.00  0.00    +0.000 A 
ATOM     16  F   UNL     1       4.629   2.462  18.613  0.00  0.00    +0.000 F 
ENDBRANCH   7   9
ENDBRANCH   4   7
BRANCH   1  17
ATOM     17  C   UNL     1       7.402   4.696  15.107  0.00  0.00    +0.000 C 
BRANCH  17  19
ATOM     18  O   UNL     1       7.664   5.328  12.799  0.00  0.00    +0.000 OA
ATOM     19  C   UNL     1       7.108   4.590  13.615  0.00  0.00    +0.000 C 
ATOM     20  N   UNL     1       6.251   3.574  13.248  0.00  0.00    +0.000 N 
ATOM     21  H   UNL     1       5.789   3.072  14.001  0.00  0.00    +0.000 HD
BRANCH  20  22
ATOM     22  C   UNL     1       5.899   3.350  11.885  0.00  0.00    +0.000 C 
ATOM     23  C   UNL     1       5.608   1.952  11.416  0.00  0.00    +0.000 C 
ATOM     24  C   UNL     1       4.509   2.974  11.460  0.00  0.00    +0.000 C 
ENDBRANCH  20  22
ENDBRANCH  17  19
ENDBRANCH   1  17
TORSDOF 5
ENDMDL
MODEL 5
REMARK VINA RESULT:      -7.6      1.474      2.315
REMARK  Name = 
REMARK  5 active torsions:
REMARK  status: ('A' for Active; 'I' for Inactive)
REMARK    1  A    between atoms: C_2  and  C_3
REMARK    2  A    between atoms: C_3  and  N_4
REMARK    3  A    between atoms: C_7  and  C_8
REMARK    4  A    between atoms: C_8  and  C_10
REMARK    5  A    between atoms: N_20  and  C_21
REMARK                            x       y       z     vdW  Elec       q    Type
REMARK                         _______ _______ _______ _____ _____    ______ ____
ROOT
ATOM      1  N   UNL     1       6.358   4.976  15.227  0.00  0.00    +0.000 NA
ATOM      2  C   UNL     1       4.963   5.014  15.729  0.00  0.00    +0.000 C 
ATOM      3  C   UNL     1       4.672   6.212  16.632  0.00  0.00    +0.000 C 
ATOM      4  C   UNL     1       5.670   6.342  17.787  0.00  0.00    +0.000 C 
ATOM      5  C   UNL     1       7.090   6.276  17.230  0.00  0.00    +0.000 C 
ATOM      6  C   UNL     1       7.310   5.036  16.354  0.00  0.00    +0.000 C 
ENDROOT
BRANCH   4   7
ATOM      7  C   UNL     1       5.444   5.280  18.873  0.00  0.00    +0.000 C 
ATOM      8  O   UNL     1       6.377   4.727  19.453  0.00  0.00    +0.000 OA
BRANCH   7   9
ATOM      9  C   UNL     1       4.058   4.899  19.257  0.00  0.00    +0.000 A 
ATOM     10  C   UNL     1       3.233   5.775  19.970  0.00  0.00    +0.000 A 
ATOM     11  C   UNL     1       1.923   5.402  20.259  0.00  0.00    +0.000 A 
ATOM     12  F   UNL     1       1.138   6.248  20.937  0.00  0.00    +0.000 F 
ATOM     13  C   UNL     1       1.409   4.177  19.846  0.00  0.00    +0.000 A 
ATOM     14  C   UNL     1       2.223   3.304  19.132  0.00  0.00    +0.000 A 
ATOM     15  C   UNL     1       3.540   3.666  18.840  0.00  0.00    +0.000 A 
ATOM     16  F   UNL     1       4.296   2.785  18.173  0.00  0.00    +0.000 F 
ENDBRANCH   7   9
ENDBRANCH   4   7
BRANCH   1  17
ATOM     17  C   UNL     1       6.495   3.679  14.491  0.00  0.00    +0.000 C 
BRANCH  17  19
ATOM     18  O   UNL     1       7.071   4.194  12.212  0.00  0.00    +0.000 OA
ATOM     19  C   UNL     1       6.224   3.757  12.993  0.00  0.00    +0.000 C 
ATOM     20  N   UNL     1       5.016   3.237  12.579  0.00  0.00    +0.000 N 
ATOM     21  H   UNL     1       4.359   2.971  13.308  0.00  0.00    +0.000 HD
BRANCH  20  22
ATOM     22  C   UNL     1       4.638   3.231  11.205  0.00  0.00    +0.000 C 
ATOM     23  C   UNL     1       3.274   2.731  10.815  0.00  0.00    +0.000 C 
ATOM     24  C   UNL     1       3.622   4.182  10.641  0.00  0.00    +0.000 C 
ENDBRANCH  20  22
ENDBRANCH  17  19
ENDBRANCH   1  17
TORSDOF 5
ENDMDL
MODEL 6
REMARK VINA RESULT:      -7.5      1.692      2.031
REMARK  Name = 
REMARK  5 active torsions:
REMARK  status: ('A' for Active; 'I' for Inactive)
REMARK    1  A    between atoms: C_2  and  C_3
REMARK    2  A    between atoms: C_3  and  N_4
REMARK    3  A    between atoms: C_7  and  C_8
REMARK    4  A    between atoms: C_8  and  C_10
REMARK    5  A    between atoms: N_20  and  C_21
REMARK                            x       y       z     vdW  Elec       q    Type
REMARK                         _______ _______ _______ _____ _____    ______ ____
ROOT
ATOM      1  N   UNL     1       6.450   4.932  14.998  0.00  0.00    +0.000 NA
ATOM      2  C   UNL     1       5.077   5.360  15.364  0.00  0.00    +0.000 C 
ATOM      3  C   UNL     1       5.040   6.631  16.211  0.00  0.00    +0.000 C 
ATOM      4  C   UNL     1       5.932   6.544  17.453  0.00  0.00    +0.000 C 
ATOM      5  C   UNL     1       7.326   6.079  17.035  0.00  0.00    +0.000 C 
ATOM      6  C   UNL     1       7.281   4.788  16.210  0.00  0.00    +0.000 C 
ENDROOT
BRANCH   4   7
ATOM      7  C   UNL     1       5.337   5.629  18.533  0.00  0.00    +0.000 C 
ATOM      8  O   UNL     1       5.892   5.445  19.616  0.00  0.00    +0.000 OA
BRANCH   7   9
ATOM      9  C   UNL     1       4.042   4.939  18.285  0.00  0.00    +0.000 A 
ATOM     10  C   UNL     1       3.992   3.585  17.943  0.00  0.00    +0.000 A 
ATOM     11  C   UNL     1       2.757   2.964  17.776  0.00  0.00    +0.000 A 
ATOM     12  F   UNL     1       2.716   1.665  17.454  0.00  0.00    +0.000 F 
ATOM     13  C   UNL     1       1.564   3.660  17.950  0.00  0.00    +0.000 A 
ATOM     14  C   UNL     1       1.608   5.007  18.296  0.00  0.00    +0.000 A 
ATOM     15  C   UNL     1       2.842   5.640  18.462  0.00  0.00    +0.000 A 
ATOM     16  F   UNL     1       2.837   6.943  18.770  0.00  0.00    +0.000 F 
ENDBRANCH   7   9
ENDBRANCH   4   7
BRANCH   1  17
ATOM     17  C   UNL     1       6.298   3.613  14.305  0.00  0.00    +0.000 C 
BRANCH  17  19
ATOM     18  O   UNL     1       6.973   4.029  12.032  0.00  0.00    +0.000 OA
ATOM     19  C   UNL     1       6.067   3.700  12.800  0.00  0.00    +0.000 C 
ATOM     20  N   UNL     1       4.818   3.312  12.366  0.00  0.00    +0.000 N 
ATOM     21  H   UNL     1       4.121   3.131  13.084  0.00  0.00    +0.000 HD
BRANCH  20  22
ATOM     22  C   UNL     1       4.469   3.329  10.984  0.00  0.00    +0.000 C 
ATOM     23  C   UNL     1       3.146   2.761  10.548  0.00  0.00    +0.000 C 
ATOM     24  C   UNL     1       3.409   4.236  10.428  0.00  0.00    +0.000 C 
ENDBRANCH  20  22
ENDBRANCH  17  19
ENDBRANCH   1  17
TORSDOF 5
ENDMDL
MODEL 7
REMARK VINA RESULT:      -7.5      1.799      2.340
REMARK  Name = 
REMARK  5 active torsions:
REMARK  status: ('A' for Active; 'I' for Inactive)
REMARK    1  A    between atoms: C_2  and  C_3
REMARK    2  A    between atoms: C_3  and  N_4
REMARK    3  A    between atoms: C_7  and  C_8
REMARK    4  A    between atoms: C_8  and  C_10
REMARK    5  A    between atoms: N_20  and  C_21
REMARK                            x       y       z     vdW  Elec       q    Type
REMARK                         _______ _______ _______ _____ _____    ______ ____
ROOT
ATOM      1  N   UNL     1       6.025   5.137  17.377  0.00  0.00    +0.000 NA
ATOM      2  C   UNL     1       5.112   5.938  16.525  0.00  0.00    +0.000 C 
ATOM      3  C   UNL     1       4.391   7.052  17.283  0.00  0.00    +0.000 C 
ATOM      4  C   UNL     1       3.665   6.546  18.534  0.00  0.00    +0.000 C 
ATOM      5  C   UNL     1       4.632   5.710  19.369  0.00  0.00    +0.000 C 
ATOM      6  C   UNL     1       5.297   4.601  18.545  0.00  0.00    +0.000 C 
ENDROOT
BRANCH   4   7
ATOM      7  C   UNL     1       2.394   5.755  18.189  0.00  0.00    +0.000 C 
ATOM      8  O   UNL     1       1.535   6.196  17.427  0.00  0.00    +0.000 OA
BRANCH   7   9
ATOM      9  C   UNL     1       2.182   4.406  18.778  0.00  0.00    +0.000 A 
ATOM     10  C   UNL     1       1.738   4.247  20.094  0.00  0.00    +0.000 A 
ATOM     11  C   UNL     1       1.496   2.967  20.587  0.00  0.00    +0.000 A 
ATOM     12  F   UNL     1       1.066   2.823  21.847  0.00  0.00    +0.000 F 
ATOM     13  C   UNL     1       1.679   1.837  19.796  0.00  0.00    +0.000 A 
ATOM     14  C   UNL     1       2.115   1.989  18.484  0.00  0.00    +0.000 A 
ATOM     15  C   UNL     1       2.364   3.268  17.980  0.00  0.00    +0.000 A 
ATOM     16  F   UNL     1       2.807   3.367  16.721  0.00  0.00    +0.000 F 
ENDBRANCH   7   9
ENDBRANCH   4   7
BRANCH   1  17
ATOM     17  C   UNL     1       6.523   4.022  16.510  0.00  0.00    +0.000 C 
BRANCH  17  19
ATOM     18  O   UNL     1       7.422   5.320  14.694  0.00  0.00    +0.000 OA
ATOM     19  C   UNL     1       6.702   4.381  15.040  0.00  0.00    +0.000 C 
ATOM     20  N   UNL     1       6.077   3.542  14.142  0.00  0.00    +0.000 N 
ATOM     21  H   UNL     1       5.447   2.845  14.531  0.00  0.00    +0.000 HD
BRANCH  20  22
ATOM     22  C   UNL     1       6.171   3.751  12.735  0.00  0.00    +0.000 C 
ATOM     23  C   UNL     1       6.384   2.573  11.825  0.00  0.00    +0.000 C 
ATOM     24  C   UNL     1       5.089   3.334  11.781  0.00  0.00    +0.000 C 
ENDBRANCH  20  22
ENDBRANCH  17  19
ENDBRANCH   1  17
TORSDOF 5
ENDMDL
MODEL 8
REMARK VINA RESULT:      -7.4      3.207      5.289
REMARK  Name = 
REMARK  5 active torsions:
REMARK  status: ('A' for Active; 'I' for Inactive)
REMARK    1  A    between atoms: C_2  and  C_3
REMARK    2  A    between atoms: C_3  and  N_4
REMARK    3  A    between atoms: C_7  and  C_8
REMARK    4  A    between atoms: C_8  and  C_10
REMARK    5  A    between atoms: N_20  and  C_21
REMARK                            x       y       z     vdW  Elec       q    Type
REMARK                         _______ _______ _______ _____ _____    ______ ____
ROOT
ATOM      1  N   UNL     1       6.864   7.007  17.178  0.00  0.00    +0.000 NA
ATOM      2  C   UNL     1       7.174   5.583  16.897  0.00  0.00    +0.000 C 
ATOM      3  C   UNL     1       6.074   4.862  16.117  0.00  0.00    +0.000 C 
ATOM      4  C   UNL     1       4.695   5.001  16.770  0.00  0.00    +0.000 C 
ATOM      5  C   UNL     1       4.427   6.475  17.063  0.00  0.00    +0.000 C 
ATOM      6  C   UNL     1       5.563   7.120  17.866  0.00  0.00    +0.000 C 
ENDROOT
BRANCH   4   7
ATOM      7  C   UNL     1       4.564   4.144  18.038  0.00  0.00    +0.000 C 
ATOM      8  O   UNL     1       5.525   3.558  18.535  0.00  0.00    +0.000 OA
BRANCH   7   9
ATOM      9  C   UNL     1       3.242   4.012  18.707  0.00  0.00    +0.000 A 
ATOM     10  C   UNL     1       2.304   3.065  18.286  0.00  0.00    +0.000 A 
ATOM     11  C   UNL     1       1.101   2.936  18.977  0.00  0.00    +0.000 A 
ATOM     12  F   UNL     1       0.210   2.023  18.572  0.00  0.00    +0.000 F 
ATOM     13  C   UNL     1       0.812   3.725  20.086  0.00  0.00    +0.000 A 
ATOM     14  C   UNL     1       1.744   4.666  20.513  0.00  0.00    +0.000 A 
ATOM     15  C   UNL     1       2.952   4.806  19.825  0.00  0.00    +0.000 A 
ATOM     16  F   UNL     1       3.808   5.741  20.254  0.00  0.00    +0.000 F 
ENDBRANCH   7   9
ENDBRANCH   4   7
BRANCH   1  17
ATOM     17  C   UNL     1       7.970   7.501  18.059  0.00  0.00    +0.000 C 
BRANCH  17  19
ATOM     18  O   UNL     1       7.521   9.740  17.299  0.00  0.00    +0.000 OA
ATOM     19  C   UNL     1       8.177   9.011  18.046  0.00  0.00    +0.000 C 
ATOM     20  N   UNL     1       9.075   9.496  18.971  0.00  0.00    +0.000 N 
ATOM     21  H   UNL     1       9.617   8.808  19.487  0.00  0.00    +0.000 HD
BRANCH  20  22
ATOM     22  C   UNL     1       9.356  10.890  19.080  0.00  0.00    +0.000 C 
ATOM     23  C   UNL     1      10.684  11.337  19.625  0.00  0.00    +0.000 C 
ATOM     24  C   UNL     1      10.338  11.590  18.185  0.00  0.00    +0.000 C 
ENDBRANCH  20  22
ENDBRANCH  17  19
ENDBRANCH   1  17
TORSDOF 5
ENDMDL
MODEL 9
REMARK VINA RESULT:      -7.4      1.383      2.012
REMARK  Name = 
REMARK  5 active torsions:
REMARK  status: ('A' for Active; 'I' for Inactive)
REMARK    1  A    between atoms: C_2  and  C_3
REMARK    2  A    between atoms: C_3  and  N_4
REMARK    3  A    between atoms: C_7  and  C_8
REMARK    4  A    between atoms: C_8  and  C_10
REMARK    5  A    between atoms: N_20  and  C_21
REMARK                            x       y       z     vdW  Elec       q    Type
REMARK                         _______ _______ _______ _____ _____    ______ ____
ROOT
ATOM      1  N   UNL     1       6.637   6.052  15.945  0.00  0.00    +0.000 NA
ATOM      2  C   UNL     1       5.195   5.706  15.986  0.00  0.00    +0.000 C 
ATOM      3  C   UNL     1       4.454   6.317  17.175  0.00  0.00    +0.000 C 
ATOM      4  C   UNL     1       5.126   6.008  18.516  0.00  0.00    +0.000 C 
ATOM      5  C   UNL     1       6.610   6.357  18.424  0.00  0.00    +0.000 C 
ATOM      6  C   UNL     1       7.286   5.689  17.220  0.00  0.00    +0.000 C 
ENDROOT
BRANCH   4   7
ATOM      7  C   UNL     1       4.919   4.548  18.947  0.00  0.00    +0.000 C 
ATOM      8  O   UNL     1       5.859   3.821  19.267  0.00  0.00    +0.000 OA
BRANCH   7   9
ATOM      9  C   UNL     1       3.546   3.980  18.995  0.00  0.00    +0.000 A 
ATOM     10  C   UNL     1       2.567   4.512  19.841  0.00  0.00    +0.000 A 
ATOM     11  C   UNL     1       1.277   3.986  19.813  0.00  0.00    +0.000 A 
ATOM     12  F   UNL     1       0.344   4.504  20.620  0.00  0.00    +0.000 F 
ATOM     13  C   UNL     1       0.935   2.946  18.954  0.00  0.00    +0.000 A 
ATOM     14  C   UNL     1       1.903   2.418  18.107  0.00  0.00    +0.000 A 
ATOM     15  C   UNL     1       3.201   2.934  18.129  0.00  0.00    +0.000 A 
ATOM     16  F   UNL     1       4.107   2.378  17.316  0.00  0.00    +0.000 F 
ENDBRANCH   7   9
ENDBRANCH   4   7
BRANCH   1  17
ATOM     17  C   UNL     1       7.218   5.261  14.815  0.00  0.00    +0.000 C 
BRANCH  17  19
ATOM     18  O   UNL     1       6.092   3.173  15.224  0.00  0.00    +0.000 OA
ATOM     19  C   UNL     1       6.408   4.037  14.403  0.00  0.00    +0.000 C 
ATOM     20  N   UNL     1       5.995   4.011  13.088  0.00  0.00    +0.000 N 
ATOM     21  H   UNL     1       6.372   4.730  12.477  0.00  0.00    +0.000 HD
BRANCH  20  22
ATOM     22  C   UNL     1       5.219   2.933  12.571  0.00  0.00    +0.000 C 
ATOM     23  C   UNL     1       4.378   3.149  11.343  0.00  0.00    +0.000 C 
ATOM     24  C   UNL     1       5.564   2.228  11.290  0.00  0.00    +0.000 C 
ENDBRANCH  20  22
ENDBRANCH  17  19
ENDBRANCH   1  17
TORSDOF 5
ENDMDL
