MODEL 1
REMARK VINA RESULT:      -7.3      0.000      0.000
REMARK  Name = 
REMARK  5 active torsions:
REMARK  status: ('A' for Active; 'I' for Inactive)
REMARK    1  A    between atoms: N_1  and  C_2
REMARK    2  A    between atoms: C_10  and  C_11
REMARK    3  A    between atoms: C_17  and  S_18
REMARK    4  A    between atoms: S_18  and  N_19
REMARK    5  A    between atoms: C_24  and  N_25
REMARK                            x       y       z     vdW  Elec       q    Type
REMARK                         _______ _______ _______ _____ _____    ______ ____
ROOT
ATOM      1  C   UNL     1      -1.308  14.144  20.489  0.00  0.00    +0.000 C 
ATOM      2  N   UNL     1       0.026  14.379  20.030  0.00  0.00    +0.000 N 
ATOM      3  C   UNL     1       0.833  13.356  19.653  0.00  0.00    +0.000 C 
ATOM      4  S   UNL     1       2.465  13.577  19.447  0.00  0.00    +0.000 S 
ATOM      5  N   UNL     1       0.240  12.154  19.420  0.00  0.00    +0.000 N 
ATOM      6  N   UNL     1      -1.096  11.911  19.480  0.00  0.00    +0.000 NA
ATOM      7  C   UNL     1      -1.882  12.838  19.929  0.00  0.00    +0.000 C 
ATOM      8  N   UNL     1      -3.296  12.581  20.036  0.00  0.00    +0.000 N 
ATOM      9  C   UNL     1      -4.099  11.759  19.159  0.00  0.00    +0.000 A 
ATOM     10  C   UNL     1      -5.397  11.762  19.692  0.00  0.00    +0.000 A 
ATOM     11  C   UNL     1      -5.438  12.582  20.857  0.00  0.00    +0.000 A 
ATOM     12  C   UNL     1      -6.468  12.954  21.771  0.00  0.00    +0.000 A 
ATOM     13  C   UNL     1      -6.185  13.722  22.903  0.00  0.00    +0.000 A 
ATOM     14  C   UNL     1      -4.886  14.137  23.150  0.00  0.00    +0.000 A 
ATOM     15  C   UNL     1      -3.862  13.792  22.261  0.00  0.00    +0.000 A 
ATOM     16  C   UNL     1      -4.133  13.046  21.086  0.00  0.00    +0.000 A 
ATOM     17  H   UNL     1       0.510  15.220  20.307  0.00  0.00    +0.000 HD
ATOM     18  H   UNL     1       0.809  11.410  19.028  0.00  0.00    +0.000 HD
ENDROOT
BRANCH   9  19
ATOM     19  C   UNL     1      -3.633  11.162  17.854  0.00  0.00    +0.000 A 
ATOM     20  C   UNL     1      -4.004  11.661  16.603  0.00  0.00    +0.000 A 
ATOM     21  C   UNL     1      -3.728  10.975  15.410  0.00  0.00    +0.000 A 
ATOM     22  C   UNL     1      -2.886   9.876  15.419  0.00  0.00    +0.000 A 
ATOM     23  C   UNL     1      -2.343   9.462  16.626  0.00  0.00    +0.000 A 
ATOM     24  C   UNL     1      -2.759  10.062  17.826  0.00  0.00    +0.000 A 
ENDBRANCH   9  19
BRANCH   1  25
ATOM     25  N   UNL     1      -2.001  15.324  20.019  0.00  0.00    +0.000 NA
ATOM     26  H   UNL     1      -1.359  15.881  19.455  0.00  0.00    +0.000 HD
ATOM     27  H   UNL     1      -2.289  15.920  20.786  0.00  0.00    +0.000 HD
ENDBRANCH   1  25
BRANCH  10  28
ATOM     28  S   UNL     1      -6.826  10.937  19.088  0.00  0.00    +0.000 S 
ATOM     29  O   UNL     1      -7.410  11.795  18.088  0.00  0.00    +0.000 OA
ATOM     30  O   UNL     1      -6.385   9.593  18.773  0.00  0.00    +0.000 OA
BRANCH  28  31
ATOM     31  N   UNL     1      -7.904  10.799  20.353  0.00  0.00    +0.000 NA
ATOM     32  H   UNL     1      -8.711  11.417  20.314  0.00  0.00    +0.000 HD
ATOM     33  H   UNL     1      -7.494  10.609  21.261  0.00  0.00    +0.000 HD
ENDBRANCH  28  31
ENDBRANCH  10  28
BRANCH  13  34
ATOM     34  N   UNL     1      -7.250  14.067  23.854  0.00  0.00    +0.000 N 
ATOM     35  O   UNL     1      -7.915  13.139  24.338  0.00  0.00    +0.000 OA
ATOM     36  O   UNL     1      -7.432  15.268  24.103  0.00  0.00    +0.000 OA
ENDBRANCH  13  34
TORSDOF 5
ENDMDL
MODEL 2
REMARK VINA RESULT:      -7.3      3.073      4.946
REMARK  Name = 
REMARK  5 active torsions:
REMARK  status: ('A' for Active; 'I' for Inactive)
REMARK    1  A    between atoms: N_1  and  C_2
REMARK    2  A    between atoms: C_10  and  C_11
REMARK    3  A    between atoms: C_17  and  S_18
REMARK    4  A    between atoms: S_18  and  N_19
REMARK    5  A    between atoms: C_24  and  N_25
REMARK                            x       y       z     vdW  Elec       q    Type
REMARK                         _______ _______ _______ _____ _____    ______ ____
ROOT
ATOM      1  C   UNL     1      -4.625  11.282  17.624  0.00  0.00    +0.000 C 
ATOM      2  N   UNL     1      -4.592  10.558  16.392  0.00  0.00    +0.000 N 
ATOM      3  C   UNL     1      -3.570  10.708  15.512  0.00  0.00    +0.000 C 
ATOM      4  S   UNL     1      -3.684  10.145  13.955  0.00  0.00    +0.000 S 
ATOM      5  N   UNL     1      -2.441  11.309  15.973  0.00  0.00    +0.000 N 
ATOM      6  N   UNL     1      -2.233  11.718  17.253  0.00  0.00    +0.000 NA
ATOM      7  C   UNL     1      -3.220  11.678  18.091  0.00  0.00    +0.000 C 
ATOM      8  N   UNL     1      -3.027  12.146  19.440  0.00  0.00    +0.000 N 
ATOM      9  C   UNL     1      -1.821  12.047  20.230  0.00  0.00    +0.000 A 
ATOM     10  C   UNL     1      -2.091  12.689  21.448  0.00  0.00    +0.000 A 
ATOM     11  C   UNL     1      -3.436  13.160  21.457  0.00  0.00    +0.000 A 
ATOM     12  C   UNL     1      -4.238  13.850  22.414  0.00  0.00    +0.000 A 
ATOM     13  C   UNL     1      -5.533  14.271  22.101  0.00  0.00    +0.000 A 
ATOM     14  C   UNL     1      -6.058  14.015  20.844  0.00  0.00    +0.000 A 
ATOM     15  C   UNL     1      -5.292  13.330  19.893  0.00  0.00    +0.000 A 
ATOM     16  C   UNL     1      -3.991  12.860  20.203  0.00  0.00    +0.000 A 
ATOM     17  H   UNL     1      -5.452  10.216  15.987  0.00  0.00    +0.000 HD
ATOM     18  H   UNL     1      -1.628  11.327  15.365  0.00  0.00    +0.000 HD
ENDROOT
BRANCH   9  19
ATOM     19  C   UNL     1      -0.588  11.266  19.846  0.00  0.00    +0.000 A 
ATOM     20  C   UNL     1       0.466  11.806  19.103  0.00  0.00    +0.000 A 
ATOM     21  C   UNL     1       1.502  11.015  18.586  0.00  0.00    +0.000 A 
ATOM     22  C   UNL     1       1.627   9.692  18.976  0.00  0.00    +0.000 A 
ATOM     23  C   UNL     1       0.702   9.169  19.867  0.00  0.00    +0.000 A 
ATOM     24  C   UNL     1      -0.416   9.930  20.246  0.00  0.00    +0.000 A 
ENDBRANCH   9  19
BRANCH   1  25
ATOM     25  N   UNL     1      -5.282  10.343  18.508  0.00  0.00    +0.000 NA
ATOM     26  H   UNL     1      -6.233  10.666  18.685  0.00  0.00    +0.000 HD
ATOM     27  H   UNL     1      -4.828  10.299  19.413  0.00  0.00    +0.000 HD
ENDBRANCH   1  25
BRANCH  10  28
ATOM     28  S   UNL     1      -1.021  12.915  22.824  0.00  0.00    +0.000 S 
ATOM     29  O   UNL     1      -1.675  13.843  23.712  0.00  0.00    +0.000 OA
ATOM     30  O   UNL     1      -0.663  11.578  23.251  0.00  0.00    +0.000 OA
BRANCH  28  31
ATOM     31  N   UNL     1       0.380  13.625  22.265  0.00  0.00    +0.000 NA
ATOM     32  H   UNL     1       0.636  13.400  21.305  0.00  0.00    +0.000 HD
ATOM     33  H   UNL     1       1.126  13.721  22.944  0.00  0.00    +0.000 HD
ENDBRANCH  28  31
ENDBRANCH  10  28
BRANCH  13  34
ATOM     34  N   UNL     1      -6.333  15.012  23.084  0.00  0.00    +0.000 N 
ATOM     35  O   UNL     1      -5.737  15.784  23.849  0.00  0.00    +0.000 OA
ATOM     36  O   UNL     1      -7.556  14.808  23.102  0.00  0.00    +0.000 OA
ENDBRANCH  13  34
TORSDOF 5
ENDMDL
MODEL 3
REMARK VINA RESULT:      -7.2      0.757      1.288
REMARK  Name = 
REMARK  5 active torsions:
REMARK  status: ('A' for Active; 'I' for Inactive)
REMARK    1  A    between atoms: N_1  and  C_2
REMARK    2  A    between atoms: C_10  and  C_11
REMARK    3  A    between atoms: C_17  and  S_18
REMARK    4  A    between atoms: S_18  and  N_19
REMARK    5  A    between atoms: C_24  and  N_25
REMARK                            x       y       z     vdW  Elec       q    Type
REMARK                         _______ _______ _______ _____ _____    ______ ____
ROOT
ATOM      1  C   UNL     1      -0.765  14.040  19.844  0.00  0.00    +0.000 C 
ATOM      2  N   UNL     1       0.514  14.126  19.210  0.00  0.00    +0.000 N 
ATOM      3  C   UNL     1       1.182  13.014  18.813  0.00  0.00    +0.000 C 
ATOM      4  S   UNL     1       2.786  13.077  18.392  0.00  0.00    +0.000 S 
ATOM      5  N   UNL     1       0.470  11.858  18.743  0.00  0.00    +0.000 N 
ATOM      6  N   UNL     1      -0.863  11.738  18.984  0.00  0.00    +0.000 NA
ATOM      7  C   UNL     1      -1.508  12.756  19.457  0.00  0.00    +0.000 C 
ATOM      8  N   UNL     1      -2.912  12.633  19.755  0.00  0.00    +0.000 N 
ATOM      9  C   UNL     1      -3.884  11.832  19.046  0.00  0.00    +0.000 A 
ATOM     10  C   UNL     1      -5.099  11.983  19.732  0.00  0.00    +0.000 A 
ATOM     11  C   UNL     1      -4.924  12.875  20.831  0.00  0.00    +0.000 A 
ATOM     12  C   UNL     1      -5.795  13.394  21.833  0.00  0.00    +0.000 A 
ATOM     13  C   UNL     1      -5.309  14.203  22.863  0.00  0.00    +0.000 A 
ATOM     14  C   UNL     1      -3.960  14.517  22.918  0.00  0.00    +0.000 A 
ATOM     15  C   UNL     1      -3.089  14.027  21.938  0.00  0.00    +0.000 A 
ATOM     16  C   UNL     1      -3.568  13.236  20.863  0.00  0.00    +0.000 A 
ATOM     17  H   UNL     1       1.095  14.937  19.362  0.00  0.00    +0.000 HD
ATOM     18  H   UNL     1       0.923  11.043  18.340  0.00  0.00    +0.000 HD
ENDROOT
BRANCH   9  19
ATOM     19  C   UNL     1      -3.638  11.115  17.741  0.00  0.00    +0.000 A 
ATOM     20  C   UNL     1      -2.980   9.885  17.651  0.00  0.00    +0.000 A 
ATOM     21  C   UNL     1      -2.584   9.335  16.422  0.00  0.00    +0.000 A 
ATOM     22  C   UNL     1      -3.023   9.898  15.236  0.00  0.00    +0.000 A 
ATOM     23  C   UNL     1      -3.841  11.016  15.290  0.00  0.00    +0.000 A 
ATOM     24  C   UNL     1      -4.092  11.643  16.521  0.00  0.00    +0.000 A 
ENDBRANCH   9  19
BRANCH   1  25
ATOM     25  N   UNL     1      -1.415  15.245  19.378  0.00  0.00    +0.000 NA
ATOM     26  H   UNL     1      -0.747  16.015  19.412  0.00  0.00    +0.000 HD
ATOM     27  H   UNL     1      -2.184  15.514  19.981  0.00  0.00    +0.000 HD
ENDBRANCH   1  25
BRANCH  10  28
ATOM     28  S   UNL     1      -6.655  11.252  19.371  0.00  0.00    +0.000 S 
ATOM     29  O   UNL     1      -7.483  12.290  18.810  0.00  0.00    +0.000 OA
ATOM     30  O   UNL     1      -6.345  10.045  18.631  0.00  0.00    +0.000 OA
BRANCH  28  31
ATOM     31  N   UNL     1      -7.333  10.763  20.813  0.00  0.00    +0.000 NA
ATOM     32  H   UNL     1      -8.217  10.264  20.738  0.00  0.00    +0.000 HD
ATOM     33  H   UNL     1      -7.212  11.399  21.594  0.00  0.00    +0.000 HD
ENDBRANCH  28  31
ENDBRANCH  10  28
BRANCH  13  34
ATOM     34  N   UNL     1      -6.212  14.700  23.909  0.00  0.00    +0.000 N 
ATOM     35  O   UNL     1      -6.060  15.868  24.296  0.00  0.00    +0.000 OA
ATOM     36  O   UNL     1      -7.063  13.917  24.355  0.00  0.00    +0.000 OA
ENDBRANCH  13  34
TORSDOF 5
ENDMDL
MODEL 4
REMARK VINA RESULT:      -7.1      2.716      6.089
REMARK  Name = 
REMARK  5 active torsions:
REMARK  status: ('A' for Active; 'I' for Inactive)
REMARK    1  A    between atoms: N_1  and  C_2
REMARK    2  A    between atoms: C_10  and  C_11
REMARK    3  A    between atoms: C_17  and  S_18
REMARK    4  A    between atoms: S_18  and  N_19
REMARK    5  A    between atoms: C_24  and  N_25
REMARK                            x       y       z     vdW  Elec       q    Type
REMARK                         _______ _______ _______ _____ _____    ______ ____
ROOT
ATOM      1  C   UNL     1      -1.670  13.390  22.453  0.00  0.00    +0.000 C 
ATOM      2  N   UNL     1      -1.174  13.936  23.678  0.00  0.00    +0.000 N 
ATOM      3  C   UNL     1      -1.633  15.118  24.161  0.00  0.00    +0.000 C 
ATOM      4  S   UNL     1      -0.840  15.918  25.380  0.00  0.00    +0.000 S 
ATOM      5  N   UNL     1      -2.787  15.598  23.625  0.00  0.00    +0.000 N 
ATOM      6  N   UNL     1      -3.544  14.965  22.690  0.00  0.00    +0.000 NA
ATOM      7  C   UNL     1      -3.086  13.885  22.140  0.00  0.00    +0.000 C 
ATOM      8  N   UNL     1      -3.858  13.225  21.118  0.00  0.00    +0.000 N 
ATOM      9  C   UNL     1      -5.299  13.142  21.034  0.00  0.00    +0.000 A 
ATOM     10  C   UNL     1      -5.587  12.456  19.844  0.00  0.00    +0.000 A 
ATOM     11  C   UNL     1      -4.374  12.083  19.196  0.00  0.00    +0.000 A 
ATOM     12  C   UNL     1      -4.070  11.374  17.997  0.00  0.00    +0.000 A 
ATOM     13  C   UNL     1      -2.751  11.233  17.556  0.00  0.00    +0.000 A 
ATOM     14  C   UNL     1      -1.714  11.785  18.293  0.00  0.00    +0.000 A 
ATOM     15  C   UNL     1      -1.990  12.476  19.478  0.00  0.00    +0.000 A 
ATOM     16  C   UNL     1      -3.317  12.597  19.963  0.00  0.00    +0.000 A 
ATOM     17  H   UNL     1      -0.259  13.669  24.012  0.00  0.00    +0.000 HD
ATOM     18  H   UNL     1      -3.206  16.419  24.052  0.00  0.00    +0.000 HD
ENDROOT
BRANCH   9  19
ATOM     19  C   UNL     1      -6.261  13.580  22.110  0.00  0.00    +0.000 A 
ATOM     20  C   UNL     1      -6.964  14.788  22.069  0.00  0.00    +0.000 A 
ATOM     21  C   UNL     1      -7.694  15.268  23.167  0.00  0.00    +0.000 A 
ATOM     22  C   UNL     1      -7.916  14.453  24.264  0.00  0.00    +0.000 A 
ATOM     23  C   UNL     1      -7.390  13.170  24.259  0.00  0.00    +0.000 A 
ATOM     24  C   UNL     1      -6.531  12.768  23.224  0.00  0.00    +0.000 A 
ENDBRANCH   9  19
BRANCH   1  25
ATOM     25  N   UNL     1      -1.601  11.967  22.708  0.00  0.00    +0.000 NA
ATOM     26  H   UNL     1      -2.204  11.744  23.500  0.00  0.00    +0.000 HD
ATOM     27  H   UNL     1      -0.668  11.679  22.977  0.00  0.00    +0.000 HD
ENDBRANCH   1  25
BRANCH  10  28
ATOM     28  S   UNL     1      -7.160  12.050  19.174  0.00  0.00    +0.000 S 
ATOM     29  O   UNL     1      -7.917  13.275  19.114  0.00  0.00    +0.000 OA
ATOM     30  O   UNL     1      -6.876  11.273  17.983  0.00  0.00    +0.000 OA
BRANCH  28  31
ATOM     31  N   UNL     1      -7.916  11.019  20.243  0.00  0.00    +0.000 NA
ATOM     32  H   UNL     1      -7.571  11.046  21.200  0.00  0.00    +0.000 HD
ATOM     33  H   UNL     1      -8.197  10.121  19.865  0.00  0.00    +0.000 HD
ENDBRANCH  28  31
ENDBRANCH  10  28
BRANCH  13  34
ATOM     34  N   UNL     1      -2.456  10.531  16.301  0.00  0.00    +0.000 N 
ATOM     35  O   UNL     1      -2.945  10.987  15.256  0.00  0.00    +0.000 OA
ATOM     36  O   UNL     1      -1.749   9.515  16.362  0.00  0.00    +0.000 OA
ENDBRANCH  13  34
TORSDOF 5
ENDMDL
MODEL 5
REMARK VINA RESULT:      -7.0      0.973      1.420
REMARK  Name = 
REMARK  5 active torsions:
REMARK  status: ('A' for Active; 'I' for Inactive)
REMARK    1  A    between atoms: N_1  and  C_2
REMARK    2  A    between atoms: C_10  and  C_11
REMARK    3  A    between atoms: C_17  and  S_18
REMARK    4  A    between atoms: S_18  and  N_19
REMARK    5  A    between atoms: C_24  and  N_25
REMARK                            x       y       z     vdW  Elec       q    Type
REMARK                         _______ _______ _______ _____ _____    ______ ____
ROOT
ATOM      1  C   UNL     1      -0.774  13.952  19.819  0.00  0.00    +0.000 C 
ATOM      2  N   UNL     1       0.516  14.038  19.209  0.00  0.00    +0.000 N 
ATOM      3  C   UNL     1       1.183  12.926  18.808  0.00  0.00    +0.000 C 
ATOM      4  S   UNL     1       2.796  12.983  18.418  0.00  0.00    +0.000 S 
ATOM      5  N   UNL     1       0.464  11.776  18.710  0.00  0.00    +0.000 N 
ATOM      6  N   UNL     1      -0.874  11.663  18.924  0.00  0.00    +0.000 NA
ATOM      7  C   UNL     1      -1.520  12.680  19.399  0.00  0.00    +0.000 C 
ATOM      8  N   UNL     1      -2.930  12.563  19.670  0.00  0.00    +0.000 N 
ATOM      9  C   UNL     1      -3.895  11.780  18.932  0.00  0.00    +0.000 A 
ATOM     10  C   UNL     1      -5.120  11.931  19.598  0.00  0.00    +0.000 A 
ATOM     11  C   UNL     1      -4.960  12.806  20.712  0.00  0.00    +0.000 A 
ATOM     12  C   UNL     1      -5.845  13.317  21.706  0.00  0.00    +0.000 A 
ATOM     13  C   UNL     1      -5.373  14.108  22.756  0.00  0.00    +0.000 A 
ATOM     14  C   UNL     1      -4.023  14.411  22.839  0.00  0.00    +0.000 A 
ATOM     15  C   UNL     1      -3.137  13.928  21.869  0.00  0.00    +0.000 A 
ATOM     16  C   UNL     1      -3.602  13.156  20.774  0.00  0.00    +0.000 A 
ATOM     17  H   UNL     1       1.101  14.842  19.383  0.00  0.00    +0.000 HD
ATOM     18  H   UNL     1       0.918  10.964  18.303  0.00  0.00    +0.000 HD
ENDROOT
BRANCH   9  19
ATOM     19  C   UNL     1      -3.630  11.079  17.623  0.00  0.00    +0.000 A 
ATOM     20  C   UNL     1      -3.024   9.822  17.530  0.00  0.00    +0.000 A 
ATOM     21  C   UNL     1      -2.605   9.280  16.306  0.00  0.00    +0.000 A 
ATOM     22  C   UNL     1      -2.972   9.886  15.116  0.00  0.00    +0.000 A 
ATOM     23  C   UNL     1      -3.740  11.040  15.164  0.00  0.00    +0.000 A 
ATOM     24  C   UNL     1      -4.011  11.651  16.398  0.00  0.00    +0.000 A 
ENDBRANCH   9  19
BRANCH   1  25
ATOM     25  N   UNL     1      -1.407  15.168  19.357  0.00  0.00    +0.000 NA
ATOM     26  H   UNL     1      -1.795  15.007  18.427  0.00  0.00    +0.000 HD
ATOM     27  H   UNL     1      -0.740  15.923  19.254  0.00  0.00    +0.000 HD
ENDBRANCH   1  25
BRANCH  10  28
ATOM     28  S   UNL     1      -6.675  11.216  19.198  0.00  0.00    +0.000 S 
ATOM     29  O   UNL     1      -6.453   9.801  19.035  0.00  0.00    +0.000 OA
ATOM     30  O   UNL     1      -7.597  11.731  20.191  0.00  0.00    +0.000 OA
BRANCH  28  31
ATOM     31  N   UNL     1      -7.159  11.843  17.732  0.00  0.00    +0.000 NA
ATOM     32  H   UNL     1      -7.734  12.682  17.779  0.00  0.00    +0.000 HD
ATOM     33  H   UNL     1      -7.372  11.162  17.011  0.00  0.00    +0.000 HD
ENDBRANCH  28  31
ENDBRANCH  10  28
BRANCH  13  34
ATOM     34  N   UNL     1      -6.291  14.598  23.791  0.00  0.00    +0.000 N 
ATOM     35  O   UNL     1      -7.173  13.824  24.193  0.00  0.00    +0.000 OA
ATOM     36  O   UNL     1      -6.141  15.762  24.191  0.00  0.00    +0.000 OA
ENDBRANCH  13  34
TORSDOF 5
ENDMDL
MODEL 6
REMARK VINA RESULT:      -7.0      3.077      4.997
REMARK  Name = 
REMARK  5 active torsions:
REMARK  status: ('A' for Active; 'I' for Inactive)
REMARK    1  A    between atoms: N_1  and  C_2
REMARK    2  A    between atoms: C_10  and  C_11
REMARK    3  A    between atoms: C_17  and  S_18
REMARK    4  A    between atoms: S_18  and  N_19
REMARK    5  A    between atoms: C_24  and  N_25
REMARK                            x       y       z     vdW  Elec       q    Type
REMARK                         _______ _______ _______ _____ _____    ______ ____
ROOT
ATOM      1  C   UNL     1      -4.679  11.297  17.612  0.00  0.00    +0.000 C 
ATOM      2  N   UNL     1      -4.672  10.577  16.376  0.00  0.00    +0.000 N 
ATOM      3  C   UNL     1      -3.658  10.715  15.485  0.00  0.00    +0.000 C 
ATOM      4  S   UNL     1      -3.798  10.159  13.928  0.00  0.00    +0.000 S 
ATOM      5  N   UNL     1      -2.514  11.297  15.936  0.00  0.00    +0.000 N 
ATOM      6  N   UNL     1      -2.286  11.697  17.215  0.00  0.00    +0.000 NA
ATOM      7  C   UNL     1      -3.263  11.669  18.064  0.00  0.00    +0.000 C 
ATOM      8  N   UNL     1      -3.047  12.128  19.412  0.00  0.00    +0.000 N 
ATOM      9  C   UNL     1      -1.833  12.008  20.188  0.00  0.00    +0.000 A 
ATOM     10  C   UNL     1      -2.080  12.649  21.412  0.00  0.00    +0.000 A 
ATOM     11  C   UNL     1      -3.417  13.141  21.438  0.00  0.00    +0.000 A 
ATOM     12  C   UNL     1      -4.197  13.840  22.406  0.00  0.00    +0.000 A 
ATOM     13  C   UNL     1      -5.488  14.282  22.110  0.00  0.00    +0.000 A 
ATOM     14  C   UNL     1      -6.032  14.039  20.858  0.00  0.00    +0.000 A 
ATOM     15  C   UNL     1      -5.288  13.346  19.896  0.00  0.00    +0.000 A 
ATOM     16  C   UNL     1      -3.991  12.855  20.189  0.00  0.00    +0.000 A 
ATOM     17  H   UNL     1      -5.542  10.251  15.981  0.00  0.00    +0.000 HD
ATOM     18  H   UNL     1      -1.708  11.304  15.318  0.00  0.00    +0.000 HD
ENDROOT
BRANCH   9  19
ATOM     19  C   UNL     1      -0.618  11.209  19.787  0.00  0.00    +0.000 A 
ATOM     20  C   UNL     1      -0.432   9.866  20.127  0.00  0.00    +0.000 A 
ATOM     21  C   UNL     1       0.787   9.202  19.922  0.00  0.00    +0.000 A 
ATOM     22  C   UNL     1       1.788   9.802  19.176  0.00  0.00    +0.000 A 
ATOM     23  C   UNL     1       1.565  11.069  18.657  0.00  0.00    +0.000 A 
ATOM     24  C   UNL     1       0.405  11.777  19.009  0.00  0.00    +0.000 A 
ENDBRANCH   9  19
BRANCH   1  25
ATOM     25  N   UNL     1      -5.341  10.365  18.500  0.00  0.00    +0.000 NA
ATOM     26  H   UNL     1      -6.342  10.376  18.303  0.00  0.00    +0.000 HD
ATOM     27  H   UNL     1      -5.243  10.638  19.470  0.00  0.00    +0.000 HD
ENDBRANCH   1  25
BRANCH  10  28
ATOM     28  S   UNL     1      -0.991  12.853  22.775  0.00  0.00    +0.000 S 
ATOM     29  O   UNL     1      -1.627  13.774  23.683  0.00  0.00    +0.000 OA
ATOM     30  O   UNL     1      -0.635  11.508  23.183  0.00  0.00    +0.000 OA
BRANCH  28  31
ATOM     31  N   UNL     1       0.407  13.561  22.206  0.00  0.00    +0.000 NA
ATOM     32  H   UNL     1       1.065  13.873  22.918  0.00  0.00    +0.000 HD
ATOM     33  H   UNL     1       0.304  14.131  21.374  0.00  0.00    +0.000 HD
ENDBRANCH  28  31
ENDBRANCH  10  28
BRANCH  13  34
ATOM     34  N   UNL     1      -6.266  15.031  23.105  0.00  0.00    +0.000 N 
ATOM     35  O   UNL     1      -7.491  14.843  23.142  0.00  0.00    +0.000 OA
ATOM     36  O   UNL     1      -5.653  15.821  23.839  0.00  0.00    +0.000 OA
ENDBRANCH  13  34
TORSDOF 5
ENDMDL
MODEL 7
REMARK VINA RESULT:      -6.9      0.834      1.152
REMARK  Name = 
REMARK  5 active torsions:
REMARK  status: ('A' for Active; 'I' for Inactive)
REMARK    1  A    between atoms: N_1  and  C_2
REMARK    2  A    between atoms: C_10  and  C_11
REMARK    3  A    between atoms: C_17  and  S_18
REMARK    4  A    between atoms: S_18  and  N_19
REMARK    5  A    between atoms: C_24  and  N_25
REMARK                            x       y       z     vdW  Elec       q    Type
REMARK                         _______ _______ _______ _____ _____    ______ ____
ROOT
ATOM      1  C   UNL     1      -0.908  14.127  20.026  0.00  0.00    +0.000 C 
ATOM      2  N   UNL     1       0.400  14.277  19.468  0.00  0.00    +0.000 N 
ATOM      3  C   UNL     1       1.129  13.202  19.078  0.00  0.00    +0.000 C 
ATOM      4  S   UNL     1       2.751  13.333  18.751  0.00  0.00    +0.000 S 
ATOM      5  N   UNL     1       0.464  12.023  18.937  0.00  0.00    +0.000 N 
ATOM      6  N   UNL     1      -0.874  11.850  19.098  0.00  0.00    +0.000 NA
ATOM      7  C   UNL     1      -1.581  12.831  19.562  0.00  0.00    +0.000 C 
ATOM      8  N   UNL     1      -2.994  12.650  19.776  0.00  0.00    +0.000 N 
ATOM      9  C   UNL     1      -3.896  11.837  18.991  0.00  0.00    +0.000 A 
ATOM     10  C   UNL     1      -5.151  11.925  19.612  0.00  0.00    +0.000 A 
ATOM     11  C   UNL     1      -5.071  12.790  20.742  0.00  0.00    +0.000 A 
ATOM     12  C   UNL     1      -6.015  13.247  21.708  0.00  0.00    +0.000 A 
ATOM     13  C   UNL     1      -5.617  14.042  22.786  0.00  0.00    +0.000 A 
ATOM     14  C   UNL     1      -4.285  14.401  22.926  0.00  0.00    +0.000 A 
ATOM     15  C   UNL     1      -3.344  13.971  21.984  0.00  0.00    +0.000 A 
ATOM     16  C   UNL     1      -3.733  13.196  20.862  0.00  0.00    +0.000 A 
ATOM     17  H   UNL     1       0.942  15.103  19.676  0.00  0.00    +0.000 HD
ATOM     18  H   UNL     1       0.968  11.237  18.537  0.00  0.00    +0.000 HD
ENDROOT
BRANCH   9  19
ATOM     19  C   UNL     1      -3.552  11.168  17.683  0.00  0.00    +0.000 A 
ATOM     20  C   UNL     1      -3.879  11.704  16.435  0.00  0.00    +0.000 A 
ATOM     21  C   UNL     1      -3.733  10.976  15.244  0.00  0.00    +0.000 A 
ATOM     22  C   UNL     1      -3.057   9.768  15.247  0.00  0.00    +0.000 A 
ATOM     23  C   UNL     1      -2.549   9.291  16.446  0.00  0.00    +0.000 A 
ATOM     24  C   UNL     1      -2.845   9.954  17.647  0.00  0.00    +0.000 A 
ENDBRANCH   9  19
BRANCH   1  25
ATOM     25  N   UNL     1      -1.575  15.322  19.557  0.00  0.00    +0.000 NA
ATOM     26  H   UNL     1      -2.386  15.051  19.001  0.00  0.00    +0.000 HD
ATOM     27  H   UNL     1      -0.983  15.865  18.941  0.00  0.00    +0.000 HD
ENDBRANCH   1  25
BRANCH  10  28
ATOM     28  S   UNL     1      -6.657  11.151  19.142  0.00  0.00    +0.000 S 
ATOM     29  O   UNL     1      -6.376   9.745  19.000  0.00  0.00    +0.000 OA
ATOM     30  O   UNL     1      -7.645  11.636  20.086  0.00  0.00    +0.000 OA
BRANCH  28  31
ATOM     31  N   UNL     1      -7.093  11.752  17.650  0.00  0.00    +0.000 NA
ATOM     32  H   UNL     1      -7.854  11.264  17.183  0.00  0.00    +0.000 HD
ATOM     33  H   UNL     1      -6.332  12.101  17.077  0.00  0.00    +0.000 HD
ENDBRANCH  28  31
ENDBRANCH  10  28
BRANCH  13  34
ATOM     34  N   UNL     1      -6.594  14.476  23.792  0.00  0.00    +0.000 N 
ATOM     35  O   UNL     1      -6.568  15.664  24.148  0.00  0.00    +0.000 OA
ATOM     36  O   UNL     1      -7.377  13.625  24.239  0.00  0.00    +0.000 OA
ENDBRANCH  13  34
TORSDOF 5
ENDMDL
MODEL 8
REMARK VINA RESULT:      -6.8      3.459      6.277
REMARK  Name = 
REMARK  5 active torsions:
REMARK  status: ('A' for Active; 'I' for Inactive)
REMARK    1  A    between atoms: N_1  and  C_2
REMARK    2  A    between atoms: C_10  and  C_11
REMARK    3  A    between atoms: C_17  and  S_18
REMARK    4  A    between atoms: S_18  and  N_19
REMARK    5  A    between atoms: C_24  and  N_25
REMARK                            x       y       z     vdW  Elec       q    Type
REMARK                         _______ _______ _______ _____ _____    ______ ____
ROOT
ATOM      1  C   UNL     1      -1.343  13.647  22.893  0.00  0.00    +0.000 C 
ATOM      2  N   UNL     1      -1.623  14.441  24.049  0.00  0.00    +0.000 N 
ATOM      3  C   UNL     1      -2.372  15.569  23.967  0.00  0.00    +0.000 C 
ATOM      4  S   UNL     1      -2.421  16.664  25.212  0.00  0.00    +0.000 S 
ATOM      5  N   UNL     1      -3.105  15.742  22.834  0.00  0.00    +0.000 N 
ATOM      6  N   UNL     1      -3.191  14.854  21.808  0.00  0.00    +0.000 NA
ATOM      7  C   UNL     1      -2.416  13.817  21.812  0.00  0.00    +0.000 C 
ATOM      8  N   UNL     1      -2.467  12.887  20.711  0.00  0.00    +0.000 N 
ATOM      9  C   UNL     1      -3.630  12.521  19.936  0.00  0.00    +0.000 A 
ATOM     10  C   UNL     1      -3.182  11.636  18.943  0.00  0.00    +0.000 A 
ATOM     11  C   UNL     1      -1.781  11.415  19.090  0.00  0.00    +0.000 A 
ATOM     12  C   UNL     1      -0.825  10.619  18.393  0.00  0.00    +0.000 A 
ATOM     13  C   UNL     1       0.533  10.673  18.718  0.00  0.00    +0.000 A 
ATOM     14  C   UNL     1       0.968  11.507  19.735  0.00  0.00    +0.000 A 
ATOM     15  C   UNL     1       0.045  12.289  20.440  0.00  0.00    +0.000 A 
ATOM     16  C   UNL     1      -1.342  12.221  20.152  0.00  0.00    +0.000 A 
ATOM     17  H   UNL     1      -1.004  14.401  24.846  0.00  0.00    +0.000 HD
ATOM     18  H   UNL     1      -3.759  16.519  22.804  0.00  0.00    +0.000 HD
ENDROOT
BRANCH   9  19
ATOM     19  C   UNL     1      -5.051  12.912  20.258  0.00  0.00    +0.000 A 
ATOM     20  C   UNL     1      -5.778  12.366  21.319  0.00  0.00    +0.000 A 
ATOM     21  C   UNL     1      -7.155  12.589  21.480  0.00  0.00    +0.000 A 
ATOM     22  C   UNL     1      -7.799  13.536  20.702  0.00  0.00    +0.000 A 
ATOM     23  C   UNL     1      -7.064  14.239  19.760  0.00  0.00    +0.000 A 
ATOM     24  C   UNL     1      -5.729  13.887  19.507  0.00  0.00    +0.000 A 
ENDBRANCH   9  19
BRANCH   1  25
ATOM     25  N   UNL     1      -1.292  12.313  23.449  0.00  0.00    +0.000 NA
ATOM     26  H   UNL     1      -0.690  12.321  24.272  0.00  0.00    +0.000 HD
ATOM     27  H   UNL     1      -0.873  11.653  22.803  0.00  0.00    +0.000 HD
ENDBRANCH   1  25
BRANCH  10  28
ATOM     28  S   UNL     1      -4.116  10.850  17.680  0.00  0.00    +0.000 S 
ATOM     29  O   UNL     1      -3.283   9.807  17.134  0.00  0.00    +0.000 OA
ATOM     30  O   UNL     1      -5.401  10.558  18.283  0.00  0.00    +0.000 OA
BRANCH  28  31
ATOM     31  N   UNL     1      -4.399  11.975  16.483  0.00  0.00    +0.000 NA
ATOM     32  H   UNL     1      -4.939  11.645  15.686  0.00  0.00    +0.000 HD
ATOM     33  H   UNL     1      -3.644  12.628  16.306  0.00  0.00    +0.000 HD
ENDBRANCH  28  31
ENDBRANCH  10  28
BRANCH  13  34
ATOM     34  N   UNL     1       1.510   9.874  17.967  0.00  0.00    +0.000 N 
ATOM     35  O   UNL     1       2.533  10.446  17.562  0.00  0.00    +0.000 OA
ATOM     36  O   UNL     1       1.246   8.680  17.769  0.00  0.00    +0.000 OA
ENDBRANCH  13  34
TORSDOF 5
ENDMDL
MODEL 9
REMARK VINA RESULT:      -6.8      2.684      6.132
REMARK  Name = 
REMARK  5 active torsions:
REMARK  status: ('A' for Active; 'I' for Inactive)
REMARK    1  A    between atoms: N_1  and  C_2
REMARK    2  A    between atoms: C_10  and  C_11
REMARK    3  A    between atoms: C_17  and  S_18
REMARK    4  A    between atoms: S_18  and  N_19
REMARK    5  A    between atoms: C_24  and  N_25
REMARK                            x       y       z     vdW  Elec       q    Type
REMARK                         _______ _______ _______ _____ _____    ______ ____
ROOT
ATOM      1  C   UNL     1      -1.428  13.511  22.205  0.00  0.00    +0.000 C 
ATOM      2  N   UNL     1      -0.876  14.097  23.387  0.00  0.00    +0.000 N 
ATOM      3  C   UNL     1      -1.346  15.271  23.879  0.00  0.00    +0.000 C 
ATOM      4  S   UNL     1      -0.506  16.120  25.032  0.00  0.00    +0.000 S 
ATOM      5  N   UNL     1      -2.548  15.700  23.410  0.00  0.00    +0.000 N 
ATOM      6  N   UNL     1      -3.339  15.024  22.534  0.00  0.00    +0.000 NA
ATOM      7  C   UNL     1      -2.878  13.952  21.974  0.00  0.00    +0.000 C 
ATOM      8  N   UNL     1      -3.688  13.246  21.014  0.00  0.00    +0.000 N 
ATOM      9  C   UNL     1      -5.127  13.112  21.023  0.00  0.00    +0.000 A 
ATOM     10  C   UNL     1      -5.465  12.395  19.865  0.00  0.00    +0.000 A 
ATOM     11  C   UNL     1      -4.283  12.052  19.147  0.00  0.00    +0.000 A 
ATOM     12  C   UNL     1      -4.029  11.332  17.943  0.00  0.00    +0.000 A 
ATOM     13  C   UNL     1      -2.736  11.229  17.422  0.00  0.00    +0.000 A 
ATOM     14  C   UNL     1      -1.675  11.829  18.082  0.00  0.00    +0.000 A 
ATOM     15  C   UNL     1      -1.901  12.532  19.272  0.00  0.00    +0.000 A 
ATOM     16  C   UNL     1      -3.198  12.616  19.837  0.00  0.00    +0.000 A 
ATOM     17  H   UNL     1       0.067  13.868  23.667  0.00  0.00    +0.000 HD
ATOM     18  H   UNL     1      -2.967  16.514  23.849  0.00  0.00    +0.000 HD
ENDROOT
BRANCH   9  19
ATOM     19  C   UNL     1      -6.036  13.536  22.150  0.00  0.00    +0.000 A 
ATOM     20  C   UNL     1      -6.286  12.748  23.277  0.00  0.00    +0.000 A 
ATOM     21  C   UNL     1      -7.283  13.067  24.211  0.00  0.00    +0.000 A 
ATOM     22  C   UNL     1      -7.916  14.298  24.157  0.00  0.00    +0.000 A 
ATOM     23  C   UNL     1      -7.556  15.190  23.157  0.00  0.00    +0.000 A 
ATOM     24  C   UNL     1      -6.674  14.788  22.142  0.00  0.00    +0.000 A 
ENDBRANCH   9  19
BRANCH   1  25
ATOM     25  N   UNL     1      -1.293  12.097  22.478  0.00  0.00    +0.000 NA
ATOM     26  H   UNL     1      -0.634  11.970  23.246  0.00  0.00    +0.000 HD
ATOM     27  H   UNL     1      -0.901  11.598  21.688  0.00  0.00    +0.000 HD
ENDBRANCH   1  25
BRANCH  10  28
ATOM     28  S   UNL     1      -7.061  11.922  19.302  0.00  0.00    +0.000 S 
ATOM     29  O   UNL     1      -7.503  10.849  20.156  0.00  0.00    +0.000 OA
ATOM     30  O   UNL     1      -7.807  13.160  19.189  0.00  0.00    +0.000 OA
BRANCH  28  31
ATOM     31  N   UNL     1      -6.896  11.325  17.754  0.00  0.00    +0.000 NA
ATOM     32  H   UNL     1      -6.334  11.889  17.121  0.00  0.00    +0.000 HD
ATOM     33  H   UNL     1      -7.711  10.856  17.375  0.00  0.00    +0.000 HD
ENDBRANCH  28  31
ENDBRANCH  10  28
BRANCH  13  34
ATOM     34  N   UNL     1      -2.496  10.515  16.162  0.00  0.00    +0.000 N 
ATOM     35  O   UNL     1      -2.112   9.338  16.230  0.00  0.00    +0.000 OA
ATOM     36  O   UNL     1      -2.674  11.137  15.105  0.00  0.00    +0.000 OA
ENDBRANCH  13  34
TORSDOF 5
ENDMDL
