MODEL 1
REMARK VINA RESULT:      -5.4      0.000      0.000
REMARK  Name = 
REMARK  4 active torsions:
REMARK  status: ('A' for Active; 'I' for Inactive)
REMARK    1  A    between atoms: C_1  and  N_2
REMARK    2  A    between atoms: C_3  and  S_4
REMARK    3  A    between atoms: N_5  and  C_6
REMARK    4  A    between atoms: N_5  and  C_7
REMARK                            x       y       z     vdW  Elec       q    Type
REMARK                         _______ _______ _______ _____ _____    ______ ____
ROOT
ATOM      1  C   UNL     1       7.894   8.016  17.702  0.00  0.00    +0.000 C 
ATOM      2  N   UNL     1       6.882   7.261  16.991  0.00  0.00    +0.000 NA
ATOM      3  C   UNL     1       6.303   6.205  17.459  0.00  0.00    +0.000 C 
ATOM      4  N   UNL     1       5.408   5.470  16.683  0.00  0.00    +0.000 N 
ATOM      5  C   UNL     1       5.515   5.533  15.224  0.00  0.00    +0.000 C 
ENDROOT
BRANCH   4   6
ATOM      6  C   UNL     1       4.212   4.858  17.150  0.00  0.00    +0.000 A 
ATOM      7  C   UNL     1       3.164   5.607  17.711  0.00  0.00    +0.000 A 
ATOM      8  C   UNL     1       1.987   4.999  18.165  0.00  0.00    +0.000 A 
ATOM      9  C   UNL     1       1.825   3.621  18.057  0.00  0.00    +0.000 A 
ATOM     10  C   UNL     1       2.839   2.855  17.497  0.00  0.00    +0.000 A 
ATOM     11  C   UNL     1       4.017   3.466  17.052  0.00  0.00    +0.000 A 
ENDBRANCH   4   6
BRANCH   3  12
ATOM     12  S   UNL     1       6.693   5.541  19.058  0.00  0.00    +0.000 S 
ATOM     13  H   UNL     1       5.507   4.983  19.312  0.00  0.00    +0.000 HD
ENDBRANCH   3  12
TORSDOF 2
ENDMDL
MODEL 2
REMARK VINA RESULT:      -5.3      0.347      1.426
REMARK  Name = 
REMARK  4 active torsions:
REMARK  status: ('A' for Active; 'I' for Inactive)
REMARK    1  A    between atoms: C_1  and  N_2
REMARK    2  A    between atoms: C_3  and  S_4
REMARK    3  A    between atoms: N_5  and  C_6
REMARK    4  A    between atoms: N_5  and  C_7
REMARK                            x       y       z     vdW  Elec       q    Type
REMARK                         _______ _______ _______ _____ _____    ______ ____
ROOT
ATOM      1  C   UNL     1       7.717   7.781  17.532  0.00  0.00    +0.000 C 
ATOM      2  N   UNL     1       6.735   6.944  16.873  0.00  0.00    +0.000 NA
ATOM      3  C   UNL     1       6.151   5.935  17.432  0.00  0.00    +0.000 C 
ATOM      4  N   UNL     1       5.287   5.113  16.710  0.00  0.00    +0.000 N 
ATOM      5  C   UNL     1       5.441   5.024  15.256  0.00  0.00    +0.000 C 
ENDROOT
BRANCH   4   6
ATOM      6  C   UNL     1       4.083   4.539  17.201  0.00  0.00    +0.000 A 
ATOM      7  C   UNL     1       3.873   3.150  17.215  0.00  0.00    +0.000 A 
ATOM      8  C   UNL     1       2.685   2.591  17.704  0.00  0.00    +0.000 A 
ATOM      9  C   UNL     1       1.680   3.412  18.205  0.00  0.00    +0.000 A 
ATOM     10  C   UNL     1       1.863   4.789  18.215  0.00  0.00    +0.000 A 
ATOM     11  C   UNL     1       3.048   5.344  17.718  0.00  0.00    +0.000 A 
ENDBRANCH   4   6
BRANCH   3  12
ATOM     12  S   UNL     1       6.495   5.448  19.103  0.00  0.00    +0.000 S 
ATOM     13  H   UNL     1       6.866   4.190  18.847  0.00  0.00    +0.000 HD
ENDBRANCH   3  12
TORSDOF 2
ENDMDL
MODEL 3
REMARK VINA RESULT:      -5.2      2.111      3.016
REMARK  Name = 
REMARK  4 active torsions:
REMARK  status: ('A' for Active; 'I' for Inactive)
REMARK    1  A    between atoms: C_1  and  N_2
REMARK    2  A    between atoms: C_3  and  S_4
REMARK    3  A    between atoms: N_5  and  C_6
REMARK    4  A    between atoms: N_5  and  C_7
REMARK                            x       y       z     vdW  Elec       q    Type
REMARK                         _______ _______ _______ _____ _____    ______ ____
ROOT
ATOM      1  C   UNL     1       6.491   6.562  16.945  0.00  0.00    +0.000 C 
ATOM      2  N   UNL     1       5.189   6.626  17.579  0.00  0.00    +0.000 NA
ATOM      3  C   UNL     1       4.384   5.621  17.683  0.00  0.00    +0.000 C 
ATOM      4  N   UNL     1       3.106   5.775  18.218  0.00  0.00    +0.000 N 
ATOM      5  C   UNL     1       2.465   7.090  18.160  0.00  0.00    +0.000 C 
ENDROOT
BRANCH   4   6
ATOM      6  C   UNL     1       2.443   4.845  19.066  0.00  0.00    +0.000 A 
ATOM      7  C   UNL     1       1.471   3.956  18.578  0.00  0.00    +0.000 A 
ATOM      8  C   UNL     1       0.825   3.040  19.417  0.00  0.00    +0.000 A 
ATOM      9  C   UNL     1       1.147   2.982  20.769  0.00  0.00    +0.000 A 
ATOM     10  C   UNL     1       2.112   3.841  21.280  0.00  0.00    +0.000 A 
ATOM     11  C   UNL     1       2.750   4.761  20.439  0.00  0.00    +0.000 A 
ENDBRANCH   4   6
BRANCH   3  12
ATOM     12  S   UNL     1       4.785   4.014  17.045  0.00  0.00    +0.000 S 
ATOM     13  H   UNL     1       3.682   3.834  16.315  0.00  0.00    +0.000 HD
ENDBRANCH   3  12
TORSDOF 2
ENDMDL
MODEL 4
REMARK VINA RESULT:      -5.2      1.864      4.843
REMARK  Name = 
REMARK  4 active torsions:
REMARK  status: ('A' for Active; 'I' for Inactive)
REMARK    1  A    between atoms: C_1  and  N_2
REMARK    2  A    between atoms: C_3  and  S_4
REMARK    3  A    between atoms: N_5  and  C_6
REMARK    4  A    between atoms: N_5  and  C_7
REMARK                            x       y       z     vdW  Elec       q    Type
REMARK                         _______ _______ _______ _____ _____    ______ ____
ROOT
ATOM      1  C   UNL     1       1.405   3.782  18.165  0.00  0.00    +0.000 C 
ATOM      2  N   UNL     1       2.748   3.899  17.634  0.00  0.00    +0.000 NA
ATOM      3  C   UNL     1       3.462   4.973  17.700  0.00  0.00    +0.000 C 
ATOM      4  N   UNL     1       4.710   5.047  17.082  0.00  0.00    +0.000 N 
ATOM      5  C   UNL     1       4.990   4.175  15.939  0.00  0.00    +0.000 C 
ENDROOT
BRANCH   4   6
ATOM      6  C   UNL     1       5.859   5.700  17.608  0.00  0.00    +0.000 A 
ATOM      7  C   UNL     1       6.572   5.183  18.703  0.00  0.00    +0.000 A 
ATOM      8  C   UNL     1       7.705   5.828  19.213  0.00  0.00    +0.000 A 
ATOM      9  C   UNL     1       8.162   7.005  18.629  0.00  0.00    +0.000 A 
ATOM     10  C   UNL     1       7.485   7.535  17.538  0.00  0.00    +0.000 A 
ATOM     11  C   UNL     1       6.348   6.892  17.036  0.00  0.00    +0.000 A 
ENDBRANCH   4   6
BRANCH   3  12
ATOM     12  S   UNL     1       2.867   6.462  18.460  0.00  0.00    +0.000 S 
ATOM     13  H   UNL     1       3.619   7.324  17.772  0.00  0.00    +0.000 HD
ENDBRANCH   3  12
TORSDOF 2
ENDMDL
MODEL 5
REMARK VINA RESULT:      -5.2      2.105      2.909
REMARK  Name = 
REMARK  4 active torsions:
REMARK  status: ('A' for Active; 'I' for Inactive)
REMARK    1  A    between atoms: C_1  and  N_2
REMARK    2  A    between atoms: C_3  and  S_4
REMARK    3  A    between atoms: N_5  and  C_6
REMARK    4  A    between atoms: N_5  and  C_7
REMARK                            x       y       z     vdW  Elec       q    Type
REMARK                         _______ _______ _______ _____ _____    ______ ____
ROOT
ATOM      1  C   UNL     1       6.494   6.559  16.975  0.00  0.00    +0.000 C 
ATOM      2  N   UNL     1       5.197   6.619  17.618  0.00  0.00    +0.000 NA
ATOM      3  C   UNL     1       4.381   5.621  17.699  0.00  0.00    +0.000 C 
ATOM      4  N   UNL     1       3.108   5.774  18.246  0.00  0.00    +0.000 N 
ATOM      5  C   UNL     1       2.482   7.097  18.228  0.00  0.00    +0.000 C 
ENDROOT
BRANCH   4   6
ATOM      6  C   UNL     1       2.440   4.828  19.072  0.00  0.00    +0.000 A 
ATOM      7  C   UNL     1       2.663   4.762  20.457  0.00  0.00    +0.000 A 
ATOM      8  C   UNL     1       1.999   3.831  21.265  0.00  0.00    +0.000 A 
ATOM      9  C   UNL     1       1.081   2.948  20.706  0.00  0.00    +0.000 A 
ATOM     10  C   UNL     1       0.830   2.996  19.340  0.00  0.00    +0.000 A 
ATOM     11  C   UNL     1       1.502   3.923  18.535  0.00  0.00    +0.000 A 
ENDBRANCH   4   6
BRANCH   3  12
ATOM     12  S   UNL     1       4.762   4.028  17.015  0.00  0.00    +0.000 S 
ATOM     13  H   UNL     1       4.471   3.298  18.095  0.00  0.00    +0.000 HD
ENDBRANCH   3  12
TORSDOF 2
ENDMDL
MODEL 6
REMARK VINA RESULT:      -5.2      2.599      4.974
REMARK  Name = 
REMARK  4 active torsions:
REMARK  status: ('A' for Active; 'I' for Inactive)
REMARK    1  A    between atoms: C_1  and  N_2
REMARK    2  A    between atoms: C_3  and  S_4
REMARK    3  A    between atoms: N_5  and  C_6
REMARK    4  A    between atoms: N_5  and  C_7
REMARK                            x       y       z     vdW  Elec       q    Type
REMARK                         _______ _______ _______ _____ _____    ______ ____
ROOT
ATOM      1  C   UNL     1       0.650   2.538  18.998  0.00  0.00    +0.000 C 
ATOM      2  N   UNL     1       1.658   3.569  18.851  0.00  0.00    +0.000 NA
ATOM      3  C   UNL     1       2.905   3.334  18.609  0.00  0.00    +0.000 C 
ATOM      4  N   UNL     1       3.840   4.368  18.576  0.00  0.00    +0.000 N 
ATOM      5  C   UNL     1       3.566   5.597  19.324  0.00  0.00    +0.000 C 
ENDROOT
BRANCH   4   6
ATOM      6  C   UNL     1       4.931   4.472  17.671  0.00  0.00    +0.000 A 
ATOM      7  C   UNL     1       4.742   4.506  16.279  0.00  0.00    +0.000 A 
ATOM      8  C   UNL     1       5.821   4.613  15.393  0.00  0.00    +0.000 A 
ATOM      9  C   UNL     1       7.121   4.703  15.881  0.00  0.00    +0.000 A 
ATOM     10  C   UNL     1       7.340   4.683  17.252  0.00  0.00    +0.000 A 
ATOM     11  C   UNL     1       6.259   4.568  18.135  0.00  0.00    +0.000 A 
ENDBRANCH   4   6
BRANCH   3  12
ATOM     12  S   UNL     1       3.541   1.687  18.427  0.00  0.00    +0.000 S 
ATOM     13  H   UNL     1       2.585   1.053  19.109  0.00  0.00    +0.000 HD
ENDBRANCH   3  12
TORSDOF 2
ENDMDL
MODEL 7
REMARK VINA RESULT:      -5.2      2.619      4.938
REMARK  Name = 
REMARK  4 active torsions:
REMARK  status: ('A' for Active; 'I' for Inactive)
REMARK    1  A    between atoms: C_1  and  N_2
REMARK    2  A    between atoms: C_3  and  S_4
REMARK    3  A    between atoms: N_5  and  C_6
REMARK    4  A    between atoms: N_5  and  C_7
REMARK                            x       y       z     vdW  Elec       q    Type
REMARK                         _______ _______ _______ _____ _____    ______ ____
ROOT
ATOM      1  C   UNL     1       0.692   2.729  19.261  0.00  0.00    +0.000 C 
ATOM      2  N   UNL     1       1.745   3.707  19.075  0.00  0.00    +0.000 NA
ATOM      3  C   UNL     1       2.958   3.412  18.743  0.00  0.00    +0.000 C 
ATOM      4  N   UNL     1       3.946   4.394  18.676  0.00  0.00    +0.000 N 
ATOM      5  C   UNL     1       3.791   5.612  19.474  0.00  0.00    +0.000 C 
ENDROOT
BRANCH   4   6
ATOM      6  C   UNL     1       4.979   4.466  17.702  0.00  0.00    +0.000 A 
ATOM      7  C   UNL     1       6.334   4.562  18.062  0.00  0.00    +0.000 A 
ATOM      8  C   UNL     1       7.348   4.629  17.098  0.00  0.00    +0.000 A 
ATOM      9  C   UNL     1       7.030   4.588  15.744  0.00  0.00    +0.000 A 
ATOM     10  C   UNL     1       5.700   4.483  15.357  0.00  0.00    +0.000 A 
ATOM     11  C   UNL     1       4.689   4.424  16.323  0.00  0.00    +0.000 A 
ENDBRANCH   4   6
BRANCH   3  12
ATOM     12  S   UNL     1       3.487   1.739  18.475  0.00  0.00    +0.000 S 
ATOM     13  H   UNL     1       4.105   1.560  19.645  0.00  0.00    +0.000 HD
ENDBRANCH   3  12
TORSDOF 2
ENDMDL
MODEL 8
REMARK VINA RESULT:      -5.1      2.271      4.920
REMARK  Name = 
REMARK  4 active torsions:
REMARK  status: ('A' for Active; 'I' for Inactive)
REMARK    1  A    between atoms: C_1  and  N_2
REMARK    2  A    between atoms: C_3  and  S_4
REMARK    3  A    between atoms: N_5  and  C_6
REMARK    4  A    between atoms: N_5  and  C_7
REMARK                            x       y       z     vdW  Elec       q    Type
REMARK                         _______ _______ _______ _____ _____    ______ ____
ROOT
ATOM      1  C   UNL     1       1.149   3.968  20.177  0.00  0.00    +0.000 C 
ATOM      2  N   UNL     1       2.338   3.850  19.359  0.00  0.00    +0.000 NA
ATOM      3  C   UNL     1       3.038   4.856  18.948  0.00  0.00    +0.000 C 
ATOM      4  N   UNL     1       4.117   4.677  18.083  0.00  0.00    +0.000 N 
ATOM      5  C   UNL     1       4.144   3.497  17.216  0.00  0.00    +0.000 C 
ENDROOT
BRANCH   4   6
ATOM      6  C   UNL     1       5.347   5.388  18.132  0.00  0.00    +0.000 A 
ATOM      7  C   UNL     1       6.301   5.156  19.137  0.00  0.00    +0.000 A 
ATOM      8  C   UNL     1       7.513   5.856  19.177  0.00  0.00    +0.000 A 
ATOM      9  C   UNL     1       7.806   6.802  18.200  0.00  0.00    +0.000 A 
ATOM     10  C   UNL     1       6.888   7.047  17.186  0.00  0.00    +0.000 A 
ATOM     11  C   UNL     1       5.674   6.350  17.155  0.00  0.00    +0.000 A 
ENDBRANCH   4   6
BRANCH   3  12
ATOM     12  S   UNL     1       2.612   6.532  19.346  0.00  0.00    +0.000 S 
ATOM     13  H   UNL     1       2.493   6.375  20.666  0.00  0.00    +0.000 HD
ENDBRANCH   3  12
TORSDOF 2
ENDMDL
MODEL 9
REMARK VINA RESULT:      -5.1      1.812      4.755
REMARK  Name = 
REMARK  4 active torsions:
REMARK  status: ('A' for Active; 'I' for Inactive)
REMARK    1  A    between atoms: C_1  and  N_2
REMARK    2  A    between atoms: C_3  and  S_4
REMARK    3  A    between atoms: N_5  and  C_6
REMARK    4  A    between atoms: N_5  and  C_7
REMARK                            x       y       z     vdW  Elec       q    Type
REMARK                         _______ _______ _______ _____ _____    ______ ____
ROOT
ATOM      1  C   UNL     1       2.110   2.707  18.193  0.00  0.00    +0.000 C 
ATOM      2  N   UNL     1       3.327   3.167  17.555  0.00  0.00    +0.000 NA
ATOM      3  C   UNL     1       3.826   4.348  17.713  0.00  0.00    +0.000 C 
ATOM      4  N   UNL     1       4.947   4.758  16.993  0.00  0.00    +0.000 N 
ATOM      5  C   UNL     1       5.240   4.118  15.709  0.00  0.00    +0.000 C 
ENDROOT
BRANCH   4   6
ATOM      6  C   UNL     1       6.008   5.560  17.496  0.00  0.00    +0.000 A 
ATOM      7  C   UNL     1       6.285   6.836  16.977  0.00  0.00    +0.000 A 
ATOM      8  C   UNL     1       7.329   7.623  17.479  0.00  0.00    +0.000 A 
ATOM      9  C   UNL     1       8.117   7.155  18.526  0.00  0.00    +0.000 A 
ATOM     10  C   UNL     1       7.861   5.901  19.067  0.00  0.00    +0.000 A 
ATOM     11  C   UNL     1       6.822   5.114  18.557  0.00  0.00    +0.000 A 
ENDBRANCH   4   6
BRANCH   3  12
ATOM     12  S   UNL     1       3.059   5.570  18.746  0.00  0.00    +0.000 S 
ATOM     13  H   UNL     1       3.990   6.519  18.616  0.00  0.00    +0.000 HD
ENDBRANCH   3  12
TORSDOF 2
ENDMDL
