MODEL 1
REMARK VINA RESULT:      -7.9      0.000      0.000
REMARK  Name = 
REMARK  11 active torsions:
REMARK  status: ('A' for Active; 'I' for Inactive)
REMARK    1  A    between atoms: C_1  and  C_2
REMARK    2  A    between atoms: C_2  and  C_3
REMARK    3  A    between atoms: C_3  and  N_4
REMARK    4  A    between atoms: C_9  and  C_10
REMARK    5  A    between atoms: C_13  and  O_14
REMARK    6  A    between atoms: O_14  and  C_15
REMARK    7  A    between atoms: C_15  and  C_16
REMARK    8  A    between atoms: N_18  and  C_19
REMARK    9  A    between atoms: C_22  and  O_23
REMARK   10  A    between atoms: O_23  and  C_24
REMARK   11  A    between atoms: N_31  and  C_32
REMARK                            x       y       z     vdW  Elec       q    Type
REMARK                         _______ _______ _______ _____ _____    ______ ____
ROOT
ATOM      1  C   UNL     1       0.840   9.119  21.052  0.00  0.00    +0.000 A 
ATOM      2  C   UNL     1       0.025   9.088  22.186  0.00  0.00    +0.000 A 
ATOM      3  C   UNL     1      -0.553  10.264  22.683  0.00  0.00    +0.000 A 
ATOM      4  C   UNL     1      -0.320  11.495  22.071  0.00  0.00    +0.000 A 
ATOM      5  C   UNL     1       0.494  11.548  20.943  0.00  0.00    +0.000 A 
ATOM      6  C   UNL     1       1.068  10.368  20.445  0.00  0.00    +0.000 A 
ENDROOT
BRANCH   1  12
ATOM      7  N   UNL     1       4.203   4.915  18.406  0.00  0.00    +0.000 N 
ATOM      8  C   UNL     1       3.757   6.229  18.214  0.00  0.00    +0.000 A 
ATOM      9  O   UNL     1       4.166   6.984  17.337  0.00  0.00    +0.000 OA
ATOM     10  C   UNL     1       2.778   6.641  19.173  0.00  0.00    +0.000 A 
ATOM     11  N   UNL     1       2.209   7.881  19.325  0.00  0.00    +0.000 N 
ATOM     12  C   UNL     1       1.416   7.899  20.462  0.00  0.00    +0.000 A 
ATOM     13  C   UNL     1       1.379   6.586  20.921  0.00  0.00    +0.000 A 
ATOM     14  C   UNL     1       2.284   5.827  20.150  0.00  0.00    +0.000 A 
ATOM     15  N   UNL     1       2.735   4.525  20.267  0.00  0.00    +0.000 N 
ATOM     16  C   UNL     1       2.280   3.627  21.311  0.00  0.00    +0.000 C 
ATOM     17  C   UNL     1       3.766   4.065  19.436  0.00  0.00    +0.000 A 
ATOM     18  O   UNL     1       4.274   2.954  19.621  0.00  0.00    +0.000 OA
ATOM     19  H   UNL     1       2.434   8.680  18.746  0.00  0.00    +0.000 HD
BRANCH   7  20
ATOM     20  C   UNL     1       5.286   4.427  17.553  0.00  0.00    +0.000 C 
BRANCH  20  22
ATOM     21  C   UNL     1       5.882   4.025  15.107  0.00  0.00    +0.000 C 
ATOM     22  C   UNL     1       4.827   3.888  16.192  0.00  0.00    +0.000 C 
ENDBRANCH  20  22
ENDBRANCH   7  20
ENDBRANCH   1  12
BRANCH   4  23
ATOM     23  O   UNL     1      -0.974  12.561  22.638  0.00  0.00    +0.000 OA
BRANCH  23  24
ATOM     24  C   UNL     1      -2.320  12.760  22.220  0.00  0.00    +0.000 C 
BRANCH  24  25
ATOM     25  C   UNL     1      -2.476  12.872  20.699  0.00  0.00    +0.000 C 
ATOM     26  O   UNL     1      -2.032  13.859  20.116  0.00  0.00    +0.000 OA
ATOM     27  N   UNL     1      -3.141  11.812  20.102  0.00  0.00    +0.000 N 
ATOM     28  H   UNL     1      -3.576  11.151  20.739  0.00  0.00    +0.000 HD
BRANCH  27  29
ATOM     29  C   UNL     1      -3.331  11.622  18.712  0.00  0.00    +0.000 A 
ATOM     30  C   UNL     1      -4.561  11.784  18.079  0.00  0.00    +0.000 A 
ATOM     31  C   UNL     1      -4.675  11.575  16.705  0.00  0.00    +0.000 A 
ATOM     32  C   UNL     1      -3.548  11.207  15.992  0.00  0.00    +0.000 A 
ATOM     33  N   UNL     1      -2.329  11.058  16.553  0.00  0.00    +0.000 NA
ATOM     34  C   UNL     1      -2.252  11.276  17.895  0.00  0.00    +0.000 A 
BRANCH  32  35
ATOM     35  O   UNL     1      -3.742  11.004  14.640  0.00  0.00    +0.000 OA
ATOM     36  C   UNL     1      -2.952   9.957  14.095  0.00  0.00    +0.000 C 
ENDBRANCH  32  35
ENDBRANCH  27  29
ENDBRANCH  24  25
ENDBRANCH  23  24
ENDBRANCH   4  23
TORSDOF 8
ENDMDL
MODEL 2
REMARK VINA RESULT:      -7.7      3.144      9.993
REMARK  Name = 
REMARK  11 active torsions:
REMARK  status: ('A' for Active; 'I' for Inactive)
REMARK    1  A    between atoms: C_1  and  C_2
REMARK    2  A    between atoms: C_2  and  C_3
REMARK    3  A    between atoms: C_3  and  N_4
REMARK    4  A    between atoms: C_9  and  C_10
REMARK    5  A    between atoms: C_13  and  O_14
REMARK    6  A    between atoms: O_14  and  C_15
REMARK    7  A    between atoms: C_15  and  C_16
REMARK    8  A    between atoms: N_18  and  C_19
REMARK    9  A    between atoms: C_22  and  O_23
REMARK   10  A    between atoms: O_23  and  C_24
REMARK   11  A    between atoms: N_31  and  C_32
REMARK                            x       y       z     vdW  Elec       q    Type
REMARK                         _______ _______ _______ _____ _____    ______ ____
ROOT
ATOM      1  C   UNL     1       1.858   6.952  20.394  0.00  0.00    +0.000 A 
ATOM      2  C   UNL     1       3.090   6.810  19.752  0.00  0.00    +0.000 A 
ATOM      3  C   UNL     1       3.686   5.548  19.619  0.00  0.00    +0.000 A 
ATOM      4  C   UNL     1       3.076   4.407  20.136  0.00  0.00    +0.000 A 
ATOM      5  C   UNL     1       1.850   4.527  20.785  0.00  0.00    +0.000 A 
ATOM      6  C   UNL     1       1.253   5.791  20.912  0.00  0.00    +0.000 A 
ENDROOT
BRANCH   1  12
ATOM      7  N   UNL     1      -0.634  12.143  22.078  0.00  0.00    +0.000 N 
ATOM      8  C   UNL     1      -0.588  10.791  22.443  0.00  0.00    +0.000 A 
ATOM      9  O   UNL     1      -1.045  10.333  23.487  0.00  0.00    +0.000 OA
ATOM     10  C   UNL     1       0.085   9.968  21.485  0.00  0.00    +0.000 A 
ATOM     11  N   UNL     1       0.385   8.631  21.577  0.00  0.00    +0.000 N 
ATOM     12  C   UNL     1       1.169   8.249  20.499  0.00  0.00    +0.000 A 
ATOM     13  C   UNL     1       1.211   9.351  19.650  0.00  0.00    +0.000 A 
ATOM     14  C   UNL     1       0.590  10.434  20.307  0.00  0.00    +0.000 A 
ATOM     15  N   UNL     1       0.481  11.773  19.983  0.00  0.00    +0.000 N 
ATOM     16  C   UNL     1       1.036  12.335  18.765  0.00  0.00    +0.000 C 
ATOM     17  C   UNL     1      -0.072  12.673  20.904  0.00  0.00    +0.000 A 
ATOM     18  O   UNL     1      -0.049  13.889  20.687  0.00  0.00    +0.000 OA
ATOM     19  H   UNL     1       0.151   8.054  22.375  0.00  0.00    +0.000 HD
BRANCH   7  20
ATOM     20  C   UNL     1      -1.198  13.093  23.036  0.00  0.00    +0.000 C 
BRANCH  20  22
ATOM     21  C   UNL     1      -3.515  12.625  23.990  0.00  0.00    +0.000 C 
ATOM     22  C   UNL     1      -2.711  13.309  22.897  0.00  0.00    +0.000 C 
ENDBRANCH  20  22
ENDBRANCH   7  20
ENDBRANCH   1  12
BRANCH   4  23
ATOM     23  O   UNL     1       3.749   3.232  19.908  0.00  0.00    +0.000 OA
BRANCH  23  24
ATOM     24  C   UNL     1       3.326   2.483  18.774  0.00  0.00    +0.000 C 
BRANCH  24  25
ATOM     25  C   UNL     1       3.791   3.080  17.441  0.00  0.00    +0.000 C 
ATOM     26  O   UNL     1       2.959   3.347  16.575  0.00  0.00    +0.000 OA
ATOM     27  N   UNL     1       5.160   3.260  17.328  0.00  0.00    +0.000 N 
ATOM     28  H   UNL     1       5.720   2.850  18.070  0.00  0.00    +0.000 HD
BRANCH  27  29
ATOM     29  C   UNL     1       5.835   3.879  16.248  0.00  0.00    +0.000 A 
ATOM     30  C   UNL     1       5.649   3.513  14.918  0.00  0.00    +0.000 A 
ATOM     31  C   UNL     1       6.353   4.164  13.906  0.00  0.00    +0.000 A 
ATOM     32  C   UNL     1       7.233   5.174  14.252  0.00  0.00    +0.000 A 
ATOM     33  N   UNL     1       7.434   5.582  15.522  0.00  0.00    +0.000 NA
ATOM     34  C   UNL     1       6.726   4.929  16.485  0.00  0.00    +0.000 A 
BRANCH  32  35
ATOM     35  O   UNL     1       7.903   5.762  13.197  0.00  0.00    +0.000 OA
ATOM     36  C   UNL     1       7.802   5.042  11.976  0.00  0.00    +0.000 C 
ENDBRANCH  32  35
ENDBRANCH  27  29
ENDBRANCH  24  25
ENDBRANCH  23  24
ENDBRANCH   4  23
TORSDOF 8
ENDMDL
MODEL 3
REMARK VINA RESULT:      -7.6      3.055      9.383
REMARK  Name = 
REMARK  11 active torsions:
REMARK  status: ('A' for Active; 'I' for Inactive)
REMARK    1  A    between atoms: C_1  and  C_2
REMARK    2  A    between atoms: C_2  and  C_3
REMARK    3  A    between atoms: C_3  and  N_4
REMARK    4  A    between atoms: C_9  and  C_10
REMARK    5  A    between atoms: C_13  and  O_14
REMARK    6  A    between atoms: O_14  and  C_15
REMARK    7  A    between atoms: C_15  and  C_16
REMARK    8  A    between atoms: N_18  and  C_19
REMARK    9  A    between atoms: C_22  and  O_23
REMARK   10  A    between atoms: O_23  and  C_24
REMARK   11  A    between atoms: N_31  and  C_32
REMARK                            x       y       z     vdW  Elec       q    Type
REMARK                         _______ _______ _______ _____ _____    ______ ____
ROOT
ATOM      1  C   UNL     1       1.717   6.149  20.061  0.00  0.00    +0.000 A 
ATOM      2  C   UNL     1       2.071   5.215  21.038  0.00  0.00    +0.000 A 
ATOM      3  C   UNL     1       2.377   3.893  20.686  0.00  0.00    +0.000 A 
ATOM      4  C   UNL     1       2.321   3.471  19.359  0.00  0.00    +0.000 A 
ATOM      5  C   UNL     1       1.964   4.383  18.371  0.00  0.00    +0.000 A 
ATOM      6  C   UNL     1       1.664   5.708  18.725  0.00  0.00    +0.000 A 
ENDROOT
BRANCH   1  12
ATOM      7  N   UNL     1       0.316  11.981  20.106  0.00  0.00    +0.000 N 
ATOM      8  C   UNL     1       1.074  11.052  19.382  0.00  0.00    +0.000 A 
ATOM      9  O   UNL     1       1.610  11.278  18.301  0.00  0.00    +0.000 OA
ATOM     10  C   UNL     1       1.147   9.768  20.010  0.00  0.00    +0.000 A 
ATOM     11  N   UNL     1       1.723   8.619  19.528  0.00  0.00    +0.000 N 
ATOM     12  C   UNL     1       1.450   7.561  20.381  0.00  0.00    +0.000 A 
ATOM     13  C   UNL     1       0.824   8.119  21.491  0.00  0.00    +0.000 A 
ATOM     14  C   UNL     1       0.581   9.482  21.218  0.00  0.00    +0.000 A 
ATOM     15  N   UNL     1      -0.124  10.452  21.905  0.00  0.00    +0.000 N 
ATOM     16  C   UNL     1      -0.784  10.195  23.172  0.00  0.00    +0.000 C 
ATOM     17  C   UNL     1      -0.334  11.709  21.322  0.00  0.00    +0.000 A 
ATOM     18  O   UNL     1      -1.077  12.536  21.861  0.00  0.00    +0.000 OA
ATOM     19  H   UNL     1       2.183   8.553  18.629  0.00  0.00    +0.000 HD
BRANCH   7  20
ATOM     20  C   UNL     1       0.081  13.293  19.503  0.00  0.00    +0.000 C 
BRANCH  20  22
ATOM     21  C   UNL     1       1.968  14.796  18.680  0.00  0.00    +0.000 C 
ATOM     22  C   UNL     1       1.128  14.354  19.866  0.00  0.00    +0.000 C 
ENDBRANCH  20  22
ENDBRANCH   7  20
ENDBRANCH   1  12
BRANCH   4  23
ATOM     23  O   UNL     1       2.677   2.161  19.149  0.00  0.00    +0.000 OA
BRANCH  23  24
ATOM     24  C   UNL     1       4.060   1.922  18.912  0.00  0.00    +0.000 C 
BRANCH  24  25
ATOM     25  C   UNL     1       4.754   3.058  18.153  0.00  0.00    +0.000 C 
ATOM     26  O   UNL     1       4.596   3.160  16.938  0.00  0.00    +0.000 OA
ATOM     27  N   UNL     1       5.535   3.891  18.939  0.00  0.00    +0.000 N 
ATOM     28  H   UNL     1       5.682   3.583  19.895  0.00  0.00    +0.000 HD
BRANCH  27  29
ATOM     29  C   UNL     1       6.200   5.064  18.506  0.00  0.00    +0.000 A 
ATOM     30  C   UNL     1       7.370   5.541  19.093  0.00  0.00    +0.000 A 
ATOM     31  C   UNL     1       7.967   6.708  18.618  0.00  0.00    +0.000 A 
ATOM     32  C   UNL     1       7.376   7.374  17.558  0.00  0.00    +0.000 A 
ATOM     33  N   UNL     1       6.256   6.943  16.941  0.00  0.00    +0.000 NA
ATOM     34  C   UNL     1       5.703   5.797  17.427  0.00  0.00    +0.000 A 
BRANCH  32  35
ATOM     35  O   UNL     1       8.017   8.528  17.153  0.00  0.00    +0.000 OA
ATOM     36  C   UNL     1       8.485   9.334  18.225  0.00  0.00    +0.000 C 
ENDBRANCH  32  35
ENDBRANCH  27  29
ENDBRANCH  24  25
ENDBRANCH  23  24
ENDBRANCH   4  23
TORSDOF 8
ENDMDL
MODEL 4
REMARK VINA RESULT:      -7.6      3.091      9.274
REMARK  Name = 
REMARK  11 active torsions:
REMARK  status: ('A' for Active; 'I' for Inactive)
REMARK    1  A    between atoms: C_1  and  C_2
REMARK    2  A    between atoms: C_2  and  C_3
REMARK    3  A    between atoms: C_3  and  N_4
REMARK    4  A    between atoms: C_9  and  C_10
REMARK    5  A    between atoms: C_13  and  O_14
REMARK    6  A    between atoms: O_14  and  C_15
REMARK    7  A    between atoms: C_15  and  C_16
REMARK    8  A    between atoms: N_18  and  C_19
REMARK    9  A    between atoms: C_22  and  O_23
REMARK   10  A    between atoms: O_23  and  C_24
REMARK   11  A    between atoms: N_31  and  C_32
REMARK                            x       y       z     vdW  Elec       q    Type
REMARK                         _______ _______ _______ _____ _____    ______ ____
ROOT
ATOM      1  C   UNL     1       1.594   5.813  20.047  0.00  0.00    +0.000 A 
ATOM      2  C   UNL     1       1.968   4.874  21.011  0.00  0.00    +0.000 A 
ATOM      3  C   UNL     1       2.176   3.533  20.660  0.00  0.00    +0.000 A 
ATOM      4  C   UNL     1       2.001   3.097  19.348  0.00  0.00    +0.000 A 
ATOM      5  C   UNL     1       1.623   4.016  18.373  0.00  0.00    +0.000 A 
ATOM      6  C   UNL     1       1.420   5.359  18.726  0.00  0.00    +0.000 A 
ENDROOT
BRANCH   1  12
ATOM      7  N   UNL     1       0.571  11.723  20.080  0.00  0.00    +0.000 N 
ATOM      8  C   UNL     1       1.247  10.743  19.344  0.00  0.00    +0.000 A 
ATOM      9  O   UNL     1       1.766  10.926  18.247  0.00  0.00    +0.000 OA
ATOM     10  C   UNL     1       1.255   9.461  19.981  0.00  0.00    +0.000 A 
ATOM     11  N   UNL     1       1.743   8.274  19.493  0.00  0.00    +0.000 N 
ATOM     12  C   UNL     1       1.427   7.241  20.362  0.00  0.00    +0.000 A 
ATOM     13  C   UNL     1       0.869   7.846  21.484  0.00  0.00    +0.000 A 
ATOM     14  C   UNL     1       0.706   9.219  21.206  0.00  0.00    +0.000 A 
ATOM     15  N   UNL     1       0.085  10.238  21.904  0.00  0.00    +0.000 N 
ATOM     16  C   UNL     1      -0.554  10.032  23.191  0.00  0.00    +0.000 C 
ATOM     17  C   UNL     1      -0.061  11.502  21.316  0.00  0.00    +0.000 A 
ATOM     18  O   UNL     1      -0.734  12.379  21.868  0.00  0.00    +0.000 OA
ATOM     19  H   UNL     1       2.172   8.172  18.581  0.00  0.00    +0.000 HD
BRANCH   7  20
ATOM     20  C   UNL     1       0.403  13.043  19.473  0.00  0.00    +0.000 C 
BRANCH  20  22
ATOM     21  C   UNL     1       2.037  14.796  18.605  0.00  0.00    +0.000 C 
ATOM     22  C   UNL     1       1.513  14.045  19.817  0.00  0.00    +0.000 C 
ENDBRANCH  20  22
ENDBRANCH   7  20
ENDBRANCH   1  12
BRANCH   4  23
ATOM     23  O   UNL     1       2.270   1.768  19.134  0.00  0.00    +0.000 OA
BRANCH  23  24
ATOM     24  C   UNL     1       3.600   1.458  18.733  0.00  0.00    +0.000 C 
BRANCH  24  25
ATOM     25  C   UNL     1       4.557   2.653  18.819  0.00  0.00    +0.000 C 
ATOM     26  O   UNL     1       5.252   2.800  19.823  0.00  0.00    +0.000 OA
ATOM     27  N   UNL     1       4.538   3.495  17.719  0.00  0.00    +0.000 N 
ATOM     28  H   UNL     1       3.801   3.319  17.043  0.00  0.00    +0.000 HD
BRANCH  27  29
ATOM     29  C   UNL     1       5.388   4.607  17.504  0.00  0.00    +0.000 A 
ATOM     30  C   UNL     1       4.923   5.914  17.385  0.00  0.00    +0.000 A 
ATOM     31  C   UNL     1       5.819   6.960  17.169  0.00  0.00    +0.000 A 
ATOM     32  C   UNL     1       7.169   6.672  17.078  0.00  0.00    +0.000 A 
ATOM     33  N   UNL     1       7.674   5.427  17.208  0.00  0.00    +0.000 NA
ATOM     34  C   UNL     1       6.771   4.430  17.424  0.00  0.00    +0.000 A 
BRANCH  32  35
ATOM     35  O   UNL     1       7.992   7.757  16.849  0.00  0.00    +0.000 OA
ATOM     36  C   UNL     1       8.160   8.601  17.979  0.00  0.00    +0.000 C 
ENDBRANCH  32  35
ENDBRANCH  27  29
ENDBRANCH  24  25
ENDBRANCH  23  24
ENDBRANCH   4  23
TORSDOF 8
ENDMDL
MODEL 5
REMARK VINA RESULT:      -7.5      2.073      2.783
REMARK  Name = 
REMARK  11 active torsions:
REMARK  status: ('A' for Active; 'I' for Inactive)
REMARK    1  A    between atoms: C_1  and  C_2
REMARK    2  A    between atoms: C_2  and  C_3
REMARK    3  A    between atoms: C_3  and  N_4
REMARK    4  A    between atoms: C_9  and  C_10
REMARK    5  A    between atoms: C_13  and  O_14
REMARK    6  A    between atoms: O_14  and  C_15
REMARK    7  A    between atoms: C_15  and  C_16
REMARK    8  A    between atoms: N_18  and  C_19
REMARK    9  A    between atoms: C_22  and  O_23
REMARK   10  A    between atoms: O_23  and  C_24
REMARK   11  A    between atoms: N_31  and  C_32
REMARK                            x       y       z     vdW  Elec       q    Type
REMARK                         _______ _______ _______ _____ _____    ______ ____
ROOT
ATOM      1  C   UNL     1       1.050   8.868  20.541  0.00  0.00    +0.000 A 
ATOM      2  C   UNL     1       0.830  10.027  19.792  0.00  0.00    +0.000 A 
ATOM      3  C   UNL     1       0.225  11.150  20.374  0.00  0.00    +0.000 A 
ATOM      4  C   UNL     1      -0.187  11.136  21.705  0.00  0.00    +0.000 A 
ATOM      5  C   UNL     1       0.017   9.989  22.467  0.00  0.00    +0.000 A 
ATOM      6  C   UNL     1       0.628   8.868  21.884  0.00  0.00    +0.000 A 
ENDROOT
BRANCH   1  12
ATOM      7  N   UNL     1       4.802   4.921  18.026  0.00  0.00    +0.000 N 
ATOM      8  C   UNL     1       4.241   6.184  17.798  0.00  0.00    +0.000 A 
ATOM      9  O   UNL     1       4.589   6.952  16.905  0.00  0.00    +0.000 OA
ATOM     10  C   UNL     1       3.220   6.529  18.739  0.00  0.00    +0.000 A 
ATOM     11  N   UNL     1       2.541   7.716  18.856  0.00  0.00    +0.000 N 
ATOM     12  C   UNL     1       1.738   7.691  19.986  0.00  0.00    +0.000 A 
ATOM     13  C   UNL     1       1.815   6.391  20.478  0.00  0.00    +0.000 A 
ATOM     14  C   UNL     1       2.792   5.698  19.733  0.00  0.00    +0.000 A 
ATOM     15  N   UNL     1       3.358   4.446  19.886  0.00  0.00    +0.000 N 
ATOM     16  C   UNL     1       2.975   3.536  20.950  0.00  0.00    +0.000 C 
ATOM     17  C   UNL     1       4.433   4.060  19.075  0.00  0.00    +0.000 A 
ATOM     18  O   UNL     1       5.038   3.005  19.291  0.00  0.00    +0.000 OA
ATOM     19  H   UNL     1       2.698   8.518  18.258  0.00  0.00    +0.000 HD
BRANCH   7  20
ATOM     20  C   UNL     1       5.933   4.511  17.194  0.00  0.00    +0.000 C 
BRANCH  20  22
ATOM     21  C   UNL     1       7.558   6.028  18.442  0.00  0.00    +0.000 C 
ATOM     22  C   UNL     1       7.301   4.642  17.876  0.00  0.00    +0.000 C 
ENDBRANCH  20  22
ENDBRANCH   7  20
ENDBRANCH   1  12
BRANCH   4  23
ATOM     23  O   UNL     1      -0.734  12.312  22.158  0.00  0.00    +0.000 OA
BRANCH  23  24
ATOM     24  C   UNL     1      -1.818  12.183  23.072  0.00  0.00    +0.000 C 
BRANCH  24  25
ATOM     25  C   UNL     1      -3.193  12.341  22.413  0.00  0.00    +0.000 C 
ATOM     26  O   UNL     1      -4.208  12.239  23.099  0.00  0.00    +0.000 OA
ATOM     27  N   UNL     1      -3.161  12.583  21.049  0.00  0.00    +0.000 N 
ATOM     28  H   UNL     1      -2.251  12.488  20.607  0.00  0.00    +0.000 HD
BRANCH  27  29
ATOM     29  C   UNL     1      -4.277  12.862  20.224  0.00  0.00    +0.000 A 
ATOM     30  C   UNL     1      -4.619  12.095  19.114  0.00  0.00    +0.000 A 
ATOM     31  C   UNL     1      -5.731  12.434  18.343  0.00  0.00    +0.000 A 
ATOM     32  C   UNL     1      -6.480  13.539  18.705  0.00  0.00    +0.000 A 
ATOM     33  N   UNL     1      -6.204  14.303  19.783  0.00  0.00    +0.000 NA
ATOM     34  C   UNL     1      -5.116  13.940  20.517  0.00  0.00    +0.000 A 
BRANCH  32  35
ATOM     35  O   UNL     1      -7.556  13.819  17.887  0.00  0.00    +0.000 OA
ATOM     36  C   UNL     1      -7.577  15.154  17.400  0.00  0.00    +0.000 C 
ENDBRANCH  32  35
ENDBRANCH  27  29
ENDBRANCH  24  25
ENDBRANCH  23  24
ENDBRANCH   4  23
TORSDOF 8
ENDMDL
MODEL 6
REMARK VINA RESULT:      -7.5      1.459      2.413
REMARK  Name = 
REMARK  11 active torsions:
REMARK  status: ('A' for Active; 'I' for Inactive)
REMARK    1  A    between atoms: C_1  and  C_2
REMARK    2  A    between atoms: C_2  and  C_3
REMARK    3  A    between atoms: C_3  and  N_4
REMARK    4  A    between atoms: C_9  and  C_10
REMARK    5  A    between atoms: C_13  and  O_14
REMARK    6  A    between atoms: O_14  and  C_15
REMARK    7  A    between atoms: C_15  and  C_16
REMARK    8  A    between atoms: N_18  and  C_19
REMARK    9  A    between atoms: C_22  and  O_23
REMARK   10  A    between atoms: O_23  and  C_24
REMARK   11  A    between atoms: N_31  and  C_32
REMARK                            x       y       z     vdW  Elec       q    Type
REMARK                         _______ _______ _______ _____ _____    ______ ____
ROOT
ATOM      1  C   UNL     1       0.847   9.189  21.197  0.00  0.00    +0.000 A 
ATOM      2  C   UNL     1      -0.116   9.068  22.203  0.00  0.00    +0.000 A 
ATOM      3  C   UNL     1      -0.788  10.199  22.687  0.00  0.00    +0.000 A 
ATOM      4  C   UNL     1      -0.506  11.471  22.193  0.00  0.00    +0.000 A 
ATOM      5  C   UNL     1       0.453  11.613  21.194  0.00  0.00    +0.000 A 
ATOM      6  C   UNL     1       1.121  10.480  20.707  0.00  0.00    +0.000 A 
ENDROOT
BRANCH   1  12
ATOM      7  N   UNL     1       2.478   3.855  18.991  0.00  0.00    +0.000 N 
ATOM      8  C   UNL     1       1.827   4.420  20.094  0.00  0.00    +0.000 A 
ATOM      9  O   UNL     1       1.212   3.783  20.944  0.00  0.00    +0.000 OA
ATOM     10  C   UNL     1       1.911   5.849  20.131  0.00  0.00    +0.000 A 
ATOM     11  N   UNL     1       1.310   6.711  21.014  0.00  0.00    +0.000 N 
ATOM     12  C   UNL     1       1.530   8.021  20.617  0.00  0.00    +0.000 A 
ATOM     13  C   UNL     1       2.422   7.951  19.551  0.00  0.00    +0.000 A 
ATOM     14  C   UNL     1       2.598   6.591  19.216  0.00  0.00    +0.000 A 
ATOM     15  N   UNL     1       3.256   5.974  18.169  0.00  0.00    +0.000 N 
ATOM     16  C   UNL     1       3.965   6.713  17.141  0.00  0.00    +0.000 C 
ATOM     17  C   UNL     1       3.145   4.588  17.993  0.00  0.00    +0.000 A 
ATOM     18  O   UNL     1       3.609   4.042  16.987  0.00  0.00    +0.000 OA
ATOM     19  H   UNL     1       0.711   6.415  21.774  0.00  0.00    +0.000 HD
BRANCH   7  20
ATOM     20  C   UNL     1       2.361   2.411  18.790  0.00  0.00    +0.000 C 
BRANCH  20  22
ATOM     21  C   UNL     1       4.509   2.206  20.147  0.00  0.00    +0.000 C 
ATOM     22  C   UNL     1       3.661   1.631  19.025  0.00  0.00    +0.000 C 
ENDBRANCH  20  22
ENDBRANCH   7  20
ENDBRANCH   1  12
BRANCH   4  23
ATOM     23  O   UNL     1      -1.261  12.485  22.729  0.00  0.00    +0.000 OA
BRANCH  23  24
ATOM     24  C   UNL     1      -2.464  12.800  22.037  0.00  0.00    +0.000 C 
BRANCH  24  25
ATOM     25  C   UNL     1      -2.336  12.696  20.513  0.00  0.00    +0.000 C 
ATOM     26  O   UNL     1      -1.781  13.599  19.889  0.00  0.00    +0.000 OA
ATOM     27  N   UNL     1      -2.890  11.553  19.959  0.00  0.00    +0.000 N 
ATOM     28  H   UNL     1      -3.443  10.982  20.591  0.00  0.00    +0.000 HD
BRANCH  27  29
ATOM     29  C   UNL     1      -2.823  11.169  18.597  0.00  0.00    +0.000 A 
ATOM     30  C   UNL     1      -1.825  10.346  18.083  0.00  0.00    +0.000 A 
ATOM     31  C   UNL     1      -1.820  10.014  16.729  0.00  0.00    +0.000 A 
ATOM     32  C   UNL     1      -2.821  10.515  15.916  0.00  0.00    +0.000 A 
ATOM     33  N   UNL     1      -3.823  11.298  16.368  0.00  0.00    +0.000 NA
ATOM     34  C   UNL     1      -3.801  11.598  17.697  0.00  0.00    +0.000 A 
BRANCH  32  35
ATOM     35  O   UNL     1      -2.741  10.154  14.586  0.00  0.00    +0.000 OA
ATOM     36  C   UNL     1      -4.000  10.089  13.930  0.00  0.00    +0.000 C 
ENDBRANCH  32  35
ENDBRANCH  27  29
ENDBRANCH  24  25
ENDBRANCH  23  24
ENDBRANCH   4  23
TORSDOF 8
ENDMDL
MODEL 7
REMARK VINA RESULT:      -7.4      3.831      5.351
REMARK  Name = 
REMARK  11 active torsions:
REMARK  status: ('A' for Active; 'I' for Inactive)
REMARK    1  A    between atoms: C_1  and  C_2
REMARK    2  A    between atoms: C_2  and  C_3
REMARK    3  A    between atoms: C_3  and  N_4
REMARK    4  A    between atoms: C_9  and  C_10
REMARK    5  A    between atoms: C_13  and  O_14
REMARK    6  A    between atoms: O_14  and  C_15
REMARK    7  A    between atoms: C_15  and  C_16
REMARK    8  A    between atoms: N_18  and  C_19
REMARK    9  A    between atoms: C_22  and  O_23
REMARK   10  A    between atoms: O_23  and  C_24
REMARK   11  A    between atoms: N_31  and  C_32
REMARK                            x       y       z     vdW  Elec       q    Type
REMARK                         _______ _______ _______ _____ _____    ______ ____
ROOT
ATOM      1  C   UNL     1       1.200   9.301  19.373  0.00  0.00    +0.000 A 
ATOM      2  C   UNL     1       0.772  10.206  18.399  0.00  0.00    +0.000 A 
ATOM      3  C   UNL     1       0.149  11.408  18.765  0.00  0.00    +0.000 A 
ATOM      4  C   UNL     1      -0.074  11.724  20.104  0.00  0.00    +0.000 A 
ATOM      5  C   UNL     1       0.340  10.833  21.089  0.00  0.00    +0.000 A 
ATOM      6  C   UNL     1       0.968   9.633  20.721  0.00  0.00    +0.000 A 
ENDROOT
BRANCH   1  12
ATOM      7  N   UNL     1       5.062   5.048  17.647  0.00  0.00    +0.000 N 
ATOM      8  C   UNL     1       4.507   6.255  17.204  0.00  0.00    +0.000 A 
ATOM      9  O   UNL     1       4.887   6.879  16.218  0.00  0.00    +0.000 OA
ATOM     10  C   UNL     1       3.447   6.732  18.041  0.00  0.00    +0.000 A 
ATOM     11  N   UNL     1       2.760   7.917  17.946  0.00  0.00    +0.000 N 
ATOM     12  C   UNL     1       1.913   8.059  19.035  0.00  0.00    +0.000 A 
ATOM     13  C   UNL     1       1.975   6.851  19.724  0.00  0.00    +0.000 A 
ATOM     14  C   UNL     1       2.983   6.061  19.133  0.00  0.00    +0.000 A 
ATOM     15  N   UNL     1       3.546   4.852  19.500  0.00  0.00    +0.000 N 
ATOM     16  C   UNL     1       3.125   4.114  20.676  0.00  0.00    +0.000 C 
ATOM     17  C   UNL     1       4.654   4.356  18.801  0.00  0.00    +0.000 A 
ATOM     18  O   UNL     1       5.253   3.352  19.201  0.00  0.00    +0.000 OA
ATOM     19  H   UNL     1       2.938   8.618  17.238  0.00  0.00    +0.000 HD
BRANCH   7  20
ATOM     20  C   UNL     1       6.226   4.526  16.933  0.00  0.00    +0.000 C 
BRANCH  20  22
ATOM     21  C   UNL     1       6.378   4.274  14.400  0.00  0.00    +0.000 C 
ATOM     22  C   UNL     1       5.884   3.671  15.704  0.00  0.00    +0.000 C 
ENDBRANCH  20  22
ENDBRANCH   7  20
ENDBRANCH   1  12
BRANCH   4  23
ATOM     23  O   UNL     1      -0.661  12.946  20.324  0.00  0.00    +0.000 OA
BRANCH  23  24
ATOM     24  C   UNL     1      -0.271  13.619  21.516  0.00  0.00    +0.000 C 
BRANCH  24  25
ATOM     25  C   UNL     1       1.062  14.365  21.387  0.00  0.00    +0.000 C 
ATOM     26  O   UNL     1       1.783  14.490  22.375  0.00  0.00    +0.000 OA
ATOM     27  N   UNL     1       1.334  14.857  20.121  0.00  0.00    +0.000 N 
ATOM     28  H   UNL     1       0.569  14.802  19.454  0.00  0.00    +0.000 HD
BRANCH  27  29
ATOM     29  C   UNL     1       2.531  15.494  19.712  0.00  0.00    +0.000 A 
ATOM     30  C   UNL     1       3.526  14.854  18.978  0.00  0.00    +0.000 A 
ATOM     31  C   UNL     1       4.682  15.543  18.615  0.00  0.00    +0.000 A 
ATOM     32  C   UNL     1       4.815  16.867  18.996  0.00  0.00    +0.000 A 
ATOM     33  N   UNL     1       3.872  17.540  19.687  0.00  0.00    +0.000 NA
ATOM     34  C   UNL     1       2.753  16.838  20.021  0.00  0.00    +0.000 A 
BRANCH  32  35
ATOM     35  O   UNL     1       5.992  17.478  18.612  0.00  0.00    +0.000 OA
ATOM     36  C   UNL     1       6.992  17.488  19.621  0.00  0.00    +0.000 C 
ENDBRANCH  32  35
ENDBRANCH  27  29
ENDBRANCH  24  25
ENDBRANCH  23  24
ENDBRANCH   4  23
TORSDOF 8
ENDMDL
MODEL 8
REMARK VINA RESULT:      -7.4      1.801      2.150
REMARK  Name = 
REMARK  11 active torsions:
REMARK  status: ('A' for Active; 'I' for Inactive)
REMARK    1  A    between atoms: C_1  and  C_2
REMARK    2  A    between atoms: C_2  and  C_3
REMARK    3  A    between atoms: C_3  and  N_4
REMARK    4  A    between atoms: C_9  and  C_10
REMARK    5  A    between atoms: C_13  and  O_14
REMARK    6  A    between atoms: O_14  and  C_15
REMARK    7  A    between atoms: C_15  and  C_16
REMARK    8  A    between atoms: N_18  and  C_19
REMARK    9  A    between atoms: C_22  and  O_23
REMARK   10  A    between atoms: O_23  and  C_24
REMARK   11  A    between atoms: N_31  and  C_32
REMARK                            x       y       z     vdW  Elec       q    Type
REMARK                         _______ _______ _______ _____ _____    ______ ____
ROOT
ATOM      1  C   UNL     1       0.738   8.812  21.340  0.00  0.00    +0.000 A 
ATOM      2  C   UNL     1      -0.028   8.684  22.501  0.00  0.00    +0.000 A 
ATOM      3  C   UNL     1      -0.648   9.803  23.075  0.00  0.00    +0.000 A 
ATOM      4  C   UNL     1      -0.504  11.071  22.514  0.00  0.00    +0.000 A 
ATOM      5  C   UNL     1       0.259  11.221  21.361  0.00  0.00    +0.000 A 
ATOM      6  C   UNL     1       0.874  10.098  20.785  0.00  0.00    +0.000 A 
ENDROOT
BRANCH   1  12
ATOM      7  N   UNL     1       4.245   4.900  18.444  0.00  0.00    +0.000 N 
ATOM      8  C   UNL     1       3.767   6.213  18.341  0.00  0.00    +0.000 A 
ATOM      9  O   UNL     1       4.167   7.041  17.529  0.00  0.00    +0.000 OA
ATOM     10  C   UNL     1       2.764   6.528  19.313  0.00  0.00    +0.000 A 
ATOM     11  N   UNL     1       2.161   7.739  19.548  0.00  0.00    +0.000 N 
ATOM     12  C   UNL     1       1.353   7.653  20.671  0.00  0.00    +0.000 A 
ATOM     13  C   UNL     1       1.345   6.310  21.032  0.00  0.00    +0.000 A 
ATOM     14  C   UNL     1       2.280   5.633  20.221  0.00  0.00    +0.000 A 
ATOM     15  N   UNL     1       2.763   4.338  20.249  0.00  0.00    +0.000 N 
ATOM     16  C   UNL     1       2.318   3.354  21.218  0.00  0.00    +0.000 C 
ATOM     17  C   UNL     1       3.817   3.966  19.402  0.00  0.00    +0.000 A 
ATOM     18  O   UNL     1       4.351   2.858  19.513  0.00  0.00    +0.000 OA
ATOM     19  H   UNL     1       2.372   8.584  19.032  0.00  0.00    +0.000 HD
BRANCH   7  20
ATOM     20  C   UNL     1       5.351   4.504  17.574  0.00  0.00    +0.000 C 
BRANCH  20  22
ATOM     21  C   UNL     1       6.083   3.750  15.251  0.00  0.00    +0.000 C 
ATOM     22  C   UNL     1       4.969   4.344  16.096  0.00  0.00    +0.000 C 
ENDBRANCH  20  22
ENDBRANCH   7  20
ENDBRANCH   1  12
BRANCH   4  23
ATOM     23  O   UNL     1      -1.191  12.073  23.156  0.00  0.00    +0.000 OA
BRANCH  23  24
ATOM     24  C   UNL     1      -1.075  13.372  22.584  0.00  0.00    +0.000 C 
BRANCH  24  25
ATOM     25  C   UNL     1      -1.955  13.574  21.346  0.00  0.00    +0.000 C 
ATOM     26  O   UNL     1      -1.508  14.186  20.378  0.00  0.00    +0.000 OA
ATOM     27  N   UNL     1      -3.229  13.036  21.443  0.00  0.00    +0.000 N 
ATOM     28  H   UNL     1      -3.494  12.695  22.362  0.00  0.00    +0.000 HD
BRANCH  27  29
ATOM     29  C   UNL     1      -4.200  12.998  20.412  0.00  0.00    +0.000 A 
ATOM     30  C   UNL     1      -4.167  12.085  19.362  0.00  0.00    +0.000 A 
ATOM     31  C   UNL     1      -5.155  12.111  18.379  0.00  0.00    +0.000 A 
ATOM     32  C   UNL     1      -6.161  13.056  18.472  0.00  0.00    +0.000 A 
ATOM     33  N   UNL     1      -6.251  13.949  19.479  0.00  0.00    +0.000 NA
ATOM     34  C   UNL     1      -5.273  13.892  20.425  0.00  0.00    +0.000 A 
BRANCH  32  35
ATOM     35  O   UNL     1      -7.095  13.029  17.455  0.00  0.00    +0.000 OA
ATOM     36  C   UNL     1      -7.105  14.201  16.651  0.00  0.00    +0.000 C 
ENDBRANCH  32  35
ENDBRANCH  27  29
ENDBRANCH  24  25
ENDBRANCH  23  24
ENDBRANCH   4  23
TORSDOF 8
ENDMDL
MODEL 9
REMARK VINA RESULT:      -7.4      3.766      5.530
REMARK  Name = 
REMARK  11 active torsions:
REMARK  status: ('A' for Active; 'I' for Inactive)
REMARK    1  A    between atoms: C_1  and  C_2
REMARK    2  A    between atoms: C_2  and  C_3
REMARK    3  A    between atoms: C_3  and  N_4
REMARK    4  A    between atoms: C_9  and  C_10
REMARK    5  A    between atoms: C_13  and  O_14
REMARK    6  A    between atoms: O_14  and  C_15
REMARK    7  A    between atoms: C_15  and  C_16
REMARK    8  A    between atoms: N_18  and  C_19
REMARK    9  A    between atoms: C_22  and  O_23
REMARK   10  A    between atoms: O_23  and  C_24
REMARK   11  A    between atoms: N_31  and  C_32
REMARK                            x       y       z     vdW  Elec       q    Type
REMARK                         _______ _______ _______ _____ _____    ______ ____
ROOT
ATOM      1  C   UNL     1       0.949   9.331  19.368  0.00  0.00    +0.000 A 
ATOM      2  C   UNL     1       0.356   9.976  18.279  0.00  0.00    +0.000 A 
ATOM      3  C   UNL     1      -0.524  11.049  18.476  0.00  0.00    +0.000 A 
ATOM      4  C   UNL     1      -0.844  11.491  19.759  0.00  0.00    +0.000 A 
ATOM      5  C   UNL     1      -0.269  10.859  20.857  0.00  0.00    +0.000 A 
ATOM      6  C   UNL     1       0.617   9.788  20.657  0.00  0.00    +0.000 A 
ENDROOT
BRANCH   1  12
ATOM      7  N   UNL     1       3.949   4.144  19.092  0.00  0.00    +0.000 N 
ATOM      8  C   UNL     1       3.126   4.878  19.955  0.00  0.00    +0.000 A 
ATOM      9  O   UNL     1       2.648   4.446  21.000  0.00  0.00    +0.000 OA
ATOM     10  C   UNL     1       2.854   6.204  19.489  0.00  0.00    +0.000 A 
ATOM     11  N   UNL     1       2.017   7.142  20.041  0.00  0.00    +0.000 N 
ATOM     12  C   UNL     1       1.926   8.243  19.202  0.00  0.00    +0.000 A 
ATOM     13  C   UNL     1       2.857   8.029  18.191  0.00  0.00    +0.000 A 
ATOM     14  C   UNL     1       3.379   6.727  18.344  0.00  0.00    +0.000 A 
ATOM     15  N   UNL     1       4.218   5.967  17.550  0.00  0.00    +0.000 N 
ATOM     16  C   UNL     1       4.771   6.454  16.300  0.00  0.00    +0.000 C 
ATOM     17  C   UNL     1       4.460   4.625  17.874  0.00  0.00    +0.000 A 
ATOM     18  O   UNL     1       5.092   3.896  17.102  0.00  0.00    +0.000 OA
ATOM     19  H   UNL     1       1.474   6.990  20.881  0.00  0.00    +0.000 HD
BRANCH   7  20
ATOM     20  C   UNL     1       4.201   2.740  19.412  0.00  0.00    +0.000 C 
BRANCH  20  22
ATOM     21  C   UNL     1       1.867   1.890  18.839  0.00  0.00    +0.000 C 
ATOM     22  C   UNL     1       3.360   1.744  18.602  0.00  0.00    +0.000 C 
ENDBRANCH  20  22
ENDBRANCH   7  20
ENDBRANCH   1  12
BRANCH   4  23
ATOM     23  O   UNL     1      -1.691  12.571  19.809  0.00  0.00    +0.000 OA
BRANCH  23  24
ATOM     24  C   UNL     1      -1.178  13.735  20.448  0.00  0.00    +0.000 C 
BRANCH  24  25
ATOM     25  C   UNL     1      -0.062  14.424  19.655  0.00  0.00    +0.000 C 
ATOM     26  O   UNL     1      -0.256  14.736  18.481  0.00  0.00    +0.000 OA
ATOM     27  N   UNL     1       1.114  14.628  20.360  0.00  0.00    +0.000 N 
ATOM     28  H   UNL     1       1.164  14.178  21.270  0.00  0.00    +0.000 HD
BRANCH  27  29
ATOM     29  C   UNL     1       2.256  15.325  19.896  0.00  0.00    +0.000 A 
ATOM     30  C   UNL     1       3.247  14.735  19.116  0.00  0.00    +0.000 A 
ATOM     31  C   UNL     1       4.348  15.482  18.700  0.00  0.00    +0.000 A 
ATOM     32  C   UNL     1       4.431  16.811  19.076  0.00  0.00    +0.000 A 
ATOM     33  N   UNL     1       3.489  17.436  19.812  0.00  0.00    +0.000 NA
ATOM     34  C   UNL     1       2.424  16.679  20.196  0.00  0.00    +0.000 A 
BRANCH  32  35
ATOM     35  O   UNL     1       5.556  17.481  18.638  0.00  0.00    +0.000 OA
ATOM     36  C   UNL     1       6.777  16.823  18.947  0.00  0.00    +0.000 C 
ENDBRANCH  32  35
ENDBRANCH  27  29
ENDBRANCH  24  25
ENDBRANCH  23  24
ENDBRANCH   4  23
TORSDOF 8
ENDMDL
