MODEL 1
REMARK VINA RESULT:      -8.8      0.000      0.000
REMARK  Name = 
REMARK  3 active torsions:
REMARK  status: ('A' for Active; 'I' for Inactive)
REMARK    1  A    between atoms: S_2  and  C_4
REMARK    2  A    between atoms: S_2  and  C_25
REMARK    3  A    between atoms: C_10  and  C_11
REMARK                            x       y       z     vdW  Elec       q    Type
REMARK                         _______ _______ _______ _____ _____    ______ ____
ROOT
ATOM      1  C   UNL     1       5.202   5.313  17.382  0.00  0.00    +0.000 A 
ATOM      2  C   UNL     1       5.287   4.036  17.942  0.00  0.00    +0.000 A 
ATOM      3  C   UNL     1       4.489   3.677  19.033  0.00  0.00    +0.000 A 
ATOM      4  C   UNL     1       3.579   4.635  19.494  0.00  0.00    +0.000 A 
ATOM      5  N   UNL     1       2.655   4.587  20.501  0.00  0.00    +0.000 N 
ATOM      6  N   UNL     1       1.934   5.706  20.642  0.00  0.00    +0.000 NA
ATOM      7  C   UNL     1       2.383   6.522  19.672  0.00  0.00    +0.000 A 
ATOM      8  C   UNL     1       3.446   5.904  18.938  0.00  0.00    +0.000 A 
ATOM      9  C   UNL     1       4.296   6.264  17.873  0.00  0.00    +0.000 A 
ATOM     10  H   UNL     1       2.465   3.814  21.128  0.00  0.00    +0.000 HD
ENDROOT
BRANCH   7  11
ATOM     11  C   UNL     1       1.802   7.854  19.493  0.00  0.00    +0.000 A 
ATOM     12  C   UNL     1       1.652   8.424  18.236  0.00  0.00    +0.000 A 
ATOM     13  C   UNL     1       1.152   9.707  18.167  0.00  0.00    +0.000 A 
ATOM     14  N   UNL     1       0.797  10.436  19.247  0.00  0.00    +0.000 NA
ATOM     15  C   UNL     1       0.910   9.887  20.477  0.00  0.00    +0.000 A 
ATOM     16  N   UNL     1       0.602  10.659  21.576  0.00  0.00    +0.000 N 
ATOM     17  C   UNL     1       0.053  10.102  22.817  0.00  0.00    +0.000 C 
ATOM     18  C   UNL     1      -1.370  10.631  23.063  0.00  0.00    +0.000 C 
ATOM     19  O   UNL     1      -1.428  12.065  23.014  0.00  0.00    +0.000 OA
ATOM     20  C   UNL     1      -1.005  12.527  21.719  0.00  0.00    +0.000 C 
ATOM     21  C   UNL     1       0.440  12.110  21.423  0.00  0.00    +0.000 C 
ATOM     22  C   UNL     1       1.403   8.592  20.615  0.00  0.00    +0.000 A 
ENDBRANCH   7  11
BRANCH   1  24
ATOM     23  O   UNL     1       5.318   6.599  15.118  0.00  0.00    +0.000 OA
ATOM     24  S   UNL     1       6.119   5.676  15.902  0.00  0.00    +0.000 S 
ATOM     25  O   UNL     1       7.471   6.023  16.302  0.00  0.00    +0.000 OA
BRANCH  24  26
ATOM     26  C   UNL     1       6.264   4.112  14.990  0.00  0.00    +0.000 C 
ATOM     27  C   UNL     1       5.387   3.933  13.782  0.00  0.00    +0.000 C 
ATOM     28  C   UNL     1       6.842   4.258  13.601  0.00  0.00    +0.000 C 
ENDBRANCH  24  26
ENDBRANCH   1  24
TORSDOF 3
ENDMDL
MODEL 2
REMARK VINA RESULT:      -8.2      3.120      4.230
REMARK  Name = 
REMARK  3 active torsions:
REMARK  status: ('A' for Active; 'I' for Inactive)
REMARK    1  A    between atoms: S_2  and  C_4
REMARK    2  A    between atoms: S_2  and  C_25
REMARK    3  A    between atoms: C_10  and  C_11
REMARK                            x       y       z     vdW  Elec       q    Type
REMARK                         _______ _______ _______ _____ _____    ______ ____
ROOT
ATOM      1  C   UNL     1       2.480   3.777  18.402  0.00  0.00    +0.000 A 
ATOM      2  C   UNL     1       3.753   3.437  17.937  0.00  0.00    +0.000 A 
ATOM      3  C   UNL     1       4.619   4.417  17.440  0.00  0.00    +0.000 A 
ATOM      4  C   UNL     1       4.169   5.741  17.481  0.00  0.00    +0.000 A 
ATOM      5  N   UNL     1       4.773   6.909  17.108  0.00  0.00    +0.000 N 
ATOM      6  N   UNL     1       4.033   8.004  17.316  0.00  0.00    +0.000 NA
ATOM      7  C   UNL     1       2.898   7.545  17.872  0.00  0.00    +0.000 A 
ATOM      8  C   UNL     1       2.920   6.116  17.969  0.00  0.00    +0.000 A 
ATOM      9  C   UNL     1       2.042   5.108  18.416  0.00  0.00    +0.000 A 
ATOM     10  H   UNL     1       5.696   7.025  16.706  0.00  0.00    +0.000 HD
ENDROOT
BRANCH   7  11
ATOM     11  C   UNL     1       1.837   8.472  18.269  0.00  0.00    +0.000 A 
ATOM     12  C   UNL     1       0.915   8.964  17.354  0.00  0.00    +0.000 A 
ATOM     13  C   UNL     1      -0.012   9.879  17.806  0.00  0.00    +0.000 A 
ATOM     14  N   UNL     1      -0.078  10.319  19.082  0.00  0.00    +0.000 NA
ATOM     15  C   UNL     1       0.793   9.828  19.992  0.00  0.00    +0.000 A 
ATOM     16  N   UNL     1       0.757  10.326  21.276  0.00  0.00    +0.000 N 
ATOM     17  C   UNL     1       1.109   9.527  22.454  0.00  0.00    +0.000 C 
ATOM     18  C   UNL     1      -0.118   9.337  23.364  0.00  0.00    +0.000 C 
ATOM     19  O   UNL     1      -0.741  10.587  23.695  0.00  0.00    +0.000 OA
ATOM     20  C   UNL     1      -1.182  11.248  22.495  0.00  0.00    +0.000 C 
ATOM     21  C   UNL     1      -0.005  11.548  21.561  0.00  0.00    +0.000 C 
ATOM     22  C   UNL     1       1.751   8.897  19.601  0.00  0.00    +0.000 A 
ENDBRANCH   7  11
BRANCH   1  24
ATOM     23  O   UNL     1       0.262   2.408  18.376  0.00  0.00    +0.000 OA
ATOM     24  S   UNL     1       1.472   2.527  19.169  0.00  0.00    +0.000 S 
ATOM     25  O   UNL     1       2.320   1.373  19.408  0.00  0.00    +0.000 OA
BRANCH  24  26
ATOM     26  C   UNL     1       1.031   3.160  20.813  0.00  0.00    +0.000 C 
ATOM     27  C   UNL     1       1.470   2.353  22.004  0.00  0.00    +0.000 C 
ATOM     28  C   UNL     1       2.215   3.606  21.641  0.00  0.00    +0.000 C 
ENDBRANCH  24  26
ENDBRANCH   1  24
TORSDOF 3
ENDMDL
MODEL 3
REMARK VINA RESULT:      -8.2      1.438      1.804
REMARK  Name = 
REMARK  3 active torsions:
REMARK  status: ('A' for Active; 'I' for Inactive)
REMARK    1  A    between atoms: S_2  and  C_4
REMARK    2  A    between atoms: S_2  and  C_25
REMARK    3  A    between atoms: C_10  and  C_11
REMARK                            x       y       z     vdW  Elec       q    Type
REMARK                         _______ _______ _______ _____ _____    ______ ____
ROOT
ATOM      1  C   UNL     1       4.880   5.285  17.770  0.00  0.00    +0.000 A 
ATOM      2  C   UNL     1       4.829   4.052  18.427  0.00  0.00    +0.000 A 
ATOM      3  C   UNL     1       3.970   3.855  19.513  0.00  0.00    +0.000 A 
ATOM      4  C   UNL     1       3.141   4.924  19.868  0.00  0.00    +0.000 A 
ATOM      5  N   UNL     1       2.189   5.040  20.843  0.00  0.00    +0.000 N 
ATOM      6  N   UNL     1       1.573   6.227  20.873  0.00  0.00    +0.000 NA
ATOM      7  C   UNL     1       2.122   6.921  19.861  0.00  0.00    +0.000 A 
ATOM      8  C   UNL     1       3.144   6.152  19.213  0.00  0.00    +0.000 A 
ATOM      9  C   UNL     1       4.053   6.349  18.155  0.00  0.00    +0.000 A 
ATOM     10  H   UNL     1       1.911   4.339  21.519  0.00  0.00    +0.000 HD
ENDROOT
BRANCH   7  11
ATOM     11  C   UNL     1       1.674   8.282  19.562  0.00  0.00    +0.000 A 
ATOM     12  C   UNL     1       1.728   8.803  18.276  0.00  0.00    +0.000 A 
ATOM     13  C   UNL     1       1.341  10.115  18.099  0.00  0.00    +0.000 A 
ATOM     14  N   UNL     1       0.912  10.916  19.098  0.00  0.00    +0.000 NA
ATOM     15  C   UNL     1       0.826  10.416  20.350  0.00  0.00    +0.000 A 
ATOM     16  N   UNL     1       0.444  11.257  21.372  0.00  0.00    +0.000 N 
ATOM     17  C   UNL     1      -0.298  10.798  22.552  0.00  0.00    +0.000 C 
ATOM     18  C   UNL     1      -1.696  11.439  22.594  0.00  0.00    +0.000 C 
ATOM     19  O   UNL     1      -1.635  12.870  22.487  0.00  0.00    +0.000 OA
ATOM     20  C   UNL     1      -1.019  13.242  21.241  0.00  0.00    +0.000 C 
ATOM     21  C   UNL     1       0.415  12.707  21.149  0.00  0.00    +0.000 C 
ATOM     22  C   UNL     1       1.196   9.097  20.596  0.00  0.00    +0.000 A 
ENDBRANCH   7  11
BRANCH   1  24
ATOM     23  O   UNL     1       6.034   4.113  15.748  0.00  0.00    +0.000 OA
ATOM     24  S   UNL     1       5.868   5.446  16.299  0.00  0.00    +0.000 S 
ATOM     25  O   UNL     1       5.288   6.511  15.501  0.00  0.00    +0.000 OA
BRANCH  24  26
ATOM     26  C   UNL     1       7.490   6.062  16.834  0.00  0.00    +0.000 C 
ATOM     27  C   UNL     1       7.529   7.403  17.514  0.00  0.00    +0.000 C 
ATOM     28  C   UNL     1       7.653   6.150  18.335  0.00  0.00    +0.000 C 
ENDBRANCH  24  26
ENDBRANCH   1  24
TORSDOF 3
ENDMDL
MODEL 4
REMARK VINA RESULT:      -8.1      3.282      4.608
REMARK  Name = 
REMARK  3 active torsions:
REMARK  status: ('A' for Active; 'I' for Inactive)
REMARK    1  A    between atoms: S_2  and  C_4
REMARK    2  A    between atoms: S_2  and  C_25
REMARK    3  A    between atoms: C_10  and  C_11
REMARK                            x       y       z     vdW  Elec       q    Type
REMARK                         _______ _______ _______ _____ _____    ______ ____
ROOT
ATOM      1  C   UNL     1       2.517   6.240  19.162  0.00  0.00    +0.000 A 
ATOM      2  C   UNL     1       3.110   6.543  17.934  0.00  0.00    +0.000 A 
ATOM      3  C   UNL     1       2.976   7.815  17.369  0.00  0.00    +0.000 A 
ATOM      4  C   UNL     1       2.270   8.768  18.112  0.00  0.00    +0.000 A 
ATOM      5  N   UNL     1       1.994  10.083  17.859  0.00  0.00    +0.000 N 
ATOM      6  N   UNL     1       1.300  10.697  18.825  0.00  0.00    +0.000 NA
ATOM      7  C   UNL     1       1.129   9.756  19.769  0.00  0.00    +0.000 A 
ATOM      8  C   UNL     1       1.697   8.507  19.353  0.00  0.00    +0.000 A 
ATOM      9  C   UNL     1       1.798   7.205  19.882  0.00  0.00    +0.000 A 
ATOM     10  H   UNL     1       2.256  10.622  17.042  0.00  0.00    +0.000 HD
ENDROOT
BRANCH   7  11
ATOM     11  C   UNL     1       0.423  10.069  21.013  0.00  0.00    +0.000 A 
ATOM     12  C   UNL     1       0.640   9.347  22.179  0.00  0.00    +0.000 A 
ATOM     13  C   UNL     1      -0.114   9.674  23.286  0.00  0.00    +0.000 A 
ATOM     14  N   UNL     1      -1.043  10.654  23.303  0.00  0.00    +0.000 NA
ATOM     15  C   UNL     1      -1.247  11.386  22.185  0.00  0.00    +0.000 A 
ATOM     16  N   UNL     1      -2.238  12.343  22.193  0.00  0.00    +0.000 N 
ATOM     17  C   UNL     1      -2.165  13.577  21.404  0.00  0.00    +0.000 C 
ATOM     18  C   UNL     1      -2.098  14.806  22.328  0.00  0.00    +0.000 C 
ATOM     19  O   UNL     1      -3.163  14.813  23.292  0.00  0.00    +0.000 OA
ATOM     20  C   UNL     1      -3.084  13.637  24.117  0.00  0.00    +0.000 C 
ATOM     21  C   UNL     1      -3.223  12.360  23.282  0.00  0.00    +0.000 C 
ATOM     22  C   UNL     1      -0.514  11.110  21.034  0.00  0.00    +0.000 A 
ENDBRANCH   7  11
BRANCH   1  24
ATOM     23  O   UNL     1       4.229   4.335  19.644  0.00  0.00    +0.000 OA
ATOM     24  S   UNL     1       2.842   4.663  19.919  0.00  0.00    +0.000 S 
ATOM     25  O   UNL     1       2.350   4.726  21.284  0.00  0.00    +0.000 OA
BRANCH  24  26
ATOM     26  C   UNL     1       1.780   3.457  19.071  0.00  0.00    +0.000 C 
ATOM     27  C   UNL     1       2.312   2.836  17.809  0.00  0.00    +0.000 C 
ATOM     28  C   UNL     1       2.317   2.044  19.085  0.00  0.00    +0.000 C 
ENDBRANCH  24  26
ENDBRANCH   1  24
TORSDOF 3
ENDMDL
MODEL 5
REMARK VINA RESULT:      -8.0      1.375      1.492
REMARK  Name = 
REMARK  3 active torsions:
REMARK  status: ('A' for Active; 'I' for Inactive)
REMARK    1  A    between atoms: S_2  and  C_4
REMARK    2  A    between atoms: S_2  and  C_25
REMARK    3  A    between atoms: C_10  and  C_11
REMARK                            x       y       z     vdW  Elec       q    Type
REMARK                         _______ _______ _______ _____ _____    ______ ____
ROOT
ATOM      1  C   UNL     1       5.782   4.825  18.861  0.00  0.00    +0.000 A 
ATOM      2  C   UNL     1       5.584   3.494  19.238  0.00  0.00    +0.000 A 
ATOM      3  C   UNL     1       4.376   3.085  19.814  0.00  0.00    +0.000 A 
ATOM      4  C   UNL     1       3.375   4.054  19.942  0.00  0.00    +0.000 A 
ATOM      5  N   UNL     1       2.099   3.970  20.426  0.00  0.00    +0.000 N 
ATOM      6  N   UNL     1       1.413   5.118  20.372  0.00  0.00    +0.000 NA
ATOM      7  C   UNL     1       2.262   5.994  19.808  0.00  0.00    +0.000 A 
ATOM      8  C   UNL     1       3.529   5.379  19.545  0.00  0.00    +0.000 A 
ATOM      9  C   UNL     1       4.771   5.783  19.016  0.00  0.00    +0.000 A 
ATOM     10  H   UNL     1       1.635   3.153  20.805  0.00  0.00    +0.000 HD
ENDROOT
BRANCH   7  11
ATOM     11  C   UNL     1       1.848   7.376  19.558  0.00  0.00    +0.000 A 
ATOM     12  C   UNL     1       1.809   7.907  18.275  0.00  0.00    +0.000 A 
ATOM     13  C   UNL     1       1.465   9.235  18.140  0.00  0.00    +0.000 A 
ATOM     14  N   UNL     1       1.161  10.044  19.178  0.00  0.00    +0.000 NA
ATOM     15  C   UNL     1       1.165   9.536  20.430  0.00  0.00    +0.000 A 
ATOM     16  N   UNL     1       0.912  10.383  21.487  0.00  0.00    +0.000 N 
ATOM     17  C   UNL     1       0.259   9.945  22.726  0.00  0.00    +0.000 C 
ATOM     18  C   UNL     1      -1.101  10.644  22.897  0.00  0.00    +0.000 C 
ATOM     19  O   UNL     1      -0.988  12.072  22.793  0.00  0.00    +0.000 OA
ATOM     20  C   UNL     1      -0.469  12.429  21.499  0.00  0.00    +0.000 C 
ATOM     21  C   UNL     1       0.926  11.836  21.275  0.00  0.00    +0.000 C 
ATOM     22  C   UNL     1       1.499   8.200  20.635  0.00  0.00    +0.000 A 
ENDBRANCH   7  11
BRANCH   1  24
ATOM     23  O   UNL     1       7.772   6.488  18.601  0.00  0.00    +0.000 OA
ATOM     24  S   UNL     1       7.269   5.270  17.992  0.00  0.00    +0.000 S 
ATOM     25  O   UNL     1       8.099   4.081  17.914  0.00  0.00    +0.000 OA
BRANCH  24  26
ATOM     26  C   UNL     1       6.775   5.634  16.282  0.00  0.00    +0.000 C 
ATOM     27  C   UNL     1       6.937   4.536  15.268  0.00  0.00    +0.000 C 
ATOM     28  C   UNL     1       5.571   4.853  15.807  0.00  0.00    +0.000 C 
ENDBRANCH  24  26
ENDBRANCH   1  24
TORSDOF 3
ENDMDL
MODEL 6
REMARK VINA RESULT:      -7.8      3.593      8.295
REMARK  Name = 
REMARK  3 active torsions:
REMARK  status: ('A' for Active; 'I' for Inactive)
REMARK    1  A    between atoms: S_2  and  C_4
REMARK    2  A    between atoms: S_2  and  C_25
REMARK    3  A    between atoms: C_10  and  C_11
REMARK                            x       y       z     vdW  Elec       q    Type
REMARK                         _______ _______ _______ _____ _____    ______ ____
ROOT
ATOM      1  C   UNL     1      -1.180  11.082  19.795  0.00  0.00    +0.000 A 
ATOM      2  C   UNL     1      -1.307  11.603  21.085  0.00  0.00    +0.000 A 
ATOM      3  C   UNL     1      -0.602  11.044  22.155  0.00  0.00    +0.000 A 
ATOM      4  C   UNL     1       0.263   9.984  21.860  0.00  0.00    +0.000 A 
ATOM      5  N   UNL     1       1.100   9.256  22.659  0.00  0.00    +0.000 N 
ATOM      6  N   UNL     1       1.803   8.318  22.013  0.00  0.00    +0.000 NA
ATOM      7  C   UNL     1       1.434   8.445  20.726  0.00  0.00    +0.000 A 
ATOM      8  C   UNL     1       0.437   9.465  20.581  0.00  0.00    +0.000 A 
ATOM      9  C   UNL     1      -0.322  10.008  19.525  0.00  0.00    +0.000 A 
ATOM     10  H   UNL     1       1.239   9.354  23.658  0.00  0.00    +0.000 HD
ENDROOT
BRANCH   7  11
ATOM     11  C   UNL     1       2.023   7.589  19.696  0.00  0.00    +0.000 A 
ATOM     12  C   UNL     1       2.564   8.115  18.529  0.00  0.00    +0.000 A 
ATOM     13  C   UNL     1       3.042   7.229  17.587  0.00  0.00    +0.000 A 
ATOM     14  N   UNL     1       3.018   5.887  17.734  0.00  0.00    +0.000 NA
ATOM     15  C   UNL     1       2.521   5.359  18.875  0.00  0.00    +0.000 A 
ATOM     16  N   UNL     1       2.447   3.988  18.991  0.00  0.00    +0.000 N 
ATOM     17  C   UNL     1       2.572   3.285  20.272  0.00  0.00    +0.000 C 
ATOM     18  C   UNL     1       3.832   2.402  20.283  0.00  0.00    +0.000 C 
ATOM     19  O   UNL     1       3.883   1.522  19.149  0.00  0.00    +0.000 OA
ATOM     20  C   UNL     1       3.895   2.292  17.933  0.00  0.00    +0.000 C 
ATOM     21  C   UNL     1       2.630   3.147  17.802  0.00  0.00    +0.000 C 
ATOM     22  C   UNL     1       2.028   6.199  19.869  0.00  0.00    +0.000 A 
ENDBRANCH   7  11
BRANCH   1  24
ATOM     23  O   UNL     1      -3.330  12.217  18.854  0.00  0.00    +0.000 OA
ATOM     24  S   UNL     1      -1.971  11.918  18.438  0.00  0.00    +0.000 S 
ATOM     25  O   UNL     1      -1.079  12.977  18.001  0.00  0.00    +0.000 OA
BRANCH  24  26
ATOM     26  C   UNL     1      -2.031  10.730  17.066  0.00  0.00    +0.000 C 
ATOM     27  C   UNL     1      -3.249   9.855  16.963  0.00  0.00    +0.000 C 
ATOM     28  C   UNL     1      -3.098  11.028  16.037  0.00  0.00    +0.000 C 
ENDBRANCH  24  26
ENDBRANCH   1  24
TORSDOF 3
ENDMDL
MODEL 7
REMARK VINA RESULT:      -7.8      3.349      4.901
REMARK  Name = 
REMARK  3 active torsions:
REMARK  status: ('A' for Active; 'I' for Inactive)
REMARK    1  A    between atoms: S_2  and  C_4
REMARK    2  A    between atoms: S_2  and  C_25
REMARK    3  A    between atoms: C_10  and  C_11
REMARK                            x       y       z     vdW  Elec       q    Type
REMARK                         _______ _______ _______ _____ _____    ______ ____
ROOT
ATOM      1  C   UNL     1       2.654   6.558  18.887  0.00  0.00    +0.000 A 
ATOM      2  C   UNL     1       3.211   6.955  17.667  0.00  0.00    +0.000 A 
ATOM      3  C   UNL     1       3.000   8.245  17.171  0.00  0.00    +0.000 A 
ATOM      4  C   UNL     1       2.257   9.119  17.972  0.00  0.00    +0.000 A 
ATOM      5  N   UNL     1       1.908  10.429  17.791  0.00  0.00    +0.000 N 
ATOM      6  N   UNL     1       1.198  10.954  18.796  0.00  0.00    +0.000 NA
ATOM      7  C   UNL     1       1.092   9.958  19.693  0.00  0.00    +0.000 A 
ATOM      8  C   UNL     1       1.719   8.765  19.205  0.00  0.00    +0.000 A 
ATOM      9  C   UNL     1       1.898   7.445  19.664  0.00  0.00    +0.000 A 
ATOM     10  H   UNL     1       2.128  11.022  16.999  0.00  0.00    +0.000 HD
ENDROOT
BRANCH   7  11
ATOM     11  C   UNL     1       0.391  10.170  20.960  0.00  0.00    +0.000 A 
ATOM     12  C   UNL     1       0.637   9.376  22.074  0.00  0.00    +0.000 A 
ATOM     13  C   UNL     1      -0.115   9.609  23.206  0.00  0.00    +0.000 A 
ATOM     14  N   UNL     1      -1.067  10.562  23.296  0.00  0.00    +0.000 NA
ATOM     15  C   UNL     1      -1.299  11.362  22.232  0.00  0.00    +0.000 A 
ATOM     16  N   UNL     1      -2.313  12.292  22.313  0.00  0.00    +0.000 N 
ATOM     17  C   UNL     1      -2.277  13.578  21.609  0.00  0.00    +0.000 C 
ATOM     18  C   UNL     1      -2.231  14.743  22.613  0.00  0.00    +0.000 C 
ATOM     19  O   UNL     1      -3.287  14.659  23.583  0.00  0.00    +0.000 OA
ATOM     20  C   UNL     1      -3.172  13.432  24.327  0.00  0.00    +0.000 C 
ATOM     21  C   UNL     1      -3.287  12.212  23.408  0.00  0.00    +0.000 C 
ATOM     22  C   UNL     1      -0.571  11.183  21.059  0.00  0.00    +0.000 A 
ENDBRANCH   7  11
BRANCH   1  24
ATOM     23  O   UNL     1       2.867   3.989  18.500  0.00  0.00    +0.000 OA
ATOM     24  S   UNL     1       3.075   4.964  19.556  0.00  0.00    +0.000 S 
ATOM     25  O   UNL     1       4.368   5.092  20.203  0.00  0.00    +0.000 OA
BRANCH  24  26
ATOM     26  C   UNL     1       1.888   4.638  20.892  0.00  0.00    +0.000 C 
ATOM     27  C   UNL     1       0.960   3.468  20.720  0.00  0.00    +0.000 C 
ATOM     28  C   UNL     1       2.141   3.349  21.641  0.00  0.00    +0.000 C 
ENDBRANCH  24  26
ENDBRANCH   1  24
TORSDOF 3
ENDMDL
MODEL 8
REMARK VINA RESULT:      -7.7      3.266      4.606
REMARK  Name = 
REMARK  3 active torsions:
REMARK  status: ('A' for Active; 'I' for Inactive)
REMARK    1  A    between atoms: S_2  and  C_4
REMARK    2  A    between atoms: S_2  and  C_25
REMARK    3  A    between atoms: C_10  and  C_11
REMARK                            x       y       z     vdW  Elec       q    Type
REMARK                         _______ _______ _______ _____ _____    ______ ____
ROOT
ATOM      1  C   UNL     1       2.265   3.903  18.378  0.00  0.00    +0.000 A 
ATOM      2  C   UNL     1       3.332   3.745  17.489  0.00  0.00    +0.000 A 
ATOM      3  C   UNL     1       4.009   4.857  16.980  0.00  0.00    +0.000 A 
ATOM      4  C   UNL     1       3.601   6.114  17.440  0.00  0.00    +0.000 A 
ATOM      5  N   UNL     1       4.069   7.369  17.164  0.00  0.00    +0.000 N 
ATOM      6  N   UNL     1       3.435   8.350  17.817  0.00  0.00    +0.000 NA
ATOM      7  C   UNL     1       2.523   7.717  18.576  0.00  0.00    +0.000 A 
ATOM      8  C   UNL     1       2.565   6.303  18.350  0.00  0.00    +0.000 A 
ATOM      9  C   UNL     1       1.861   5.173  18.812  0.00  0.00    +0.000 A 
ATOM     10  H   UNL     1       4.825   7.621  16.539  0.00  0.00    +0.000 HD
ENDROOT
BRANCH   7  11
ATOM     11  C   UNL     1       1.641   8.475  19.465  0.00  0.00    +0.000 A 
ATOM     12  C   UNL     1       1.353   8.041  20.753  0.00  0.00    +0.000 A 
ATOM     13  C   UNL     1       0.464   8.787  21.498  0.00  0.00    +0.000 A 
ATOM     14  N   UNL     1      -0.137   9.911  21.051  0.00  0.00    +0.000 NA
ATOM     15  C   UNL     1       0.154  10.363  19.811  0.00  0.00    +0.000 A 
ATOM     16  N   UNL     1      -0.508  11.476  19.342  0.00  0.00    +0.000 N 
ATOM     17  C   UNL     1       0.094  12.429  18.402  0.00  0.00    +0.000 C 
ATOM     18  C   UNL     1       0.259  13.809  19.063  0.00  0.00    +0.000 C 
ATOM     19  O   UNL     1      -0.970  14.281  19.637  0.00  0.00    +0.000 OA
ATOM     20  C   UNL     1      -1.424  13.362  20.646  0.00  0.00    +0.000 C 
ATOM     21  C   UNL     1      -1.691  11.973  20.054  0.00  0.00    +0.000 C 
ATOM     22  C   UNL     1       1.048   9.659  19.009  0.00  0.00    +0.000 A 
ENDBRANCH   7  11
BRANCH   1  24
ATOM     23  O   UNL     1       0.317   2.171  18.386  0.00  0.00    +0.000 OA
ATOM     24  S   UNL     1       1.533   2.462  19.123  0.00  0.00    +0.000 S 
ATOM     25  O   UNL     1       2.579   1.463  19.254  0.00  0.00    +0.000 OA
BRANCH  24  26
ATOM     26  C   UNL     1       1.088   2.931  20.820  0.00  0.00    +0.000 C 
ATOM     27  C   UNL     1       1.809   2.233  21.940  0.00  0.00    +0.000 C 
ATOM     28  C   UNL     1       2.190   3.639  21.574  0.00  0.00    +0.000 C 
ENDBRANCH  24  26
ENDBRANCH   1  24
TORSDOF 3
ENDMDL
MODEL 9
REMARK VINA RESULT:      -7.7      3.210      4.379
REMARK  Name = 
REMARK  3 active torsions:
REMARK  status: ('A' for Active; 'I' for Inactive)
REMARK    1  A    between atoms: S_2  and  C_4
REMARK    2  A    between atoms: S_2  and  C_25
REMARK    3  A    between atoms: C_10  and  C_11
REMARK                            x       y       z     vdW  Elec       q    Type
REMARK                         _______ _______ _______ _____ _____    ______ ____
ROOT
ATOM      1  C   UNL     1       2.732   4.792  19.639  0.00  0.00    +0.000 A 
ATOM      2  C   UNL     1       3.492   4.802  18.467  0.00  0.00    +0.000 A 
ATOM      3  C   UNL     1       3.585   5.956  17.684  0.00  0.00    +0.000 A 
ATOM      4  C   UNL     1       2.928   7.098  18.157  0.00  0.00    +0.000 A 
ATOM      5  N   UNL     1       2.851   8.366  17.652  0.00  0.00    +0.000 N 
ATOM      6  N   UNL     1       2.138   9.216  18.401  0.00  0.00    +0.000 NA
ATOM      7  C   UNL     1       1.744   8.486  19.459  0.00  0.00    +0.000 A 
ATOM      8  C   UNL     1       2.191   7.129  19.337  0.00  0.00    +0.000 A 
ATOM      9  C   UNL     1       2.066   5.942  20.085  0.00  0.00    +0.000 A 
ATOM     10  H   UNL     1       3.269   8.716  16.798  0.00  0.00    +0.000 HD
ENDROOT
BRANCH   7  11
ATOM     11  C   UNL     1       0.949   9.093  20.528  0.00  0.00    +0.000 A 
ATOM     12  C   UNL     1       0.442   8.342  21.580  0.00  0.00    +0.000 A 
ATOM     13  C   UNL     1      -0.346   8.988  22.509  0.00  0.00    +0.000 A 
ATOM     14  N   UNL     1      -0.649  10.303  22.457  0.00  0.00    +0.000 NA
ATOM     15  C   UNL     1      -0.140  11.055  21.456  0.00  0.00    +0.000 A 
ATOM     16  N   UNL     1      -0.501  12.382  21.378  0.00  0.00    +0.000 N 
ATOM     17  C   UNL     1       0.382  13.422  20.839  0.00  0.00    +0.000 C 
ATOM     18  C   UNL     1       0.760  14.432  21.937  0.00  0.00    +0.000 C 
ATOM     19  O   UNL     1      -0.398  14.962  22.602  0.00  0.00    +0.000 OA
ATOM     20  C   UNL     1      -1.138  13.895  23.221  0.00  0.00    +0.000 C 
ATOM     21  C   UNL     1      -1.624  12.879  22.182  0.00  0.00    +0.000 C 
ATOM     22  C   UNL     1       0.669  10.465  20.488  0.00  0.00    +0.000 A 
ENDBRANCH   7  11
BRANCH   1  24
ATOM     23  O   UNL     1       4.047   2.703  20.475  0.00  0.00    +0.000 OA
ATOM     24  S   UNL     1       2.767   3.353  20.686  0.00  0.00    +0.000 S 
ATOM     25  O   UNL     1       2.357   3.772  22.014  0.00  0.00    +0.000 OA
BRANCH  24  26
ATOM     26  C   UNL     1       1.449   2.253  20.091  0.00  0.00    +0.000 C 
ATOM     27  C   UNL     1       0.541   2.782  19.017  0.00  0.00    +0.000 C 
ATOM     28  C   UNL     1       1.621   1.802  18.659  0.00  0.00    +0.000 C 
ENDBRANCH  24  26
ENDBRANCH   1  24
TORSDOF 3
ENDMDL
