MODEL 1
REMARK VINA RESULT:      -8.0      0.000      0.000
REMARK  Name = 
REMARK  9 active torsions:
REMARK  status: ('A' for Active; 'I' for Inactive)
REMARK    1  A    between atoms: C_1  and  C_2
REMARK    2  A    between atoms: C_2  and  O_3
REMARK    3  A    between atoms: O_3  and  C_4
REMARK    4  A    between atoms: C_4  and  C_6
REMARK    5  A    between atoms: C_7  and  N_8
REMARK    6  A    between atoms: C_9  and  C_11
REMARK    7  A    between atoms: N_14  and  C_15
REMARK    8  A    between atoms: C_18  and  C_19
REMARK    9  A    between atoms: C_23  and  C_24
REMARK                            x       y       z     vdW  Elec       q    Type
REMARK                         _______ _______ _______ _____ _____    ______ ____
ROOT
ATOM      1  N   UNL     1       2.322   7.746  18.838  0.00  0.00    +0.000 N 
ATOM      2  C   UNL     1       1.755   8.945  18.429  0.00  0.00    +0.000 C 
ATOM      3  O   UNL     1       1.970   9.493  17.350  0.00  0.00    +0.000 OA
ATOM      4  H   UNL     1       2.090   7.429  19.780  0.00  0.00    +0.000 HD
ENDROOT
BRANCH   1   6
ATOM      5  C   UNL     1       2.985   5.540  17.908  0.00  0.00    +0.000 A 
ATOM      6  C   UNL     1       3.167   6.904  18.125  0.00  0.00    +0.000 A 
ATOM      7  S   UNL     1       4.593   7.491  17.420  0.00  0.00    +0.000 S 
ATOM      8  C   UNL     1       5.002   5.972  16.800  0.00  0.00    +0.000 A 
ATOM      9  C   UNL     1       4.070   4.997  17.106  0.00  0.00    +0.000 A 
ATOM     10  C   UNL     1       4.256   3.586  16.611  0.00  0.00    +0.000 C 
ATOM     11  C   UNL     1       5.711   3.299  16.213  0.00  0.00    +0.000 C 
ATOM     12  C   UNL     1       6.285   4.412  15.332  0.00  0.00    +0.000 C 
ATOM     13  C   UNL     1       6.281   5.766  16.050  0.00  0.00    +0.000 C 
BRANCH   5  14
ATOM     14  C   UNL     1       1.858   4.812  18.501  0.00  0.00    +0.000 C 
ATOM     15  O   UNL     1       1.104   4.101  17.843  0.00  0.00    +0.000 OA
BRANCH  14  16
ATOM     16  O   UNL     1       1.673   5.101  19.819  0.00  0.00    +0.000 OA
BRANCH  16  18
ATOM     17  C   UNL     1       1.508   3.146  21.183  0.00  0.00    +0.000 C 
ATOM     18  C   UNL     1       2.408   4.292  20.744  0.00  0.00    +0.000 C 
ENDBRANCH  16  18
ENDBRANCH  14  16
ENDBRANCH   5  14
ENDBRANCH   1   6
BRANCH   2  19
ATOM     19  C   UNL     1       0.849   9.546  19.400  0.00  0.00    +0.000 A 
ATOM     20  S   UNL     1       1.171   9.570  21.089  0.00  0.00    +0.000 S 
ATOM     21  C   UNL     1      -0.305  10.406  21.379  0.00  0.00    +0.000 A 
ATOM     22  N   UNL     1      -0.649  10.758  22.642  0.00  0.00    +0.000 N 
ATOM     23  N   UNL     1      -1.008  10.633  20.296  0.00  0.00    +0.000 NA
ATOM     24  C   UNL     1      -0.379  10.145  19.166  0.00  0.00    +0.000 A 
ATOM     25  C   UNL     1      -1.099  10.300  17.873  0.00  0.00    +0.000 C 
ATOM     26  H   UNL     1      -0.079  10.386  23.390  0.00  0.00    +0.000 HD
BRANCH  22  27
ATOM     27  C   UNL     1      -1.378  11.908  23.011  0.00  0.00    +0.000 A 
ATOM     28  C   UNL     1      -0.865  13.208  22.937  0.00  0.00    +0.000 A 
ATOM     29  C   UNL     1      -1.614  14.314  23.337  0.00  0.00    +0.000 A 
ATOM     30  C   UNL     1      -2.914  14.146  23.810  0.00  0.00    +0.000 A 
ATOM     31  C   UNL     1      -3.704  15.332  24.295  0.00  0.00    +0.000 C 
ATOM     32  C   UNL     1      -3.467  12.868  23.838  0.00  0.00    +0.000 A 
ATOM     33  C   UNL     1      -2.708  11.761  23.436  0.00  0.00    +0.000 A 
ENDBRANCH  22  27
ENDBRANCH   2  19
TORSDOF 6
ENDMDL
MODEL 2
REMARK VINA RESULT:      -7.9      0.702      1.284
REMARK  Name = 
REMARK  9 active torsions:
REMARK  status: ('A' for Active; 'I' for Inactive)
REMARK    1  A    between atoms: C_1  and  C_2
REMARK    2  A    between atoms: C_2  and  O_3
REMARK    3  A    between atoms: O_3  and  C_4
REMARK    4  A    between atoms: C_4  and  C_6
REMARK    5  A    between atoms: C_7  and  N_8
REMARK    6  A    between atoms: C_9  and  C_11
REMARK    7  A    between atoms: N_14  and  C_15
REMARK    8  A    between atoms: C_18  and  C_19
REMARK    9  A    between atoms: C_23  and  C_24
REMARK                            x       y       z     vdW  Elec       q    Type
REMARK                         _______ _______ _______ _____ _____    ______ ____
ROOT
ATOM      1  N   UNL     1       2.068   7.912  18.943  0.00  0.00    +0.000 N 
ATOM      2  C   UNL     1       1.595   9.166  18.584  0.00  0.00    +0.000 C 
ATOM      3  O   UNL     1       1.898   9.764  17.554  0.00  0.00    +0.000 OA
ATOM      4  H   UNL     1       1.768   7.553  19.850  0.00  0.00    +0.000 HD
ENDROOT
BRANCH   1   6
ATOM      5  C   UNL     1       2.884   5.671  18.246  0.00  0.00    +0.000 A 
ATOM      6  C   UNL     1       2.899   7.064  18.220  0.00  0.00    +0.000 A 
ATOM      7  S   UNL     1       4.090   7.683  17.186  0.00  0.00    +0.000 S 
ATOM      8  C   UNL     1       4.609   6.138  16.734  0.00  0.00    +0.000 A 
ATOM      9  C   UNL     1       3.891   5.129  17.348  0.00  0.00    +0.000 A 
ATOM     10  C   UNL     1       4.196   3.685  17.043  0.00  0.00    +0.000 C 
ATOM     11  C   UNL     1       5.593   3.505  16.432  0.00  0.00    +0.000 C 
ATOM     12  C   UNL     1       5.849   4.509  15.304  0.00  0.00    +0.000 C 
ATOM     13  C   UNL     1       5.765   5.956  15.801  0.00  0.00    +0.000 C 
BRANCH   5  14
ATOM     14  C   UNL     1       1.985   4.930  19.138  0.00  0.00    +0.000 C 
ATOM     15  O   UNL     1       1.987   5.077  20.357  0.00  0.00    +0.000 OA
BRANCH  14  16
ATOM     16  O   UNL     1       1.244   3.992  18.487  0.00  0.00    +0.000 OA
BRANCH  16  18
ATOM     17  C   UNL     1       1.905   1.798  19.166  0.00  0.00    +0.000 C 
ATOM     18  C   UNL     1       0.829   2.869  19.273  0.00  0.00    +0.000 C 
ENDBRANCH  16  18
ENDBRANCH  14  16
ENDBRANCH   5  14
ENDBRANCH   1   6
BRANCH   2  19
ATOM     19  C   UNL     1       0.675   9.762  19.545  0.00  0.00    +0.000 A 
ATOM     20  S   UNL     1       1.006   9.839  21.231  0.00  0.00    +0.000 S 
ATOM     21  C   UNL     1      -0.495  10.634  21.510  0.00  0.00    +0.000 A 
ATOM     22  N   UNL     1      -0.843  11.006  22.766  0.00  0.00    +0.000 N 
ATOM     23  N   UNL     1      -1.211  10.811  20.426  0.00  0.00    +0.000 NA
ATOM     24  C   UNL     1      -0.573  10.314  19.305  0.00  0.00    +0.000 A 
ATOM     25  C   UNL     1      -1.305  10.414  18.013  0.00  0.00    +0.000 C 
ATOM     26  H   UNL     1      -0.256  10.672  23.519  0.00  0.00    +0.000 HD
BRANCH  22  27
ATOM     27  C   UNL     1      -1.607  12.142  23.111  0.00  0.00    +0.000 A 
ATOM     28  C   UNL     1      -2.946  12.082  23.514  0.00  0.00    +0.000 A 
ATOM     29  C   UNL     1      -3.669  13.235  23.820  0.00  0.00    +0.000 A 
ATOM     30  C   UNL     1      -3.058  14.485  23.747  0.00  0.00    +0.000 A 
ATOM     31  C   UNL     1      -3.853  15.733  24.023  0.00  0.00    +0.000 C 
ATOM     32  C   UNL     1      -1.711  14.565  23.405  0.00  0.00    +0.000 A 
ATOM     33  C   UNL     1      -0.991  13.403  23.097  0.00  0.00    +0.000 A 
ENDBRANCH  22  27
ENDBRANCH   2  19
TORSDOF 6
ENDMDL
MODEL 3
REMARK VINA RESULT:      -7.4      1.477      1.928
REMARK  Name = 
REMARK  9 active torsions:
REMARK  status: ('A' for Active; 'I' for Inactive)
REMARK    1  A    between atoms: C_1  and  C_2
REMARK    2  A    between atoms: C_2  and  O_3
REMARK    3  A    between atoms: O_3  and  C_4
REMARK    4  A    between atoms: C_4  and  C_6
REMARK    5  A    between atoms: C_7  and  N_8
REMARK    6  A    between atoms: C_9  and  C_11
REMARK    7  A    between atoms: N_14  and  C_15
REMARK    8  A    between atoms: C_18  and  C_19
REMARK    9  A    between atoms: C_23  and  C_24
REMARK                            x       y       z     vdW  Elec       q    Type
REMARK                         _______ _______ _______ _____ _____    ______ ____
ROOT
ATOM      1  N   UNL     1       2.089   8.128  19.080  0.00  0.00    +0.000 N 
ATOM      2  C   UNL     1       1.473   9.271  18.589  0.00  0.00    +0.000 C 
ATOM      3  O   UNL     1       1.574   9.684  17.436  0.00  0.00    +0.000 OA
ATOM      4  H   UNL     1       1.955   7.928  20.071  0.00  0.00    +0.000 HD
ENDROOT
BRANCH   1   6
ATOM      5  C   UNL     1       2.859   5.823  18.568  0.00  0.00    +0.000 A 
ATOM      6  C   UNL     1       2.867   7.205  18.393  0.00  0.00    +0.000 A 
ATOM      7  S   UNL     1       3.978   7.705  17.214  0.00  0.00    +0.000 S 
ATOM      8  C   UNL     1       4.467   6.118  16.892  0.00  0.00    +0.000 A 
ATOM      9  C   UNL     1       3.799   5.183  17.662  0.00  0.00    +0.000 A 
ATOM     10  C   UNL     1       4.085   3.713  17.490  0.00  0.00    +0.000 C 
ATOM     11  C   UNL     1       5.435   3.463  16.801  0.00  0.00    +0.000 C 
ATOM     12  C   UNL     1       5.604   4.340  15.557  0.00  0.00    +0.000 C 
ATOM     13  C   UNL     1       5.551   5.833  15.901  0.00  0.00    +0.000 C 
BRANCH   5  14
ATOM     14  C   UNL     1       2.031   5.185  19.598  0.00  0.00    +0.000 C 
ATOM     15  O   UNL     1       2.218   5.352  20.800  0.00  0.00    +0.000 OA
BRANCH  14  16
ATOM     16  O   UNL     1       1.123   4.310  19.084  0.00  0.00    +0.000 OA
BRANCH  16  18
ATOM     17  C   UNL     1       1.241   1.929  18.924  0.00  0.00    +0.000 C 
ATOM     18  C   UNL     1       0.924   3.107  19.834  0.00  0.00    +0.000 C 
ENDBRANCH  16  18
ENDBRANCH  14  16
ENDBRANCH   5  14
ENDBRANCH   1   6
BRANCH   2  19
ATOM     19  C   UNL     1       0.661   9.987  19.566  0.00  0.00    +0.000 A 
ATOM     20  S   UNL     1       0.272  11.654  19.415  0.00  0.00    +0.000 S 
ATOM     21  C   UNL     1      -0.627  11.599  20.880  0.00  0.00    +0.000 A 
ATOM     22  N   UNL     1      -1.252  12.712  21.337  0.00  0.00    +0.000 N 
ATOM     23  N   UNL     1      -0.621  10.424  21.463  0.00  0.00    +0.000 NA
ATOM     24  C   UNL     1       0.112   9.500  20.742  0.00  0.00    +0.000 A 
ATOM     25  C   UNL     1       0.234   8.135  21.321  0.00  0.00    +0.000 C 
ATOM     26  H   UNL     1      -1.045  13.578  20.858  0.00  0.00    +0.000 HD
BRANCH  22  27
ATOM     27  C   UNL     1      -2.465  12.744  22.057  0.00  0.00    +0.000 A 
ATOM     28  C   UNL     1      -2.543  12.641  23.451  0.00  0.00    +0.000 A 
ATOM     29  C   UNL     1      -3.768  12.651  24.117  0.00  0.00    +0.000 A 
ATOM     30  C   UNL     1      -4.954  12.782  23.400  0.00  0.00    +0.000 A 
ATOM     31  C   UNL     1      -6.280  12.738  24.113  0.00  0.00    +0.000 C 
ATOM     32  C   UNL     1      -4.900  12.946  22.018  0.00  0.00    +0.000 A 
ATOM     33  C   UNL     1      -3.666  12.932  21.354  0.00  0.00    +0.000 A 
ENDBRANCH  22  27
ENDBRANCH   2  19
TORSDOF 6
ENDMDL
MODEL 4
REMARK VINA RESULT:      -7.3      3.277     10.731
REMARK  Name = 
REMARK  9 active torsions:
REMARK  status: ('A' for Active; 'I' for Inactive)
REMARK    1  A    between atoms: C_1  and  C_2
REMARK    2  A    between atoms: C_2  and  O_3
REMARK    3  A    between atoms: O_3  and  C_4
REMARK    4  A    between atoms: C_4  and  C_6
REMARK    5  A    between atoms: C_7  and  N_8
REMARK    6  A    between atoms: C_9  and  C_11
REMARK    7  A    between atoms: N_14  and  C_15
REMARK    8  A    between atoms: C_18  and  C_19
REMARK    9  A    between atoms: C_23  and  C_24
REMARK                            x       y       z     vdW  Elec       q    Type
REMARK                         _______ _______ _______ _____ _____    ______ ____
ROOT
ATOM      1  N   UNL     1      -0.804  12.444  22.453  0.00  0.00    +0.000 N 
ATOM      2  C   UNL     1      -0.843  12.027  21.130  0.00  0.00    +0.000 C 
ATOM      3  O   UNL     1      -1.482  12.580  20.237  0.00  0.00    +0.000 OA
ATOM      4  H   UNL     1      -0.268  11.864  23.098  0.00  0.00    +0.000 HD
ENDROOT
BRANCH   1   6
ATOM      5  C   UNL     1      -2.693  13.650  23.524  0.00  0.00    +0.000 A 
ATOM      6  C   UNL     1      -1.396  13.565  23.022  0.00  0.00    +0.000 A 
ATOM      7  S   UNL     1      -0.549  15.027  23.155  0.00  0.00    +0.000 S 
ATOM      8  C   UNL     1      -1.859  15.807  23.887  0.00  0.00    +0.000 A 
ATOM      9  C   UNL     1      -2.955  14.979  24.051  0.00  0.00    +0.000 A 
ATOM     10  C   UNL     1      -4.206  15.496  24.714  0.00  0.00    +0.000 C 
ATOM     11  C   UNL     1      -4.273  17.031  24.706  0.00  0.00    +0.000 C 
ATOM     12  C   UNL     1      -2.951  17.655  25.163  0.00  0.00    +0.000 C 
ATOM     13  C   UNL     1      -1.788  17.257  24.249  0.00  0.00    +0.000 C 
BRANCH   5  14
ATOM     14  C   UNL     1      -3.627  12.522  23.431  0.00  0.00    +0.000 C 
ATOM     15  O   UNL     1      -3.917  11.817  24.394  0.00  0.00    +0.000 OA
BRANCH  14  16
ATOM     16  O   UNL     1      -4.037  12.274  22.157  0.00  0.00    +0.000 OA
BRANCH  16  18
ATOM     17  C   UNL     1      -6.362  12.588  21.702  0.00  0.00    +0.000 C 
ATOM     18  C   UNL     1      -4.976  13.208  21.611  0.00  0.00    +0.000 C 
ENDBRANCH  16  18
ENDBRANCH  14  16
ENDBRANCH   5  14
ENDBRANCH   1   6
BRANCH   2  19
ATOM     19  C   UNL     1      -0.047  10.839  20.847  0.00  0.00    +0.000 A 
ATOM     20  S   UNL     1       0.054   9.504  21.926  0.00  0.00    +0.000 S 
ATOM     21  C   UNL     1       1.103   8.680  20.840  0.00  0.00    +0.000 A 
ATOM     22  N   UNL     1       1.568   7.444  21.150  0.00  0.00    +0.000 N 
ATOM     23  N   UNL     1       1.384   9.359  19.754  0.00  0.00    +0.000 NA
ATOM     24  C   UNL     1       0.753  10.588  19.743  0.00  0.00    +0.000 A 
ATOM     25  C   UNL     1       1.027  11.478  18.582  0.00  0.00    +0.000 C 
ATOM     26  H   UNL     1       1.383   7.110  22.086  0.00  0.00    +0.000 HD
BRANCH  22  27
ATOM     27  C   UNL     1       1.848   6.410  20.230  0.00  0.00    +0.000 A 
ATOM     28  C   UNL     1       2.567   6.602  19.044  0.00  0.00    +0.000 A 
ATOM     29  C   UNL     1       2.797   5.555  18.153  0.00  0.00    +0.000 A 
ATOM     30  C   UNL     1       2.325   4.276  18.437  0.00  0.00    +0.000 A 
ATOM     31  C   UNL     1       2.525   3.157  17.450  0.00  0.00    +0.000 C 
ATOM     32  C   UNL     1       1.658   4.048  19.638  0.00  0.00    +0.000 A 
ATOM     33  C   UNL     1       1.428   5.104  20.529  0.00  0.00    +0.000 A 
ENDBRANCH  22  27
ENDBRANCH   2  19
TORSDOF 6
ENDMDL
MODEL 5
REMARK VINA RESULT:      -7.3      3.213     10.123
REMARK  Name = 
REMARK  9 active torsions:
REMARK  status: ('A' for Active; 'I' for Inactive)
REMARK    1  A    between atoms: C_1  and  C_2
REMARK    2  A    between atoms: C_2  and  O_3
REMARK    3  A    between atoms: O_3  and  C_4
REMARK    4  A    between atoms: C_4  and  C_6
REMARK    5  A    between atoms: C_7  and  N_8
REMARK    6  A    between atoms: C_9  and  C_11
REMARK    7  A    between atoms: N_14  and  C_15
REMARK    8  A    between atoms: C_18  and  C_19
REMARK    9  A    between atoms: C_23  and  C_24
REMARK                            x       y       z     vdW  Elec       q    Type
REMARK                         _______ _______ _______ _____ _____    ______ ____
ROOT
ATOM      1  N   UNL     1      -1.326  11.253  20.658  0.00  0.00    +0.000 N 
ATOM      2  C   UNL     1      -0.028  11.306  20.172  0.00  0.00    +0.000 C 
ATOM      3  O   UNL     1       0.542  12.330  19.798  0.00  0.00    +0.000 OA
ATOM      4  H   UNL     1      -1.689  10.328  20.890  0.00  0.00    +0.000 HD
ENDROOT
BRANCH   1   6
ATOM      5  C   UNL     1      -3.322  12.628  20.111  0.00  0.00    +0.000 A 
ATOM      6  C   UNL     1      -2.207  12.304  20.882  0.00  0.00    +0.000 A 
ATOM      7  S   UNL     1      -1.987  13.364  22.186  0.00  0.00    +0.000 S 
ATOM      8  C   UNL     1      -3.358  14.268  21.781  0.00  0.00    +0.000 A 
ATOM      9  C   UNL     1      -4.009  13.785  20.661  0.00  0.00    +0.000 A 
ATOM     10  C   UNL     1      -5.269  14.450  20.169  0.00  0.00    +0.000 C 
ATOM     11  C   UNL     1      -5.418  15.881  20.707  0.00  0.00    +0.000 C 
ATOM     12  C   UNL     1      -5.157  15.946  22.215  0.00  0.00    +0.000 C 
ATOM     13  C   UNL     1      -3.739  15.484  22.567  0.00  0.00    +0.000 C 
BRANCH   5  14
ATOM     14  C   UNL     1      -3.648  11.890  18.886  0.00  0.00    +0.000 C 
ATOM     15  O   UNL     1      -4.747  11.378  18.689  0.00  0.00    +0.000 OA
BRANCH  14  16
ATOM     16  O   UNL     1      -2.579  11.736  18.058  0.00  0.00    +0.000 OA
BRANCH  16  18
ATOM     17  C   UNL     1      -2.741  10.827  15.853  0.00  0.00    +0.000 C 
ATOM     18  C   UNL     1      -2.529  10.506  17.325  0.00  0.00    +0.000 C 
ENDBRANCH  16  18
ENDBRANCH  14  16
ENDBRANCH   5  14
ENDBRANCH   1   6
BRANCH   2  19
ATOM     19  C   UNL     1       0.654  10.018  20.127  0.00  0.00    +0.000 A 
ATOM     20  S   UNL     1       0.613   8.894  21.428  0.00  0.00    +0.000 S 
ATOM     21  C   UNL     1       1.590   7.795  20.535  0.00  0.00    +0.000 A 
ATOM     22  N   UNL     1       1.929   6.597  21.072  0.00  0.00    +0.000 N 
ATOM     23  N   UNL     1       1.948   8.240  19.355  0.00  0.00    +0.000 NA
ATOM     24  C   UNL     1       1.438   9.501  19.108  0.00  0.00    +0.000 A 
ATOM     25  C   UNL     1       1.810  10.139  17.816  0.00  0.00    +0.000 C 
ATOM     26  H   UNL     1       1.702   6.455  22.047  0.00  0.00    +0.000 HD
BRANCH  22  27
ATOM     27  C   UNL     1       2.119   5.394  20.358  0.00  0.00    +0.000 A 
ATOM     28  C   UNL     1       1.130   4.414  20.213  0.00  0.00    +0.000 A 
ATOM     29  C   UNL     1       1.372   3.229  19.520  0.00  0.00    +0.000 A 
ATOM     30  C   UNL     1       2.616   3.001  18.936  0.00  0.00    +0.000 A 
ATOM     31  C   UNL     1       2.897   1.698  18.235  0.00  0.00    +0.000 C 
ATOM     32  C   UNL     1       3.597   3.986  19.016  0.00  0.00    +0.000 A 
ATOM     33  C   UNL     1       3.348   5.174  19.716  0.00  0.00    +0.000 A 
ENDBRANCH  22  27
ENDBRANCH   2  19
TORSDOF 6
ENDMDL
MODEL 6
REMARK VINA RESULT:      -7.2      3.041     10.443
REMARK  Name = 
REMARK  9 active torsions:
REMARK  status: ('A' for Active; 'I' for Inactive)
REMARK    1  A    between atoms: C_1  and  C_2
REMARK    2  A    between atoms: C_2  and  O_3
REMARK    3  A    between atoms: O_3  and  C_4
REMARK    4  A    between atoms: C_4  and  C_6
REMARK    5  A    between atoms: C_7  and  N_8
REMARK    6  A    between atoms: C_9  and  C_11
REMARK    7  A    between atoms: N_14  and  C_15
REMARK    8  A    between atoms: C_18  and  C_19
REMARK    9  A    between atoms: C_23  and  C_24
REMARK                            x       y       z     vdW  Elec       q    Type
REMARK                         _______ _______ _______ _____ _____    ______ ____
ROOT
ATOM      1  N   UNL     1      -0.246  11.643  21.893  0.00  0.00    +0.000 N 
ATOM      2  C   UNL     1      -0.380  11.042  20.649  0.00  0.00    +0.000 C 
ATOM      3  O   UNL     1      -1.075  11.472  19.732  0.00  0.00    +0.000 OA
ATOM      4  H   UNL     1       0.329  11.152  22.578  0.00  0.00    +0.000 HD
ENDROOT
BRANCH   1   6
ATOM      5  C   UNL     1      -0.211  14.105  22.223  0.00  0.00    +0.000 A 
ATOM      6  C   UNL     1      -0.791  12.843  22.334  0.00  0.00    +0.000 A 
ATOM      7  S   UNL     1      -2.298  12.885  23.109  0.00  0.00    +0.000 S 
ATOM      8  C   UNL     1      -2.235  14.563  23.306  0.00  0.00    +0.000 A 
ATOM      9  C   UNL     1      -1.082  15.123  22.787  0.00  0.00    +0.000 A 
ATOM     10  C   UNL     1      -0.867  16.614  22.847  0.00  0.00    +0.000 C 
ATOM     11  C   UNL     1      -1.755  17.285  23.906  0.00  0.00    +0.000 C 
ATOM     12  C   UNL     1      -3.207  16.809  23.808  0.00  0.00    +0.000 C 
ATOM     13  C   UNL     1      -3.326  15.296  24.023  0.00  0.00    +0.000 C 
BRANCH   5  14
ATOM     14  C   UNL     1       1.131  14.285  21.659  0.00  0.00    +0.000 C 
ATOM     15  O   UNL     1       2.075  14.722  22.312  0.00  0.00    +0.000 OA
BRANCH  14  16
ATOM     16  O   UNL     1       1.185  14.031  20.322  0.00  0.00    +0.000 OA
BRANCH  16  18
ATOM     17  C   UNL     1       2.998  14.249  18.780  0.00  0.00    +0.000 C 
ATOM     18  C   UNL     1       2.372  13.377  19.859  0.00  0.00    +0.000 C 
ENDBRANCH  16  18
ENDBRANCH  14  16
ENDBRANCH   5  14
ENDBRANCH   1   6
BRANCH   2  19
ATOM     19  C   UNL     1       0.388   9.813  20.487  0.00  0.00    +0.000 A 
ATOM     20  S   UNL     1       0.476   8.600  21.702  0.00  0.00    +0.000 S 
ATOM     21  C   UNL     1       1.493   7.641  20.699  0.00  0.00    +0.000 A 
ATOM     22  N   UNL     1       1.935   6.435  21.135  0.00  0.00    +0.000 N 
ATOM     23  N   UNL     1       1.772   8.193  19.543  0.00  0.00    +0.000 NA
ATOM     24  C   UNL     1       1.166   9.428  19.407  0.00  0.00    +0.000 A 
ATOM     25  C   UNL     1       1.442  10.181  18.153  0.00  0.00    +0.000 C 
ATOM     26  H   UNL     1       1.757   6.208  22.104  0.00  0.00    +0.000 HD
BRANCH  22  27
ATOM     27  C   UNL     1       2.181   5.303  20.328  0.00  0.00    +0.000 A 
ATOM     28  C   UNL     1       1.218   4.328  20.047  0.00  0.00    +0.000 A 
ATOM     29  C   UNL     1       1.514   3.212  19.266  0.00  0.00    +0.000 A 
ATOM     30  C   UNL     1       2.789   3.052  18.728  0.00  0.00    +0.000 A 
ATOM     31  C   UNL     1       3.126   1.820  17.930  0.00  0.00    +0.000 C 
ATOM     32  C   UNL     1       3.748   4.038  18.945  0.00  0.00    +0.000 A 
ATOM     33  C   UNL     1       3.444   5.156  19.733  0.00  0.00    +0.000 A 
ENDBRANCH  22  27
ENDBRANCH   2  19
TORSDOF 6
ENDMDL
MODEL 7
REMARK VINA RESULT:      -7.2      3.066     10.468
REMARK  Name = 
REMARK  9 active torsions:
REMARK  status: ('A' for Active; 'I' for Inactive)
REMARK    1  A    between atoms: C_1  and  C_2
REMARK    2  A    between atoms: C_2  and  O_3
REMARK    3  A    between atoms: O_3  and  C_4
REMARK    4  A    between atoms: C_4  and  C_6
REMARK    5  A    between atoms: C_7  and  N_8
REMARK    6  A    between atoms: C_9  and  C_11
REMARK    7  A    between atoms: N_14  and  C_15
REMARK    8  A    between atoms: C_18  and  C_19
REMARK    9  A    between atoms: C_23  and  C_24
REMARK                            x       y       z     vdW  Elec       q    Type
REMARK                         _______ _______ _______ _____ _____    ______ ____
ROOT
ATOM      1  N   UNL     1      -0.310  11.984  21.980  0.00  0.00    +0.000 N 
ATOM      2  C   UNL     1      -0.513  11.359  20.758  0.00  0.00    +0.000 C 
ATOM      3  O   UNL     1      -1.258  11.772  19.872  0.00  0.00    +0.000 OA
ATOM      4  H   UNL     1       0.303  11.506  22.641  0.00  0.00    +0.000 HD
ENDROOT
BRANCH   1   6
ATOM      5  C   UNL     1      -2.061  13.386  23.048  0.00  0.00    +0.000 A 
ATOM      6  C   UNL     1      -0.829  13.194  22.427  0.00  0.00    +0.000 A 
ATOM      7  S   UNL     1       0.036  14.639  22.234  0.00  0.00    +0.000 S 
ATOM      8  C   UNL     1      -1.179  15.553  22.974  0.00  0.00    +0.000 A 
ATOM      9  C   UNL     1      -2.254  14.787  23.385  0.00  0.00    +0.000 A 
ATOM     10  C   UNL     1      -3.421  15.430  24.091  0.00  0.00    +0.000 C 
ATOM     11  C   UNL     1      -3.479  16.946  23.849  0.00  0.00    +0.000 C 
ATOM     12  C   UNL     1      -2.112  17.603  24.054  0.00  0.00    +0.000 C 
ATOM     13  C   UNL     1      -1.060  17.041  23.092  0.00  0.00    +0.000 C 
BRANCH   5  14
ATOM     14  C   UNL     1      -3.005  12.279  23.238  0.00  0.00    +0.000 C 
ATOM     15  O   UNL     1      -2.665  11.180  23.667  0.00  0.00    +0.000 OA
BRANCH  14  16
ATOM     16  O   UNL     1      -4.256  12.564  22.784  0.00  0.00    +0.000 OA
BRANCH  16  18
ATOM     17  C   UNL     1      -5.881  12.492  21.033  0.00  0.00    +0.000 C 
ATOM     18  C   UNL     1      -4.402  12.638  21.362  0.00  0.00    +0.000 C 
ENDBRANCH  16  18
ENDBRANCH  14  16
ENDBRANCH   5  14
ENDBRANCH   1   6
BRANCH   2  19
ATOM     19  C   UNL     1       0.244  10.126  20.578  0.00  0.00    +0.000 A 
ATOM     20  S   UNL     1       0.374   8.923  21.799  0.00  0.00    +0.000 S 
ATOM     21  C   UNL     1       1.349   7.951  20.767  0.00  0.00    +0.000 A 
ATOM     22  N   UNL     1       1.803   6.748  21.196  0.00  0.00    +0.000 N 
ATOM     23  N   UNL     1       1.587   8.493  19.597  0.00  0.00    +0.000 NA
ATOM     24  C   UNL     1       0.981   9.729  19.473  0.00  0.00    +0.000 A 
ATOM     25  C   UNL     1       1.213  10.471  18.204  0.00  0.00    +0.000 C 
ATOM     26  H   UNL     1       1.660   6.530  22.173  0.00  0.00    +0.000 HD
BRANCH  22  27
ATOM     27  C   UNL     1       2.015   5.608  20.391  0.00  0.00    +0.000 A 
ATOM     28  C   UNL     1       1.121   4.534  20.318  0.00  0.00    +0.000 A 
ATOM     29  C   UNL     1       1.385   3.416  19.527  0.00  0.00    +0.000 A 
ATOM     30  C   UNL     1       2.554   3.353  18.771  0.00  0.00    +0.000 A 
ATOM     31  C   UNL     1       2.867   2.124  17.961  0.00  0.00    +0.000 C 
ATOM     32  C   UNL     1       3.430   4.435  18.782  0.00  0.00    +0.000 A 
ATOM     33  C   UNL     1       3.160   5.554  19.580  0.00  0.00    +0.000 A 
ENDBRANCH  22  27
ENDBRANCH   2  19
TORSDOF 6
ENDMDL
MODEL 8
REMARK VINA RESULT:      -7.2      3.241     10.122
REMARK  Name = 
REMARK  9 active torsions:
REMARK  status: ('A' for Active; 'I' for Inactive)
REMARK    1  A    between atoms: C_1  and  C_2
REMARK    2  A    between atoms: C_2  and  O_3
REMARK    3  A    between atoms: O_3  and  C_4
REMARK    4  A    between atoms: C_4  and  C_6
REMARK    5  A    between atoms: C_7  and  N_8
REMARK    6  A    between atoms: C_9  and  C_11
REMARK    7  A    between atoms: N_14  and  C_15
REMARK    8  A    between atoms: C_18  and  C_19
REMARK    9  A    between atoms: C_23  and  C_24
REMARK                            x       y       z     vdW  Elec       q    Type
REMARK                         _______ _______ _______ _____ _____    ______ ____
ROOT
ATOM      1  N   UNL     1       0.233  12.167  20.347  0.00  0.00    +0.000 N 
ATOM      2  C   UNL     1      -0.418  11.047  19.849  0.00  0.00    +0.000 C 
ATOM      3  O   UNL     1      -1.550  11.047  19.369  0.00  0.00    +0.000 OA
ATOM      4  H   UNL     1       1.154  12.014  20.759  0.00  0.00    +0.000 HD
ENDROOT
BRANCH   1   6
ATOM      5  C   UNL     1      -0.811  14.152  21.415  0.00  0.00    +0.000 A 
ATOM      6  C   UNL     1      -0.202  13.486  20.353  0.00  0.00    +0.000 A 
ATOM      7  S   UNL     1      -0.037  14.466  18.979  0.00  0.00    +0.000 S 
ATOM      8  C   UNL     1      -0.747  15.794  19.748  0.00  0.00    +0.000 A 
ATOM      9  C   UNL     1      -1.115  15.527  21.054  0.00  0.00    +0.000 A 
ATOM     10  C   UNL     1      -1.739  16.605  21.904  0.00  0.00    +0.000 C 
ATOM     11  C   UNL     1      -2.319  17.747  21.057  0.00  0.00    +0.000 C 
ATOM     12  C   UNL     1      -1.330  18.212  19.983  0.00  0.00    +0.000 C 
ATOM     13  C   UNL     1      -0.968  17.081  19.015  0.00  0.00    +0.000 C 
BRANCH   5  14
ATOM     14  C   UNL     1      -1.125  13.464  22.672  0.00  0.00    +0.000 C 
ATOM     15  O   UNL     1      -0.632  13.786  23.750  0.00  0.00    +0.000 OA
BRANCH  14  16
ATOM     16  O   UNL     1      -1.921  12.374  22.496  0.00  0.00    +0.000 OA
BRANCH  16  18
ATOM     17  C   UNL     1      -3.999  12.912  23.546  0.00  0.00    +0.000 C 
ATOM     18  C   UNL     1      -3.300  12.644  22.221  0.00  0.00    +0.000 C 
ENDBRANCH  16  18
ENDBRANCH  14  16
ENDBRANCH   5  14
ENDBRANCH   1   6
BRANCH   2  19
ATOM     19  C   UNL     1       0.353   9.813  19.933  0.00  0.00    +0.000 A 
ATOM     20  S   UNL     1       0.238   8.729  21.264  0.00  0.00    +0.000 S 
ATOM     21  C   UNL     1       1.390   7.679  20.533  0.00  0.00    +0.000 A 
ATOM     22  N   UNL     1       1.747   6.527  21.152  0.00  0.00    +0.000 N 
ATOM     23  N   UNL     1       1.851   8.114  19.386  0.00  0.00    +0.000 NA
ATOM     24  C   UNL     1       1.287   9.325  19.033  0.00  0.00    +0.000 A 
ATOM     25  C   UNL     1       1.762   9.949  17.769  0.00  0.00    +0.000 C 
ATOM     26  H   UNL     1       1.417   6.398  22.099  0.00  0.00    +0.000 HD
BRANCH  22  27
ATOM     27  C   UNL     1       2.104   5.321  20.513  0.00  0.00    +0.000 A 
ATOM     28  C   UNL     1       1.241   4.226  20.383  0.00  0.00    +0.000 A 
ATOM     29  C   UNL     1       1.648   3.044  19.765  0.00  0.00    +0.000 A 
ATOM     30  C   UNL     1       2.934   2.933  19.242  0.00  0.00    +0.000 A 
ATOM     31  C   UNL     1       3.392   1.639  18.624  0.00  0.00    +0.000 C 
ATOM     32  C   UNL     1       3.791   4.029  19.306  0.00  0.00    +0.000 A 
ATOM     33  C   UNL     1       3.377   5.213  19.930  0.00  0.00    +0.000 A 
ENDBRANCH  22  27
ENDBRANCH   2  19
TORSDOF 6
ENDMDL
MODEL 9
REMARK VINA RESULT:      -7.1      3.016     10.326
REMARK  Name = 
REMARK  9 active torsions:
REMARK  status: ('A' for Active; 'I' for Inactive)
REMARK    1  A    between atoms: C_1  and  C_2
REMARK    2  A    between atoms: C_2  and  O_3
REMARK    3  A    between atoms: O_3  and  C_4
REMARK    4  A    between atoms: C_4  and  C_6
REMARK    5  A    between atoms: C_7  and  N_8
REMARK    6  A    between atoms: C_9  and  C_11
REMARK    7  A    between atoms: N_14  and  C_15
REMARK    8  A    between atoms: C_18  and  C_19
REMARK    9  A    between atoms: C_23  and  C_24
REMARK                            x       y       z     vdW  Elec       q    Type
REMARK                         _______ _______ _______ _____ _____    ______ ____
ROOT
ATOM      1  N   UNL     1      -0.159  11.894  21.503  0.00  0.00    +0.000 N 
ATOM      2  C   UNL     1      -0.450  11.094  20.407  0.00  0.00    +0.000 C 
ATOM      3  O   UNL     1      -1.297  11.353  19.554  0.00  0.00    +0.000 OA
ATOM      4  H   UNL     1       0.537  11.535  22.158  0.00  0.00    +0.000 HD
ENDROOT
BRANCH   1   6
ATOM      5  C   UNL     1      -1.854  13.376  22.552  0.00  0.00    +0.000 A 
ATOM      6  C   UNL     1      -0.687  13.137  21.829  0.00  0.00    +0.000 A 
ATOM      7  S   UNL     1       0.079  14.567  21.337  0.00  0.00    +0.000 S 
ATOM      8  C   UNL     1      -1.095  15.538  22.072  0.00  0.00    +0.000 A 
ATOM      9  C   UNL     1      -2.081  14.804  22.706  0.00  0.00    +0.000 A 
ATOM     10  C   UNL     1      -3.196  15.503  23.439  0.00  0.00    +0.000 C 
ATOM     11  C   UNL     1      -3.356  16.964  22.993  0.00  0.00    +0.000 C 
ATOM     12  C   UNL     1      -2.009  17.691  22.948  0.00  0.00    +0.000 C 
ATOM     13  C   UNL     1      -1.038  17.030  21.963  0.00  0.00    +0.000 C 
BRANCH   5  14
ATOM     14  C   UNL     1      -2.716  12.278  23.001  0.00  0.00    +0.000 C 
ATOM     15  O   UNL     1      -2.277  11.255  23.519  0.00  0.00    +0.000 OA
BRANCH  14  16
ATOM     16  O   UNL     1      -4.026  12.464  22.680  0.00  0.00    +0.000 OA
BRANCH  16  18
ATOM     17  C   UNL     1      -5.785  12.929  21.130  0.00  0.00    +0.000 C 
ATOM     18  C   UNL     1      -4.319  12.549  21.281  0.00  0.00    +0.000 C 
ENDBRANCH  16  18
ENDBRANCH  14  16
ENDBRANCH   5  14
ENDBRANCH   1   6
BRANCH   2  19
ATOM     19  C   UNL     1       0.341   9.873  20.322  0.00  0.00    +0.000 A 
ATOM     20  S   UNL     1       0.354   8.680  21.561  0.00  0.00    +0.000 S 
ATOM     21  C   UNL     1       1.453   7.719  20.651  0.00  0.00    +0.000 A 
ATOM     22  N   UNL     1       1.876   6.526  21.138  0.00  0.00    +0.000 N 
ATOM     23  N   UNL     1       1.811   8.257  19.510  0.00  0.00    +0.000 NA
ATOM     24  C   UNL     1       1.203   9.481  19.310  0.00  0.00    +0.000 A 
ATOM     25  C   UNL     1       1.562  10.218  18.068  0.00  0.00    +0.000 C 
ATOM     26  H   UNL     1       1.629   6.312  22.095  0.00  0.00    +0.000 HD
BRANCH  22  27
ATOM     27  C   UNL     1       2.195   5.385  20.372  0.00  0.00    +0.000 A 
ATOM     28  C   UNL     1       3.416   5.211  19.711  0.00  0.00    +0.000 A 
ATOM     29  C   UNL     1       3.677   4.077  18.943  0.00  0.00    +0.000 A 
ATOM     30  C   UNL     1       2.718   3.072  18.830  0.00  0.00    +0.000 A 
ATOM     31  C   UNL     1       2.976   1.873  17.956  0.00  0.00    +0.000 C 
ATOM     32  C   UNL     1       1.518   3.195  19.526  0.00  0.00    +0.000 A 
ATOM     33  C   UNL     1       1.262   4.338  20.294  0.00  0.00    +0.000 A 
ENDBRANCH  22  27
ENDBRANCH   2  19
TORSDOF 6
ENDMDL
