MODEL 1
REMARK VINA RESULT:      -9.1      0.000      0.000
REMARK  Name = 
REMARK  6 active torsions:
REMARK  status: ('A' for Active; 'I' for Inactive)
REMARK    1  A    between atoms: C_1  and  C_2
REMARK    2  A    between atoms: C_5  and  C_6
REMARK    3  A    between atoms: C_11  and  C_12
REMARK    4  A    between atoms: C_15  and  C_16
REMARK    5  A    between atoms: C_23  and  C_24
REMARK    6  A    between atoms: C_27  and  C_28
REMARK                            x       y       z     vdW  Elec       q    Type
REMARK                         _______ _______ _______ _____ _____    ______ ____
ROOT
ATOM      1  C   UNL     1       1.208  10.053  18.994  0.00  0.00    +0.000 C 
ATOM      2  O   UNL     1       1.830  10.794  18.224  0.00  0.00    +0.000 OA
ATOM      3  N   UNL     1       0.084  10.539  19.682  0.00  0.00    +0.000 N 
ATOM      4  C   UNL     1      -0.406  11.848  19.246  0.00  0.00    +0.000 C 
ATOM      5  C   UNL     1      -1.805  12.138  19.781  0.00  0.00    +0.000 C 
ATOM      6  C   UNL     1      -1.707  12.323  21.301  0.00  0.00    +0.000 C 
ATOM      7  C   UNL     1      -0.800  11.227  21.929  0.00  0.00    +0.000 C 
ATOM      8  C   UNL     1      -0.424  10.063  20.974  0.00  0.00    +0.000 C 
ENDROOT
BRANCH   1  13
ATOM      9  C   UNL     1       3.487   4.779  20.040  0.00  0.00    +0.000 C 
ATOM     10  C   UNL     1       2.892   6.104  19.622  0.00  0.00    +0.000 A 
ATOM     11  C   UNL     1       1.983   6.691  20.519  0.00  0.00    +0.000 A 
ATOM     12  C   UNL     1       1.411   7.937  20.256  0.00  0.00    +0.000 A 
ATOM     13  C   UNL     1       1.708   8.640  19.081  0.00  0.00    +0.000 A 
ATOM     14  C   UNL     1       2.604   8.058  18.173  0.00  0.00    +0.000 A 
ATOM     15  C   UNL     1       3.202   6.786  18.415  0.00  0.00    +0.000 A 
BRANCH  15  16
ATOM     16  C   UNL     1       4.130   6.223  17.406  0.00  0.00    +0.000 A 
ATOM     17  N   UNL     1       5.213   6.912  16.909  0.00  0.00    +0.000 N 
ATOM     18  N   UNL     1       5.968   6.243  16.031  0.00  0.00    +0.000 NA
ATOM     19  C   UNL     1       5.381   5.046  15.962  0.00  0.00    +0.000 A 
ATOM     20  C   UNL     1       5.977   3.979  15.120  0.00  0.00    +0.000 C 
ATOM     21  C   UNL     1       4.228   4.987  16.783  0.00  0.00    +0.000 A 
ATOM     22 CL   UNL     1       3.224   3.619  16.922  0.00  0.00    +0.000 Cl
ATOM     23  H   UNL     1       5.511   7.853  17.140  0.00  0.00    +0.000 HD
ENDBRANCH  15  16
ENDBRANCH   1  13
BRANCH   6  24
ATOM     24  C   UNL     1      -3.063  12.532  21.978  0.00  0.00    +0.000 A 
ATOM     25  C   UNL     1      -4.230  12.797  21.249  0.00  0.00    +0.000 A 
ATOM     26  C   UNL     1      -5.454  13.005  21.899  0.00  0.00    +0.000 A 
ATOM     27  C   UNL     1      -5.542  12.949  23.297  0.00  0.00    +0.000 A 
ATOM     28  C   UNL     1      -4.393  12.689  24.035  0.00  0.00    +0.000 A 
ATOM     29  C   UNL     1      -3.164  12.483  23.382  0.00  0.00    +0.000 A 
BRANCH  27  30
ATOM     30  C   UNL     1      -6.800  13.167  23.957  0.00  0.00    +0.000 C 
ATOM     31  N   UNL     1      -7.815  13.339  24.502  0.00  0.00    +0.000 NA
ENDBRANCH  27  30
ENDBRANCH   6  24
TORSDOF 4
ENDMDL
MODEL 2
REMARK VINA RESULT:      -8.8      1.292      1.572
REMARK  Name = 
REMARK  6 active torsions:
REMARK  status: ('A' for Active; 'I' for Inactive)
REMARK    1  A    between atoms: C_1  and  C_2
REMARK    2  A    between atoms: C_5  and  C_6
REMARK    3  A    between atoms: C_11  and  C_12
REMARK    4  A    between atoms: C_15  and  C_16
REMARK    5  A    between atoms: C_23  and  C_24
REMARK    6  A    between atoms: C_27  and  C_28
REMARK                            x       y       z     vdW  Elec       q    Type
REMARK                         _______ _______ _______ _____ _____    ______ ____
ROOT
ATOM      1  C   UNL     1       1.503   9.582  18.799  0.00  0.00    +0.000 C 
ATOM      2  O   UNL     1       2.118  10.255  17.964  0.00  0.00    +0.000 OA
ATOM      3  N   UNL     1       0.434  10.151  19.510  0.00  0.00    +0.000 N 
ATOM      4  C   UNL     1      -0.021  11.457  19.029  0.00  0.00    +0.000 C 
ATOM      5  C   UNL     1      -1.380  11.836  19.611  0.00  0.00    +0.000 C 
ATOM      6  C   UNL     1      -1.201  12.093  21.114  0.00  0.00    +0.000 C 
ATOM      7  C   UNL     1      -0.312  10.991  21.756  0.00  0.00    +0.000 C 
ATOM      8  C   UNL     1      -0.031   9.764  20.848  0.00  0.00    +0.000 C 
ENDROOT
BRANCH   1  13
ATOM      9  C   UNL     1       3.558   4.261  20.047  0.00  0.00    +0.000 C 
ATOM     10  C   UNL     1       3.022   5.593  19.577  0.00  0.00    +0.000 A 
ATOM     11  C   UNL     1       2.118   6.240  20.437  0.00  0.00    +0.000 A 
ATOM     12  C   UNL     1       1.599   7.498  20.125  0.00  0.00    +0.000 A 
ATOM     13  C   UNL     1       1.947   8.155  18.938  0.00  0.00    +0.000 A 
ATOM     14  C   UNL     1       2.840   7.513  18.067  0.00  0.00    +0.000 A 
ATOM     15  C   UNL     1       3.383   6.227  18.359  0.00  0.00    +0.000 A 
BRANCH  15  16
ATOM     16  C   UNL     1       4.311   5.601  17.387  0.00  0.00    +0.000 A 
ATOM     17  N   UNL     1       4.020   4.443  16.703  0.00  0.00    +0.000 N 
ATOM     18  N   UNL     1       4.954   4.034  15.838  0.00  0.00    +0.000 NA
ATOM     19  C   UNL     1       5.895   4.976  15.925  0.00  0.00    +0.000 A 
ATOM     20  C   UNL     1       7.091   4.908  15.050  0.00  0.00    +0.000 C 
ATOM     21  C   UNL     1       5.553   5.962  16.884  0.00  0.00    +0.000 A 
ATOM     22 CL   UNL     1       6.532   7.301  17.269  0.00  0.00    +0.000 Cl
ATOM     23  H   UNL     1       3.182   3.876  16.768  0.00  0.00    +0.000 HD
ENDBRANCH  15  16
ENDBRANCH   1  13
BRANCH   6  24
ATOM     24  C   UNL     1      -2.514  12.395  21.840  0.00  0.00    +0.000 A 
ATOM     25  C   UNL     1      -2.647  12.266  23.228  0.00  0.00    +0.000 A 
ATOM     26  C   UNL     1      -3.869  12.529  23.863  0.00  0.00    +0.000 A 
ATOM     27  C   UNL     1      -4.990  12.931  23.122  0.00  0.00    +0.000 A 
ATOM     28  C   UNL     1      -4.874  13.061  21.742  0.00  0.00    +0.000 A 
ATOM     29  C   UNL     1      -3.648  12.794  21.107  0.00  0.00    +0.000 A 
BRANCH  27  30
ATOM     30  C   UNL     1      -6.240  13.195  23.778  0.00  0.00    +0.000 C 
ATOM     31  N   UNL     1      -7.252  13.421  24.309  0.00  0.00    +0.000 NA
ENDBRANCH  27  30
ENDBRANCH   6  24
TORSDOF 4
ENDMDL
MODEL 3
REMARK VINA RESULT:      -8.5      3.903     10.823
REMARK  Name = 
REMARK  6 active torsions:
REMARK  status: ('A' for Active; 'I' for Inactive)
REMARK    1  A    between atoms: C_1  and  C_2
REMARK    2  A    between atoms: C_5  and  C_6
REMARK    3  A    between atoms: C_11  and  C_12
REMARK    4  A    between atoms: C_15  and  C_16
REMARK    5  A    between atoms: C_23  and  C_24
REMARK    6  A    between atoms: C_27  and  C_28
REMARK                            x       y       z     vdW  Elec       q    Type
REMARK                         _______ _______ _______ _____ _____    ______ ____
ROOT
ATOM      1  C   UNL     1       1.140   8.752  20.248  0.00  0.00    +0.000 C 
ATOM      2  O   UNL     1       0.957   8.303  21.386  0.00  0.00    +0.000 OA
ATOM      3  N   UNL     1       1.861   8.002  19.305  0.00  0.00    +0.000 N 
ATOM      4  C   UNL     1       2.151   6.619  19.687  0.00  0.00    +0.000 C 
ATOM      5  C   UNL     1       2.611   5.785  18.494  0.00  0.00    +0.000 C 
ATOM      6  C   UNL     1       3.994   6.293  18.062  0.00  0.00    +0.000 C 
ATOM      7  C   UNL     1       4.022   7.848  18.035  0.00  0.00    +0.000 C 
ATOM      8  C   UNL     1       2.635   8.530  18.175  0.00  0.00    +0.000 C 
ENDROOT
BRANCH   1  13
ATOM      9  C   UNL     1      -1.399  14.003  19.953  0.00  0.00    +0.000 C 
ATOM     10  C   UNL     1      -0.788  12.622  19.885  0.00  0.00    +0.000 A 
ATOM     11  C   UNL     1       0.425  12.442  20.570  0.00  0.00    +0.000 A 
ATOM     12  C   UNL     1       1.052  11.195  20.615  0.00  0.00    +0.000 A 
ATOM     13  C   UNL     1       0.504  10.082  19.965  0.00  0.00    +0.000 A 
ATOM     14  C   UNL     1      -0.701  10.253  19.268  0.00  0.00    +0.000 A 
ATOM     15  C   UNL     1      -1.362  11.516  19.204  0.00  0.00    +0.000 A 
BRANCH  15  16
ATOM     16  C   UNL     1      -2.626  11.628  18.438  0.00  0.00    +0.000 A 
ATOM     17  N   UNL     1      -2.715  11.379  17.087  0.00  0.00    +0.000 N 
ATOM     18  N   UNL     1      -3.938  11.493  16.560  0.00  0.00    +0.000 NA
ATOM     19  C   UNL     1      -4.704  11.802  17.608  0.00  0.00    +0.000 A 
ATOM     20  C   UNL     1      -6.170  11.950  17.435  0.00  0.00    +0.000 C 
ATOM     21  C   UNL     1      -3.936  11.914  18.795  0.00  0.00    +0.000 A 
ATOM     22 CL   UNL     1      -4.583  12.314  20.317  0.00  0.00    +0.000 Cl
ATOM     23  H   UNL     1      -1.971  11.109  16.454  0.00  0.00    +0.000 HD
ENDBRANCH  15  16
ENDBRANCH   1  13
BRANCH   6  24
ATOM     24  C   UNL     1       4.533   5.598  16.810  0.00  0.00    +0.000 A 
ATOM     25  C   UNL     1       4.525   4.204  16.666  0.00  0.00    +0.000 A 
ATOM     26  C   UNL     1       5.046   3.595  15.517  0.00  0.00    +0.000 A 
ATOM     27  C   UNL     1       5.588   4.367  14.479  0.00  0.00    +0.000 A 
ATOM     28  C   UNL     1       5.607   5.751  14.608  0.00  0.00    +0.000 A 
ATOM     29  C   UNL     1       5.085   6.361  15.763  0.00  0.00    +0.000 A 
BRANCH  27  30
ATOM     30  C   UNL     1       6.125   3.735  13.305  0.00  0.00    +0.000 C 
ATOM     31  N   UNL     1       6.570   3.225  12.358  0.00  0.00    +0.000 NA
ENDBRANCH  27  30
ENDBRANCH   6  24
TORSDOF 4
ENDMDL
MODEL 4
REMARK VINA RESULT:      -8.4      3.494     10.707
REMARK  Name = 
REMARK  6 active torsions:
REMARK  status: ('A' for Active; 'I' for Inactive)
REMARK    1  A    between atoms: C_1  and  C_2
REMARK    2  A    between atoms: C_5  and  C_6
REMARK    3  A    between atoms: C_11  and  C_12
REMARK    4  A    between atoms: C_15  and  C_16
REMARK    5  A    between atoms: C_23  and  C_24
REMARK    6  A    between atoms: C_27  and  C_28
REMARK                            x       y       z     vdW  Elec       q    Type
REMARK                         _______ _______ _______ _____ _____    ______ ____
ROOT
ATOM      1  C   UNL     1      -0.260  13.311  19.612  0.00  0.00    +0.000 C 
ATOM      2  O   UNL     1      -0.377  14.062  18.636  0.00  0.00    +0.000 OA
ATOM      3  N   UNL     1       0.415  12.087  19.479  0.00  0.00    +0.000 N 
ATOM      4  C   UNL     1       1.140  11.899  18.220  0.00  0.00    +0.000 C 
ATOM      5  C   UNL     1       2.116  10.729  18.296  0.00  0.00    +0.000 C 
ATOM      6  C   UNL     1       1.301   9.432  18.392  0.00  0.00    +0.000 C 
ATOM      7  C   UNL     1       0.133   9.593  19.406  0.00  0.00    +0.000 C 
ATOM      8  C   UNL     1       0.195  10.875  20.278  0.00  0.00    +0.000 C 
ENDROOT
BRANCH   1  13
ATOM      9  C   UNL     1      -1.834  14.972  24.984  0.00  0.00    +0.000 C 
ATOM     10  C   UNL     1      -1.574  14.561  23.553  0.00  0.00    +0.000 A 
ATOM     11  C   UNL     1      -0.341  14.955  23.006  0.00  0.00    +0.000 A 
ATOM     12  C   UNL     1       0.024  14.588  21.709  0.00  0.00    +0.000 A 
ATOM     13  C   UNL     1      -0.831  13.827  20.901  0.00  0.00    +0.000 A 
ATOM     14  C   UNL     1      -2.068  13.438  21.434  0.00  0.00    +0.000 A 
ATOM     15  C   UNL     1      -2.468  13.801  22.754  0.00  0.00    +0.000 A 
BRANCH  15  16
ATOM     16  C   UNL     1      -3.797  13.367  23.248  0.00  0.00    +0.000 A 
ATOM     17  N   UNL     1      -3.984  12.251  24.032  0.00  0.00    +0.000 N 
ATOM     18  N   UNL     1      -5.243  12.024  24.420  0.00  0.00    +0.000 NA
ATOM     19  C   UNL     1      -5.920  13.049  23.899  0.00  0.00    +0.000 A 
ATOM     20  C   UNL     1      -7.373  13.188  24.170  0.00  0.00    +0.000 C 
ATOM     21  C   UNL     1      -5.073  13.902  23.149  0.00  0.00    +0.000 A 
ATOM     22 CL   UNL     1      -5.605  15.296  22.329  0.00  0.00    +0.000 Cl
ATOM     23  H   UNL     1      -3.282  11.595  24.357  0.00  0.00    +0.000 HD
ENDBRANCH  15  16
ENDBRANCH   1  13
BRANCH   6  24
ATOM     24  C   UNL     1       2.165   8.181  18.567  0.00  0.00    +0.000 A 
ATOM     25  C   UNL     1       2.083   7.368  19.705  0.00  0.00    +0.000 A 
ATOM     26  C   UNL     1       2.903   6.240  19.846  0.00  0.00    +0.000 A 
ATOM     27  C   UNL     1       3.826   5.896  18.848  0.00  0.00    +0.000 A 
ATOM     28  C   UNL     1       3.922   6.695  17.714  0.00  0.00    +0.000 A 
ATOM     29  C   UNL     1       3.100   7.827  17.575  0.00  0.00    +0.000 A 
BRANCH  27  30
ATOM     30  C   UNL     1       4.667   4.741  19.002  0.00  0.00    +0.000 C 
ATOM     31  N   UNL     1       5.349   3.804  19.114  0.00  0.00    +0.000 NA
ENDBRANCH  27  30
ENDBRANCH   6  24
TORSDOF 4
ENDMDL
MODEL 5
REMARK VINA RESULT:      -8.3      3.669     11.144
REMARK  Name = 
REMARK  6 active torsions:
REMARK  status: ('A' for Active; 'I' for Inactive)
REMARK    1  A    between atoms: C_1  and  C_2
REMARK    2  A    between atoms: C_5  and  C_6
REMARK    3  A    between atoms: C_11  and  C_12
REMARK    4  A    between atoms: C_15  and  C_16
REMARK    5  A    between atoms: C_23  and  C_24
REMARK    6  A    between atoms: C_27  and  C_28
REMARK                            x       y       z     vdW  Elec       q    Type
REMARK                         _______ _______ _______ _____ _____    ______ ____
ROOT
ATOM      1  C   UNL     1       1.430   8.239  20.386  0.00  0.00    +0.000 C 
ATOM      2  O   UNL     1       1.418   7.809  21.546  0.00  0.00    +0.000 OA
ATOM      3  N   UNL     1       2.139   7.550  19.389  0.00  0.00    +0.000 N 
ATOM      4  C   UNL     1       2.631   6.224  19.766  0.00  0.00    +0.000 C 
ATOM      5  C   UNL     1       3.068   5.413  18.549  0.00  0.00    +0.000 C 
ATOM      6  C   UNL     1       4.328   6.068  17.966  0.00  0.00    +0.000 C 
ATOM      7  C   UNL     1       4.164   7.613  17.906  0.00  0.00    +0.000 C 
ATOM      8  C   UNL     1       2.726   8.130  18.175  0.00  0.00    +0.000 C 
ENDROOT
BRANCH   1  13
ATOM      9  C   UNL     1      -1.219  13.211  18.849  0.00  0.00    +0.000 C 
ATOM     10  C   UNL     1      -0.604  11.938  19.382  0.00  0.00    +0.000 A 
ATOM     11  C   UNL     1      -0.433  10.893  18.458  0.00  0.00    +0.000 A 
ATOM     12  C   UNL     1       0.170   9.690  18.831  0.00  0.00    +0.000 A 
ATOM     13  C   UNL     1       0.611   9.474  20.143  0.00  0.00    +0.000 A 
ATOM     14  C   UNL     1       0.435  10.506  21.076  0.00  0.00    +0.000 A 
ATOM     15  C   UNL     1      -0.180  11.743  20.724  0.00  0.00    +0.000 A 
BRANCH  15  16
ATOM     16  C   UNL     1      -0.347  12.786  21.764  0.00  0.00    +0.000 A 
ATOM     17  N   UNL     1       0.454  13.902  21.851  0.00  0.00    +0.000 N 
ATOM     18  N   UNL     1       0.143  14.760  22.829  0.00  0.00    +0.000 NA
ATOM     19  C   UNL     1      -0.930  14.208  23.399  0.00  0.00    +0.000 A 
ATOM     20  C   UNL     1      -1.621  14.912  24.508  0.00  0.00    +0.000 C 
ATOM     21  C   UNL     1      -1.266  12.975  22.787  0.00  0.00    +0.000 A 
ATOM     22 CL   UNL     1      -2.566  11.989  23.273  0.00  0.00    +0.000 Cl
ATOM     23  H   UNL     1       1.236  14.154  21.257  0.00  0.00    +0.000 HD
ENDBRANCH  15  16
ENDBRANCH   1  13
BRANCH   6  24
ATOM     24  C   UNL     1       4.821   5.401  16.680  0.00  0.00    +0.000 A 
ATOM     25  C   UNL     1       4.950   4.011  16.559  0.00  0.00    +0.000 A 
ATOM     26  C   UNL     1       5.424   3.431  15.375  0.00  0.00    +0.000 A 
ATOM     27  C   UNL     1       5.780   4.230  14.278  0.00  0.00    +0.000 A 
ATOM     28  C   UNL     1       5.660   5.611  14.383  0.00  0.00    +0.000 A 
ATOM     29  C   UNL     1       5.186   6.192  15.573  0.00  0.00    +0.000 A 
BRANCH  27  30
ATOM     30  C   UNL     1       6.270   3.628  13.068  0.00  0.00    +0.000 C 
ATOM     31  N   UNL     1       6.674   3.150  12.087  0.00  0.00    +0.000 NA
ENDBRANCH  27  30
ENDBRANCH   6  24
TORSDOF 4
ENDMDL
MODEL 6
REMARK VINA RESULT:      -8.3      3.681     10.979
REMARK  Name = 
REMARK  6 active torsions:
REMARK  status: ('A' for Active; 'I' for Inactive)
REMARK    1  A    between atoms: C_1  and  C_2
REMARK    2  A    between atoms: C_5  and  C_6
REMARK    3  A    between atoms: C_11  and  C_12
REMARK    4  A    between atoms: C_15  and  C_16
REMARK    5  A    between atoms: C_23  and  C_24
REMARK    6  A    between atoms: C_27  and  C_28
REMARK                            x       y       z     vdW  Elec       q    Type
REMARK                         _______ _______ _______ _____ _____    ______ ____
ROOT
ATOM      1  C   UNL     1      -1.444  12.083  18.775  0.00  0.00    +0.000 C 
ATOM      2  O   UNL     1      -1.007  13.241  18.790  0.00  0.00    +0.000 OA
ATOM      3  N   UNL     1      -0.555  10.997  18.815  0.00  0.00    +0.000 N 
ATOM      4  C   UNL     1       0.841  11.333  19.106  0.00  0.00    +0.000 C 
ATOM      5  C   UNL     1       1.657  10.097  19.477  0.00  0.00    +0.000 C 
ATOM      6  C   UNL     1       1.793   9.221  18.224  0.00  0.00    +0.000 C 
ATOM      7  C   UNL     1       0.432   9.112  17.481  0.00  0.00    +0.000 C 
ATOM      8  C   UNL     1      -0.790   9.655  18.270  0.00  0.00    +0.000 C 
ENDROOT
BRANCH   1  13
ATOM      9  C   UNL     1      -7.248  12.131  18.144  0.00  0.00    +0.000 C 
ATOM     10  C   UNL     1      -5.770  12.063  18.448  0.00  0.00    +0.000 A 
ATOM     11  C   UNL     1      -4.928  11.719  17.377  0.00  0.00    +0.000 A 
ATOM     12  C   UNL     1      -3.541  11.674  17.533  0.00  0.00    +0.000 A 
ATOM     13  C   UNL     1      -2.939  11.954  18.767  0.00  0.00    +0.000 A 
ATOM     14  C   UNL     1      -3.771  12.286  19.846  0.00  0.00    +0.000 A 
ATOM     15  C   UNL     1      -5.190  12.337  19.715  0.00  0.00    +0.000 A 
BRANCH  15  16
ATOM     16  C   UNL     1      -6.010  12.683  20.901  0.00  0.00    +0.000 A 
ATOM     17  N   UNL     1      -6.422  11.755  21.830  0.00  0.00    +0.000 N 
ATOM     18  N   UNL     1      -7.125  12.242  22.858  0.00  0.00    +0.000 NA
ATOM     19  C   UNL     1      -7.157  13.555  22.621  0.00  0.00    +0.000 A 
ATOM     20  C   UNL     1      -7.807  14.465  23.595  0.00  0.00    +0.000 C 
ATOM     21  C   UNL     1      -6.494  13.879  21.411  0.00  0.00    +0.000 A 
ATOM     22 CL   UNL     1      -6.359  15.458  20.789  0.00  0.00    +0.000 Cl
ATOM     23  H   UNL     1      -6.245  10.756  21.833  0.00  0.00    +0.000 HD
ENDBRANCH  15  16
ENDBRANCH   1  13
BRANCH   6  24
ATOM     24  C   UNL     1       2.517   7.898  18.483  0.00  0.00    +0.000 A 
ATOM     25  C   UNL     1       3.516   7.413  17.628  0.00  0.00    +0.000 A 
ATOM     26  C   UNL     1       4.147   6.187  17.880  0.00  0.00    +0.000 A 
ATOM     27  C   UNL     1       3.794   5.415  18.997  0.00  0.00    +0.000 A 
ATOM     28  C   UNL     1       2.803   5.882  19.853  0.00  0.00    +0.000 A 
ATOM     29  C   UNL     1       2.169   7.112  19.598  0.00  0.00    +0.000 A 
BRANCH  27  30
ATOM     30  C   UNL     1       4.442   4.157  19.246  0.00  0.00    +0.000 C 
ATOM     31  N   UNL     1       4.975   3.143  19.455  0.00  0.00    +0.000 NA
ENDBRANCH  27  30
ENDBRANCH   6  24
TORSDOF 4
ENDMDL
MODEL 7
REMARK VINA RESULT:      -8.2      3.539     10.885
REMARK  Name = 
REMARK  6 active torsions:
REMARK  status: ('A' for Active; 'I' for Inactive)
REMARK    1  A    between atoms: C_1  and  C_2
REMARK    2  A    between atoms: C_5  and  C_6
REMARK    3  A    between atoms: C_11  and  C_12
REMARK    4  A    between atoms: C_15  and  C_16
REMARK    5  A    between atoms: C_23  and  C_24
REMARK    6  A    between atoms: C_27  and  C_28
REMARK                            x       y       z     vdW  Elec       q    Type
REMARK                         _______ _______ _______ _____ _____    ______ ____
ROOT
ATOM      1  C   UNL     1       1.255   8.741  20.112  0.00  0.00    +0.000 C 
ATOM      2  O   UNL     1       1.058   8.296  21.249  0.00  0.00    +0.000 OA
ATOM      3  N   UNL     1       1.969   7.978  19.174  0.00  0.00    +0.000 N 
ATOM      4  C   UNL     1       2.233   6.590  19.558  0.00  0.00    +0.000 C 
ATOM      5  C   UNL     1       2.686   5.747  18.369  0.00  0.00    +0.000 C 
ATOM      6  C   UNL     1       4.080   6.231  17.945  0.00  0.00    +0.000 C 
ATOM      7  C   UNL     1       4.135   7.785  17.918  0.00  0.00    +0.000 C 
ATOM      8  C   UNL     1       2.760   8.492  18.048  0.00  0.00    +0.000 C 
ENDROOT
BRANCH   1  13
ATOM      9  C   UNL     1      -0.947  14.138  19.764  0.00  0.00    +0.000 C 
ATOM     10  C   UNL     1      -0.464  12.706  19.732  0.00  0.00    +0.000 A 
ATOM     11  C   UNL     1       0.882  12.495  20.075  0.00  0.00    +0.000 A 
ATOM     12  C   UNL     1       1.421  11.207  20.127  0.00  0.00    +0.000 A 
ATOM     13  C   UNL     1       0.644  10.082  19.823  0.00  0.00    +0.000 A 
ATOM     14  C   UNL     1      -0.697  10.283  19.468  0.00  0.00    +0.000 A 
ATOM     15  C   UNL     1      -1.273  11.586  19.405  0.00  0.00    +0.000 A 
BRANCH  15  16
ATOM     16  C   UNL     1      -2.695  11.726  19.008  0.00  0.00    +0.000 A 
ATOM     17  N   UNL     1      -3.678  12.167  19.865  0.00  0.00    +0.000 N 
ATOM     18  N   UNL     1      -4.901  12.269  19.335  0.00  0.00    +0.000 NA
ATOM     19  C   UNL     1      -4.721  11.910  18.062  0.00  0.00    +0.000 A 
ATOM     20  C   UNL     1      -5.861  11.958  17.113  0.00  0.00    +0.000 C 
ATOM     21  C   UNL     1      -3.374  11.549  17.811  0.00  0.00    +0.000 A 
ATOM     22 CL   UNL     1      -2.791  11.022  16.301  0.00  0.00    +0.000 Cl
ATOM     23  H   UNL     1      -3.580  12.433  20.839  0.00  0.00    +0.000 HD
ENDBRANCH  15  16
ENDBRANCH   1  13
BRANCH   6  24
ATOM     24  C   UNL     1       4.615   5.526  16.697  0.00  0.00    +0.000 A 
ATOM     25  C   UNL     1       4.647   4.129  16.583  0.00  0.00    +0.000 A 
ATOM     26  C   UNL     1       5.163   3.511  15.436  0.00  0.00    +0.000 A 
ATOM     27  C   UNL     1       5.661   4.277  14.371  0.00  0.00    +0.000 A 
ATOM     28  C   UNL     1       5.639   5.664  14.471  0.00  0.00    +0.000 A 
ATOM     29  C   UNL     1       5.122   6.282  15.623  0.00  0.00    +0.000 A 
BRANCH  27  30
ATOM     30  C   UNL     1       6.192   3.636  13.200  0.00  0.00    +0.000 C 
ATOM     31  N   UNL     1       6.633   3.116  12.257  0.00  0.00    +0.000 NA
ENDBRANCH  27  30
ENDBRANCH   6  24
TORSDOF 4
ENDMDL
MODEL 8
REMARK VINA RESULT:      -8.1      3.238     10.908
REMARK  Name = 
REMARK  6 active torsions:
REMARK  status: ('A' for Active; 'I' for Inactive)
REMARK    1  A    between atoms: C_1  and  C_2
REMARK    2  A    between atoms: C_5  and  C_6
REMARK    3  A    between atoms: C_11  and  C_12
REMARK    4  A    between atoms: C_15  and  C_16
REMARK    5  A    between atoms: C_23  and  C_24
REMARK    6  A    between atoms: C_27  and  C_28
REMARK                            x       y       z     vdW  Elec       q    Type
REMARK                         _______ _______ _______ _____ _____    ______ ____
ROOT
ATOM      1  C   UNL     1      -0.926  10.943  19.088  0.00  0.00    +0.000 C 
ATOM      2  O   UNL     1      -1.781  10.988  18.196  0.00  0.00    +0.000 OA
ATOM      3  N   UNL     1       0.184  10.092  18.955  0.00  0.00    +0.000 N 
ATOM      4  C   UNL     1       0.356   9.482  17.635  0.00  0.00    +0.000 C 
ATOM      5  C   UNL     1       1.745   8.871  17.468  0.00  0.00    +0.000 C 
ATOM      6  C   UNL     1       1.847   7.655  18.399  0.00  0.00    +0.000 C 
ATOM      7  C   UNL     1       1.259   7.986  19.800  0.00  0.00    +0.000 C 
ATOM      8  C   UNL     1       0.959   9.489  20.045  0.00  0.00    +0.000 C 
ENDROOT
BRANCH   1  13
ATOM      9  C   UNL     1      -1.154  14.176  23.945  0.00  0.00    +0.000 C 
ATOM     10  C   UNL     1      -1.240  13.382  22.662  0.00  0.00    +0.000 A 
ATOM     11  C   UNL     1      -0.072  13.328  21.883  0.00  0.00    +0.000 A 
ATOM     12  C   UNL     1      -0.025  12.583  20.703  0.00  0.00    +0.000 A 
ATOM     13  C   UNL     1      -1.143  11.875  20.245  0.00  0.00    +0.000 A 
ATOM     14  C   UNL     1      -2.317  11.931  21.009  0.00  0.00    +0.000 A 
ATOM     15  C   UNL     1      -2.395  12.686  22.217  0.00  0.00    +0.000 A 
BRANCH  15  16
ATOM     16  C   UNL     1      -3.673  12.712  22.968  0.00  0.00    +0.000 A 
ATOM     17  N   UNL     1      -3.880  12.006  24.131  0.00  0.00    +0.000 N 
ATOM     18  N   UNL     1      -5.079  12.171  24.700  0.00  0.00    +0.000 NA
ATOM     19  C   UNL     1      -5.687  13.048  23.898  0.00  0.00    +0.000 A 
ATOM     20  C   UNL     1      -7.044  13.541  24.239  0.00  0.00    +0.000 C 
ATOM     21  C   UNL     1      -4.865  13.403  22.800  0.00  0.00    +0.000 A 
ATOM     22 CL   UNL     1      -5.328  14.484  21.570  0.00  0.00    +0.000 Cl
ATOM     23  H   UNL     1      -3.230  11.393  24.610  0.00  0.00    +0.000 HD
ENDBRANCH  15  16
ENDBRANCH   1  13
BRANCH   6  24
ATOM     24  C   UNL     1       3.230   7.001  18.396  0.00  0.00    +0.000 A 
ATOM     25  C   UNL     1       4.196   7.296  17.424  0.00  0.00    +0.000 A 
ATOM     26  C   UNL     1       5.447   6.665  17.436  0.00  0.00    +0.000 A 
ATOM     27  C   UNL     1       5.765   5.721  18.424  0.00  0.00    +0.000 A 
ATOM     28  C   UNL     1       4.817   5.416  19.394  0.00  0.00    +0.000 A 
ATOM     29  C   UNL     1       3.561   6.049  19.380  0.00  0.00    +0.000 A 
BRANCH  27  30
ATOM     30  C   UNL     1       7.048   5.075  18.427  0.00  0.00    +0.000 C 
ATOM     31  N   UNL     1       8.092   4.560  18.423  0.00  0.00    +0.000 NA
ENDBRANCH  27  30
ENDBRANCH   6  24
TORSDOF 4
ENDMDL
MODEL 9
REMARK VINA RESULT:      -8.0      3.930     10.583
REMARK  Name = 
REMARK  6 active torsions:
REMARK  status: ('A' for Active; 'I' for Inactive)
REMARK    1  A    between atoms: C_1  and  C_2
REMARK    2  A    between atoms: C_5  and  C_6
REMARK    3  A    between atoms: C_11  and  C_12
REMARK    4  A    between atoms: C_15  and  C_16
REMARK    5  A    between atoms: C_23  and  C_24
REMARK    6  A    between atoms: C_27  and  C_28
REMARK                            x       y       z     vdW  Elec       q    Type
REMARK                         _______ _______ _______ _____ _____    ______ ____
ROOT
ATOM      1  C   UNL     1      -0.357  10.913  19.621  0.00  0.00    +0.000 C 
ATOM      2  O   UNL     1      -1.306  11.024  18.836  0.00  0.00    +0.000 OA
ATOM      3  N   UNL     1       0.672   9.996  19.353  0.00  0.00    +0.000 N 
ATOM      4  C   UNL     1       0.650   9.395  18.018  0.00  0.00    +0.000 C 
ATOM      5  C   UNL     1       1.968   8.701  17.685  0.00  0.00    +0.000 C 
ATOM      6  C   UNL     1       2.101   7.468  18.589  0.00  0.00    +0.000 C 
ATOM      7  C   UNL     1       1.703   7.816  20.051  0.00  0.00    +0.000 C 
ATOM      8  C   UNL     1       1.530   9.331  20.340  0.00  0.00    +0.000 C 
ENDROOT
BRANCH   1  13
ATOM      9  C   UNL     1      -1.249  14.499  24.142  0.00  0.00    +0.000 C 
ATOM     10  C   UNL     1      -0.877  13.629  22.964  0.00  0.00    +0.000 A 
ATOM     11  C   UNL     1      -1.409  12.329  22.955  0.00  0.00    +0.000 A 
ATOM     12  C   UNL     1      -1.171  11.457  21.891  0.00  0.00    +0.000 A 
ATOM     13  C   UNL     1      -0.378  11.840  20.801  0.00  0.00    +0.000 A 
ATOM     14  C   UNL     1       0.168  13.132  20.805  0.00  0.00    +0.000 A 
ATOM     15  C   UNL     1      -0.058  14.042  21.880  0.00  0.00    +0.000 A 
BRANCH  15  16
ATOM     16  C   UNL     1       0.562  15.388  21.826  0.00  0.00    +0.000 A 
ATOM     17  N   UNL     1      -0.162  16.546  21.660  0.00  0.00    +0.000 N 
ATOM     18  N   UNL     1       0.551  17.678  21.669  0.00  0.00    +0.000 NA
ATOM     19  C   UNL     1       1.800  17.258  21.880  0.00  0.00    +0.000 A 
ATOM     20  C   UNL     1       2.897  18.247  22.020  0.00  0.00    +0.000 C 
ATOM     21  C   UNL     1       1.865  15.845  21.968  0.00  0.00    +0.000 A 
ATOM     22 CL   UNL     1       3.302  14.967  22.212  0.00  0.00    +0.000 Cl
ATOM     23  H   UNL     1      -1.165  16.642  21.548  0.00  0.00    +0.000 HD
ENDBRANCH  15  16
ENDBRANCH   1  13
BRANCH   6  24
ATOM     24  C   UNL     1       3.430   6.729  18.419  0.00  0.00    +0.000 A 
ATOM     25  C   UNL     1       3.874   5.767  19.337  0.00  0.00    +0.000 A 
ATOM     26  C   UNL     1       5.106   5.123  19.166  0.00  0.00    +0.000 A 
ATOM     27  C   UNL     1       5.926   5.423  18.068  0.00  0.00    +0.000 A 
ATOM     28  C   UNL     1       5.501   6.377  17.150  0.00  0.00    +0.000 A 
ATOM     29  C   UNL     1       4.265   7.025  17.325  0.00  0.00    +0.000 A 
BRANCH  27  30
ATOM     30  C   UNL     1       7.190   4.760  17.902  0.00  0.00    +0.000 C 
ATOM     31  N   UNL     1       8.215   4.227  17.755  0.00  0.00    +0.000 NA
ENDBRANCH  27  30
ENDBRANCH   6  24
TORSDOF 4
ENDMDL
