MODEL 1
REMARK VINA RESULT:      -6.7      0.000      0.000
REMARK  Name = 
REMARK  10 active torsions:
REMARK  status: ('A' for Active; 'I' for Inactive)
REMARK    1  A    between atoms: C_1  and  O_2
REMARK    2  A    between atoms: O_2  and  C_3
REMARK    3  A    between atoms: C_4  and  C_5
REMARK    4  A    between atoms: C_5  and  C_6
REMARK    5  A    between atoms: C_5  and  C_7
REMARK    6  A    between atoms: C_11  and  O_12
REMARK    7  A    between atoms: C_13  and  C_14
REMARK    8  A    between atoms: C_14  and  O_16
REMARK    9  A    between atoms: C_20  and  C_21
REMARK   10  A    between atoms: C_20  and  C_22
REMARK                            x       y       z     vdW  Elec       q    Type
REMARK                         _______ _______ _______ _____ _____    ______ ____
ROOT
ATOM      1  C   UNL     1       1.122   8.383  20.438  0.00  0.00    +0.000 A 
ATOM      2  C   UNL     1       1.264   9.418  19.504  0.00  0.00    +0.000 A 
ATOM      3  C   UNL     1       2.009   9.159  18.344  0.00  0.00    +0.000 A 
ATOM      4  C   UNL     1       2.616   7.906  18.091  0.00  0.00    +0.000 A 
ATOM      5  C   UNL     1       2.462   6.853  19.003  0.00  0.00    +0.000 A 
ATOM      6  C   UNL     1       1.670   7.116  20.150  0.00  0.00    +0.000 A 
ATOM      7  C   UNL     1       3.018   5.419  18.712  0.00  0.00    +0.000 C 
ATOM      8  C   UNL     1       3.854   4.954  19.942  0.00  0.00    +0.000 C 
ATOM      9  C   UNL     1       4.488   3.569  19.846  0.00  0.00    +0.000 C 
ATOM     10  C   UNL     1       4.869   3.132  18.444  0.00  0.00    +0.000 C 
ATOM     11  C   UNL     1       5.119   4.286  17.461  0.00  0.00    +0.000 C 
ATOM     12  C   UNL     1       6.473   4.944  17.831  0.00  0.00    +0.000 C 
ATOM     13  C   UNL     1       5.297   3.650  16.060  0.00  0.00    +0.000 C 
ATOM     14  C   UNL     1       3.904   5.315  17.401  0.00  0.00    +0.000 C 
ATOM     15  C   UNL     1       4.403   6.676  16.872  0.00  0.00    +0.000 C 
ATOM     16  C   UNL     1       3.342   7.747  16.790  0.00  0.00    +0.000 C 
ENDROOT
BRANCH   2  17
ATOM     17  C   UNL     1       0.656  10.811  19.646  0.00  0.00    +0.000 C 
ATOM     18  C   UNL     1       1.495  11.906  18.986  0.00  0.00    +0.000 C 
ATOM     19  C   UNL     1      -0.805  10.886  19.184  0.00  0.00    +0.000 C 
ENDBRANCH   2  17
BRANCH   1  21
ATOM     20  C   UNL     1       1.103   9.204  22.674  0.00  0.00    +0.000 C 
ATOM     21  O   UNL     1       0.386   8.670  21.561  0.00  0.00    +0.000 OA
ENDBRANCH   1  21
BRANCH   6  22
ATOM     22  O   UNL     1       1.360   6.056  20.959  0.00  0.00    +0.000 OA
ATOM     23  H   UNL     1       0.616   6.334  21.526  0.00  0.00    +0.000 HD
ENDBRANCH   6  22
BRANCH   7  24
ATOM     24  C   UNL     1       1.801   4.455  18.510  0.00  0.00    +0.000 C 
ATOM     25  O   UNL     1       1.254   3.812  19.396  0.00  0.00    +0.000 OA
BRANCH  24  26
ATOM     26  O   UNL     1       1.358   4.341  17.232  0.00  0.00    +0.000 OA
ATOM     27  H   UNL     1       2.054   4.208  16.561  0.00  0.00    +0.000 HD
ENDBRANCH  24  26
ENDBRANCH   7  24
TORSDOF 5
ENDMDL
MODEL 2
REMARK VINA RESULT:      -6.4      2.132      3.532
REMARK  Name = 
REMARK  10 active torsions:
REMARK  status: ('A' for Active; 'I' for Inactive)
REMARK    1  A    between atoms: C_1  and  O_2
REMARK    2  A    between atoms: O_2  and  C_3
REMARK    3  A    between atoms: C_4  and  C_5
REMARK    4  A    between atoms: C_5  and  C_6
REMARK    5  A    between atoms: C_5  and  C_7
REMARK    6  A    between atoms: C_11  and  O_12
REMARK    7  A    between atoms: C_13  and  C_14
REMARK    8  A    between atoms: C_14  and  O_16
REMARK    9  A    between atoms: C_20  and  C_21
REMARK   10  A    between atoms: C_20  and  C_22
REMARK                            x       y       z     vdW  Elec       q    Type
REMARK                         _______ _______ _______ _____ _____    ______ ____
ROOT
ATOM      1  C   UNL     1       1.900   8.940  18.380  0.00  0.00    +0.000 A 
ATOM      2  C   UNL     1       1.245   9.052  19.614  0.00  0.00    +0.000 A 
ATOM      3  C   UNL     1       1.317   7.966  20.499  0.00  0.00    +0.000 A 
ATOM      4  C   UNL     1       2.015   6.775  20.188  0.00  0.00    +0.000 A 
ATOM      5  C   UNL     1       2.696   6.656  18.968  0.00  0.00    +0.000 A 
ATOM      6  C   UNL     1       2.651   7.779  18.104  0.00  0.00    +0.000 A 
ATOM      7  C   UNL     1       3.574   5.406  18.630  0.00  0.00    +0.000 C 
ATOM      8  C   UNL     1       3.152   4.868  17.231  0.00  0.00    +0.000 C 
ATOM      9  C   UNL     1       3.898   3.637  16.722  0.00  0.00    +0.000 C 
ATOM     10  C   UNL     1       4.377   2.686  17.802  0.00  0.00    +0.000 C 
ATOM     11  C   UNL     1       3.580   2.754  19.115  0.00  0.00    +0.000 C 
ATOM     12  C   UNL     1       2.201   2.090  18.871  0.00  0.00    +0.000 C 
ATOM     13  C   UNL     1       4.330   1.870  20.141  0.00  0.00    +0.000 C 
ATOM     14  C   UNL     1       3.482   4.235  19.696  0.00  0.00    +0.000 C 
ATOM     15  C   UNL     1       2.267   4.341  20.641  0.00  0.00    +0.000 C 
ATOM     16  C   UNL     1       2.055   5.710  21.241  0.00  0.00    +0.000 C 
ENDROOT
BRANCH   2  17
ATOM     17  C   UNL     1       0.466  10.280  20.081  0.00  0.00    +0.000 C 
ATOM     18  C   UNL     1      -0.927  10.384  19.459  0.00  0.00    +0.000 C 
ATOM     19  C   UNL     1       0.396  10.412  21.607  0.00  0.00    +0.000 C 
ENDBRANCH   2  17
BRANCH   1  21
ATOM     20  C   UNL     1       2.569  11.175  17.903  0.00  0.00    +0.000 C 
ATOM     21  O   UNL     1       1.810  10.022  17.540  0.00  0.00    +0.000 OA
ENDBRANCH   1  21
BRANCH   6  22
ATOM     22  O   UNL     1       3.453   7.754  16.994  0.00  0.00    +0.000 OA
ATOM     23  H   UNL     1       3.410   6.850  16.629  0.00  0.00    +0.000 HD
ENDBRANCH   6  22
BRANCH   7  24
ATOM     24  C   UNL     1       5.073   5.858  18.588  0.00  0.00    +0.000 C 
ATOM     25  O   UNL     1       5.611   6.432  17.651  0.00  0.00    +0.000 OA
BRANCH  24  26
ATOM     26  O   UNL     1       5.800   5.558  19.693  0.00  0.00    +0.000 OA
ATOM     27  H   UNL     1       6.692   5.954  19.724  0.00  0.00    +0.000 HD
ENDBRANCH  24  26
ENDBRANCH   7  24
TORSDOF 5
ENDMDL
MODEL 3
REMARK VINA RESULT:      -6.1      2.155      3.580
REMARK  Name = 
REMARK  10 active torsions:
REMARK  status: ('A' for Active; 'I' for Inactive)
REMARK    1  A    between atoms: C_1  and  O_2
REMARK    2  A    between atoms: O_2  and  C_3
REMARK    3  A    between atoms: C_4  and  C_5
REMARK    4  A    between atoms: C_5  and  C_6
REMARK    5  A    between atoms: C_5  and  C_7
REMARK    6  A    between atoms: C_11  and  O_12
REMARK    7  A    between atoms: C_13  and  C_14
REMARK    8  A    between atoms: C_14  and  O_16
REMARK    9  A    between atoms: C_20  and  C_21
REMARK   10  A    between atoms: C_20  and  C_22
REMARK                            x       y       z     vdW  Elec       q    Type
REMARK                         _______ _______ _______ _____ _____    ______ ____
ROOT
ATOM      1  C   UNL     1       1.588   8.671  19.186  0.00  0.00    +0.000 A 
ATOM      2  C   UNL     1       1.022   8.551  20.462  0.00  0.00    +0.000 A 
ATOM      3  C   UNL     1       1.210   7.347  21.155  0.00  0.00    +0.000 A 
ATOM      4  C   UNL     1       1.939   6.261  20.613  0.00  0.00    +0.000 A 
ATOM      5  C   UNL     1       2.533   6.374  19.349  0.00  0.00    +0.000 A 
ATOM      6  C   UNL     1       2.371   7.613  18.679  0.00  0.00    +0.000 A 
ATOM      7  C   UNL     1       3.441   5.244  18.759  0.00  0.00    +0.000 C 
ATOM      8  C   UNL     1       2.943   4.907  17.322  0.00  0.00    +0.000 C 
ATOM      9  C   UNL     1       3.706   3.816  16.577  0.00  0.00    +0.000 C 
ATOM     10  C   UNL     1       4.309   2.738  17.457  0.00  0.00    +0.000 C 
ATOM     11  C   UNL     1       3.608   2.555  18.813  0.00  0.00    +0.000 C 
ATOM     12  C   UNL     1       2.247   1.857  18.558  0.00  0.00    +0.000 C 
ATOM     13  C   UNL     1       4.473   1.566  19.634  0.00  0.00    +0.000 C 
ATOM     14  C   UNL     1       3.484   3.919  19.628  0.00  0.00    +0.000 C 
ATOM     15  C   UNL     1       2.338   3.805  20.655  0.00  0.00    +0.000 C 
ATOM     16  C   UNL     1       2.107   5.050  21.478  0.00  0.00    +0.000 C 
ENDROOT
BRANCH   2  17
ATOM     17  C   UNL     1       0.222   9.644  21.168  0.00  0.00    +0.000 C 
ATOM     18  C   UNL     1      -0.385   9.187  22.494  0.00  0.00    +0.000 C 
ATOM     19  C   UNL     1       1.005  10.951  21.346  0.00  0.00    +0.000 C 
ENDBRANCH   2  17
BRANCH   1  21
ATOM     20  C   UNL     1       0.156  10.003  17.828  0.00  0.00    +0.000 C 
ATOM     21  O   UNL     1       1.386   9.864  18.536  0.00  0.00    +0.000 OA
ENDBRANCH   1  21
BRANCH   6  22
ATOM     22  O   UNL     1       3.089   7.807  17.529  0.00  0.00    +0.000 OA
ATOM     23  H   UNL     1       3.992   8.067  17.794  0.00  0.00    +0.000 HD
ENDBRANCH   6  22
BRANCH   7  24
ATOM     24  C   UNL     1       4.910   5.784  18.691  0.00  0.00    +0.000 C 
ATOM     25  O   UNL     1       5.380   6.439  17.770  0.00  0.00    +0.000 OA
BRANCH  24  26
ATOM     26  O   UNL     1       5.694   5.467  19.752  0.00  0.00    +0.000 OA
ATOM     27  H   UNL     1       6.150   6.221  20.173  0.00  0.00    +0.000 HD
ENDBRANCH  24  26
ENDBRANCH   7  24
TORSDOF 5
ENDMDL
MODEL 4
REMARK VINA RESULT:      -5.7      5.803     11.221
REMARK  Name = 
REMARK  10 active torsions:
REMARK  status: ('A' for Active; 'I' for Inactive)
REMARK    1  A    between atoms: C_1  and  O_2
REMARK    2  A    between atoms: O_2  and  C_3
REMARK    3  A    between atoms: C_4  and  C_5
REMARK    4  A    between atoms: C_5  and  C_6
REMARK    5  A    between atoms: C_5  and  C_7
REMARK    6  A    between atoms: C_11  and  O_12
REMARK    7  A    between atoms: C_13  and  C_14
REMARK    8  A    between atoms: C_14  and  O_16
REMARK    9  A    between atoms: C_20  and  C_21
REMARK   10  A    between atoms: C_20  and  C_22
REMARK                            x       y       z     vdW  Elec       q    Type
REMARK                         _______ _______ _______ _____ _____    ______ ____
ROOT
ATOM      1  C   UNL     1      -2.363  11.972  19.144  0.00  0.00    +0.000 A 
ATOM      2  C   UNL     1      -1.477  11.677  20.188  0.00  0.00    +0.000 A 
ATOM      3  C   UNL     1      -1.914  11.892  21.504  0.00  0.00    +0.000 A 
ATOM      4  C   UNL     1      -3.201  12.395  21.806  0.00  0.00    +0.000 A 
ATOM      5  C   UNL     1      -4.109  12.672  20.775  0.00  0.00    +0.000 A 
ATOM      6  C   UNL     1      -3.668  12.407  19.453  0.00  0.00    +0.000 A 
ATOM      7  C   UNL     1      -5.580  13.120  21.066  0.00  0.00    +0.000 C 
ATOM      8  C   UNL     1      -5.879  14.404  20.236  0.00  0.00    +0.000 C 
ATOM      9  C   UNL     1      -7.275  15.002  20.390  0.00  0.00    +0.000 C 
ATOM     10  C   UNL     1      -7.917  14.794  21.749  0.00  0.00    +0.000 C 
ATOM     11  C   UNL     1      -6.920  14.572  22.899  0.00  0.00    +0.000 C 
ATOM     12  C   UNL     1      -6.242  15.930  23.212  0.00  0.00    +0.000 C 
ATOM     13  C   UNL     1      -7.755  14.188  24.146  0.00  0.00    +0.000 C 
ATOM     14  C   UNL     1      -5.888  13.396  22.597  0.00  0.00    +0.000 C 
ATOM     15  C   UNL     1      -4.627  13.578  23.467  0.00  0.00    +0.000 C 
ATOM     16  C   UNL     1      -3.560  12.532  23.254  0.00  0.00    +0.000 C 
ENDROOT
BRANCH   2  17
ATOM     17  C   UNL     1      -0.066  11.121  20.005  0.00  0.00    +0.000 C 
ATOM     18  C   UNL     1       1.011  11.975  20.674  0.00  0.00    +0.000 C 
ATOM     19  C   UNL     1       0.066   9.650  20.418  0.00  0.00    +0.000 C 
ENDBRANCH   2  17
BRANCH   1  21
ATOM     20  C   UNL     1      -2.202  10.474  17.300  0.00  0.00    +0.000 C 
ATOM     21  O   UNL     1      -1.903  11.748  17.870  0.00  0.00    +0.000 OA
ENDBRANCH   1  21
BRANCH   6  22
ATOM     22  O   UNL     1      -4.595  12.499  18.449  0.00  0.00    +0.000 OA
ATOM     23  H   UNL     1      -5.470  12.583  18.872  0.00  0.00    +0.000 HD
ENDBRANCH   6  22
BRANCH   7  24
ATOM     24  C   UNL     1      -6.540  11.968  20.615  0.00  0.00    +0.000 C 
ATOM     25  O   UNL     1      -6.959  11.802  19.477  0.00  0.00    +0.000 OA
BRANCH  24  26
ATOM     26  O   UNL     1      -6.926  11.117  21.598  0.00  0.00    +0.000 OA
ATOM     27  H   UNL     1      -7.515  10.392  21.313  0.00  0.00    +0.000 HD
ENDBRANCH  24  26
ENDBRANCH   7  24
TORSDOF 5
ENDMDL
MODEL 5
REMARK VINA RESULT:      -5.7      6.204      8.619
REMARK  Name = 
REMARK  10 active torsions:
REMARK  status: ('A' for Active; 'I' for Inactive)
REMARK    1  A    between atoms: C_1  and  O_2
REMARK    2  A    between atoms: O_2  and  C_3
REMARK    3  A    between atoms: C_4  and  C_5
REMARK    4  A    between atoms: C_5  and  C_6
REMARK    5  A    between atoms: C_5  and  C_7
REMARK    6  A    between atoms: C_11  and  O_12
REMARK    7  A    between atoms: C_13  and  C_14
REMARK    8  A    between atoms: C_14  and  O_16
REMARK    9  A    between atoms: C_20  and  C_21
REMARK   10  A    between atoms: C_20  and  C_22
REMARK                            x       y       z     vdW  Elec       q    Type
REMARK                         _______ _______ _______ _____ _____    ______ ____
ROOT
ATOM      1  C   UNL     1      -4.891  12.628  21.750  0.00  0.00    +0.000 A 
ATOM      2  C   UNL     1      -5.479  12.276  20.528  0.00  0.00    +0.000 A 
ATOM      3  C   UNL     1      -4.635  12.061  19.428  0.00  0.00    +0.000 A 
ATOM      4  C   UNL     1      -3.228  12.193  19.511  0.00  0.00    +0.000 A 
ATOM      5  C   UNL     1      -2.622  12.521  20.731  0.00  0.00    +0.000 A 
ATOM      6  C   UNL     1      -3.485  12.691  21.843  0.00  0.00    +0.000 A 
ATOM      7  C   UNL     1      -1.066  12.565  20.896  0.00  0.00    +0.000 C 
ATOM      8  C   UNL     1      -0.677  13.923  21.552  0.00  0.00    +0.000 C 
ATOM      9  C   UNL     1       0.812  14.158  21.793  0.00  0.00    +0.000 C 
ATOM     10  C   UNL     1       1.738  13.490  20.794  0.00  0.00    +0.000 C 
ATOM     11  C   UNL     1       1.101  13.204  19.425  0.00  0.00    +0.000 C 
ATOM     12  C   UNL     1       0.950  14.553  18.676  0.00  0.00    +0.000 C 
ATOM     13  C   UNL     1       2.121  12.357  18.625  0.00  0.00    +0.000 C 
ATOM     14  C   UNL     1      -0.260  12.382  19.543  0.00  0.00    +0.000 C 
ATOM     15  C   UNL     1      -1.108  12.602  18.273  0.00  0.00    +0.000 C 
ATOM     16  C   UNL     1      -2.439  11.888  18.274  0.00  0.00    +0.000 C 
ENDROOT
BRANCH   2  17
ATOM     17  C   UNL     1      -6.978  12.090  20.302  0.00  0.00    +0.000 C 
ATOM     18  C   UNL     1      -7.479  12.738  19.011  0.00  0.00    +0.000 C 
ATOM     19  C   UNL     1      -7.430  10.628  20.393  0.00  0.00    +0.000 C 
ENDBRANCH   2  17
BRANCH   1  21
ATOM     20  C   UNL     1      -6.013  14.184  23.160  0.00  0.00    +0.000 C 
ATOM     21  O   UNL     1      -5.746  12.829  22.805  0.00  0.00    +0.000 OA
ENDBRANCH   1  21
BRANCH   6  22
ATOM     22  O   UNL     1      -2.905  12.833  23.075  0.00  0.00    +0.000 OA
ATOM     23  H   UNL     1      -2.563  13.745  23.130  0.00  0.00    +0.000 HD
ENDBRANCH   6  22
BRANCH   7  24
ATOM     24  C   UNL     1      -0.641  11.387  21.835  0.00  0.00    +0.000 C 
ATOM     25  O   UNL     1      -0.476  11.472  23.045  0.00  0.00    +0.000 OA
BRANCH  24  26
ATOM     26  O   UNL     1      -0.434  10.197  21.216  0.00  0.00    +0.000 OA
ATOM     27  H   UNL     1      -0.077   9.489  21.785  0.00  0.00    +0.000 HD
ENDBRANCH  24  26
ENDBRANCH   7  24
TORSDOF 5
ENDMDL
MODEL 6
REMARK VINA RESULT:      -5.6      7.475     11.030
REMARK  Name = 
REMARK  10 active torsions:
REMARK  status: ('A' for Active; 'I' for Inactive)
REMARK    1  A    between atoms: C_1  and  O_2
REMARK    2  A    between atoms: O_2  and  C_3
REMARK    3  A    between atoms: C_4  and  C_5
REMARK    4  A    between atoms: C_5  and  C_6
REMARK    5  A    between atoms: C_5  and  C_7
REMARK    6  A    between atoms: C_11  and  O_12
REMARK    7  A    between atoms: C_13  and  C_14
REMARK    8  A    between atoms: C_14  and  O_16
REMARK    9  A    between atoms: C_20  and  C_21
REMARK   10  A    between atoms: C_20  and  C_22
REMARK                            x       y       z     vdW  Elec       q    Type
REMARK                         _______ _______ _______ _____ _____    ______ ____
ROOT
ATOM      1  C   UNL     1      -5.315  11.751  19.262  0.00  0.00    +0.000 A 
ATOM      2  C   UNL     1      -4.089  11.439  18.659  0.00  0.00    +0.000 A 
ATOM      3  C   UNL     1      -2.915  11.882  19.286  0.00  0.00    +0.000 A 
ATOM      4  C   UNL     1      -2.928  12.628  20.488  0.00  0.00    +0.000 A 
ATOM      5  C   UNL     1      -4.144  12.927  21.118  0.00  0.00    +0.000 A 
ATOM      6  C   UNL     1      -5.319  12.435  20.495  0.00  0.00    +0.000 A 
ATOM      7  C   UNL     1      -4.201  13.649  22.505  0.00  0.00    +0.000 C 
ATOM      8  C   UNL     1      -5.181  14.855  22.395  0.00  0.00    +0.000 C 
ATOM      9  C   UNL     1      -5.369  15.694  23.656  0.00  0.00    +0.000 C 
ATOM     10  C   UNL     1      -4.159  15.763  24.569  0.00  0.00    +0.000 C 
ATOM     11  C   UNL     1      -2.814  15.517  23.866  0.00  0.00    +0.000 C 
ATOM     12  C   UNL     1      -2.484  16.769  23.013  0.00  0.00    +0.000 C 
ATOM     13  C   UNL     1      -1.738  15.433  24.976  0.00  0.00    +0.000 C 
ATOM     14  C   UNL     1      -2.796  14.156  23.037  0.00  0.00    +0.000 C 
ATOM     15  C   UNL     1      -1.703  14.227  21.950  0.00  0.00    +0.000 C 
ATOM     16  C   UNL     1      -1.602  12.997  21.079  0.00  0.00    +0.000 C 
ENDROOT
BRANCH   2  17
ATOM     17  C   UNL     1      -3.930  10.636  17.370  0.00  0.00    +0.000 C 
ATOM     18  C   UNL     1      -3.918  11.506  16.113  0.00  0.00    +0.000 C 
ATOM     19  C   UNL     1      -2.725   9.687  17.390  0.00  0.00    +0.000 C 
ENDBRANCH   2  17
BRANCH   1  21
ATOM     20  C   UNL     1      -7.166  12.261  17.854  0.00  0.00    +0.000 C 
ATOM     21  O   UNL     1      -6.443  11.300  18.623  0.00  0.00    +0.000 OA
ENDBRANCH   1  21
BRANCH   6  22
ATOM     22  O   UNL     1      -6.497  12.559  21.183  0.00  0.00    +0.000 OA
ATOM     23  H   UNL     1      -6.293  12.429  22.128  0.00  0.00    +0.000 HD
ENDBRANCH   6  22
BRANCH   7  24
ATOM     24  C   UNL     1      -4.741  12.630  23.564  0.00  0.00    +0.000 C 
ATOM     25  O   UNL     1      -5.919  12.474  23.858  0.00  0.00    +0.000 OA
BRANCH  24  26
ATOM     26  O   UNL     1      -3.793  11.890  24.193  0.00  0.00    +0.000 OA
ATOM     27  H   UNL     1      -4.001  11.645  25.115  0.00  0.00    +0.000 HD
ENDBRANCH  24  26
ENDBRANCH   7  24
TORSDOF 5
ENDMDL
MODEL 7
REMARK VINA RESULT:      -5.6      2.333      7.400
REMARK  Name = 
REMARK  10 active torsions:
REMARK  status: ('A' for Active; 'I' for Inactive)
REMARK    1  A    between atoms: C_1  and  O_2
REMARK    2  A    between atoms: O_2  and  C_3
REMARK    3  A    between atoms: C_4  and  C_5
REMARK    4  A    between atoms: C_5  and  C_6
REMARK    5  A    between atoms: C_5  and  C_7
REMARK    6  A    between atoms: C_11  and  O_12
REMARK    7  A    between atoms: C_13  and  C_14
REMARK    8  A    between atoms: C_14  and  O_16
REMARK    9  A    between atoms: C_20  and  C_21
REMARK   10  A    between atoms: C_20  and  C_22
REMARK                            x       y       z     vdW  Elec       q    Type
REMARK                         _______ _______ _______ _____ _____    ______ ____
ROOT
ATOM      1  C   UNL     1       2.208   7.633  18.590  0.00  0.00    +0.000 A 
ATOM      2  C   UNL     1       2.126   6.852  19.751  0.00  0.00    +0.000 A 
ATOM      3  C   UNL     1       1.371   7.347  20.825  0.00  0.00    +0.000 A 
ATOM      4  C   UNL     1       0.704   8.594  20.776  0.00  0.00    +0.000 A 
ATOM      5  C   UNL     1       0.755   9.376  19.614  0.00  0.00    +0.000 A 
ATOM      6  C   UNL     1       1.486   8.842  18.522  0.00  0.00    +0.000 A 
ATOM      7  C   UNL     1      -0.059  10.705  19.475  0.00  0.00    +0.000 C 
ATOM      8  C   UNL     1       0.908  11.830  18.998  0.00  0.00    +0.000 C 
ATOM      9  C   UNL     1       0.296  13.215  18.806  0.00  0.00    +0.000 C 
ATOM     10  C   UNL     1      -0.869  13.535  19.724  0.00  0.00    +0.000 C 
ATOM     11  C   UNL     1      -0.884  12.739  21.039  0.00  0.00    +0.000 C 
ATOM     12  C   UNL     1       0.239  13.298  21.950  0.00  0.00    +0.000 C 
ATOM     13  C   UNL     1      -2.229  13.055  21.738  0.00  0.00    +0.000 C 
ATOM     14  C   UNL     1      -0.792  11.165  20.803  0.00  0.00    +0.000 C 
ATOM     15  C   UNL     1      -0.262  10.481  22.081  0.00  0.00    +0.000 C 
ATOM     16  C   UNL     1      -0.109   8.983  21.974  0.00  0.00    +0.000 C 
ENDROOT
BRANCH   2  17
ATOM     17  C   UNL     1       2.787   5.488  19.934  0.00  0.00    +0.000 C 
ATOM     18  C   UNL     1       2.331   4.761  21.200  0.00  0.00    +0.000 C 
ATOM     19  C   UNL     1       2.658   4.580  18.704  0.00  0.00    +0.000 C 
ENDBRANCH   2  17
BRANCH   1  21
ATOM     20  C   UNL     1       4.299   7.581  17.450  0.00  0.00    +0.000 C 
ATOM     21  O   UNL     1       2.953   7.118  17.559  0.00  0.00    +0.000 OA
ENDBRANCH   1  21
BRANCH   6  22
ATOM     22  O   UNL     1       1.400   9.500  17.324  0.00  0.00    +0.000 OA
ATOM     23  H   UNL     1       1.061   8.862  16.668  0.00  0.00    +0.000 HD
ENDBRANCH   6  22
BRANCH   7  24
ATOM     24  C   UNL     1      -1.176  10.483  18.399  0.00  0.00    +0.000 C 
ATOM     25  O   UNL     1      -2.242   9.915  18.595  0.00  0.00    +0.000 OA
BRANCH  24  26
ATOM     26  O   UNL     1      -0.893  10.962  17.162  0.00  0.00    +0.000 OA
ATOM     27  H   UNL     1      -0.414  11.813  17.145  0.00  0.00    +0.000 HD
ENDBRANCH  24  26
ENDBRANCH   7  24
TORSDOF 5
ENDMDL
MODEL 8
REMARK VINA RESULT:      -5.5      8.578     10.266
REMARK  Name = 
REMARK  10 active torsions:
REMARK  status: ('A' for Active; 'I' for Inactive)
REMARK    1  A    between atoms: C_1  and  O_2
REMARK    2  A    between atoms: O_2  and  C_3
REMARK    3  A    between atoms: C_4  and  C_5
REMARK    4  A    between atoms: C_5  and  C_6
REMARK    5  A    between atoms: C_5  and  C_7
REMARK    6  A    between atoms: C_11  and  O_12
REMARK    7  A    between atoms: C_13  and  C_14
REMARK    8  A    between atoms: C_14  and  O_16
REMARK    9  A    between atoms: C_20  and  C_21
REMARK   10  A    between atoms: C_20  and  C_22
REMARK                            x       y       z     vdW  Elec       q    Type
REMARK                         _______ _______ _______ _____ _____    ______ ____
ROOT
ATOM      1  C   UNL     1       5.921  16.947  19.280  0.00  0.00    +0.000 A 
ATOM      2  C   UNL     1       5.015  16.204  18.512  0.00  0.00    +0.000 A 
ATOM      3  C   UNL     1       5.458  14.992  17.960  0.00  0.00    +0.000 A 
ATOM      4  C   UNL     1       6.774  14.506  18.148  0.00  0.00    +0.000 A 
ATOM      5  C   UNL     1       7.685  15.225  18.934  0.00  0.00    +0.000 A 
ATOM      6  C   UNL     1       7.209  16.425  19.520  0.00  0.00    +0.000 A 
ATOM      7  C   UNL     1       9.111  14.671  19.262  0.00  0.00    +0.000 C 
ATOM      8  C   UNL     1      10.160  15.773  18.925  0.00  0.00    +0.000 C 
ATOM      9  C   UNL     1      11.623  15.417  19.175  0.00  0.00    +0.000 C 
ATOM     10  C   UNL     1      11.965  13.948  19.007  0.00  0.00    +0.000 C 
ATOM     11  C   UNL     1      11.015  13.174  18.078  0.00  0.00    +0.000 C 
ATOM     12  C   UNL     1      11.311  13.610  16.620  0.00  0.00    +0.000 C 
ATOM     13  C   UNL     1      11.403  11.679  18.188  0.00  0.00    +0.000 C 
ATOM     14  C   UNL     1       9.485  13.334  18.496  0.00  0.00    +0.000 C 
ATOM     15  C   UNL     1       8.584  13.035  17.280  0.00  0.00    +0.000 C 
ATOM     16  C   UNL     1       7.104  13.174  17.545  0.00  0.00    +0.000 C 
ENDROOT
BRANCH   2  17
ATOM     17  C   UNL     1       3.567  16.605  18.239  0.00  0.00    +0.000 C 
ATOM     18  C   UNL     1       3.251  16.750  16.750  0.00  0.00    +0.000 C 
ATOM     19  C   UNL     1       2.544  15.696  18.930  0.00  0.00    +0.000 C 
ENDBRANCH   2  17
BRANCH   1  21
ATOM     20  C   UNL     1       4.909  18.064  21.123  0.00  0.00    +0.000 C 
ATOM     21  O   UNL     1       5.454  18.126  19.806  0.00  0.00    +0.000 OA
ENDBRANCH   1  21
BRANCH   6  22
ATOM     22  O   UNL     1       8.020  17.046  20.432  0.00  0.00    +0.000 OA
ATOM     23  H   UNL     1       7.729  17.976  20.490  0.00  0.00    +0.000 HD
ENDBRANCH   6  22
BRANCH   7  24
ATOM     24  C   UNL     1       9.168  14.343  20.792  0.00  0.00    +0.000 C 
ATOM     25  O   UNL     1       9.584  15.097  21.661  0.00  0.00    +0.000 OA
BRANCH  24  26
ATOM     26  O   UNL     1       8.724  13.108  21.137  0.00  0.00    +0.000 OA
ATOM     27  H   UNL     1       8.888  12.408  20.476  0.00  0.00    +0.000 HD
ENDBRANCH  24  26
ENDBRANCH   7  24
TORSDOF 5
ENDMDL
MODEL 9
REMARK VINA RESULT:      -5.5      5.419     10.873
REMARK  Name = 
REMARK  10 active torsions:
REMARK  status: ('A' for Active; 'I' for Inactive)
REMARK    1  A    between atoms: C_1  and  O_2
REMARK    2  A    between atoms: O_2  and  C_3
REMARK    3  A    between atoms: C_4  and  C_5
REMARK    4  A    between atoms: C_5  and  C_6
REMARK    5  A    between atoms: C_5  and  C_7
REMARK    6  A    between atoms: C_11  and  O_12
REMARK    7  A    between atoms: C_13  and  C_14
REMARK    8  A    between atoms: C_14  and  O_16
REMARK    9  A    between atoms: C_20  and  C_21
REMARK   10  A    between atoms: C_20  and  C_22
REMARK                            x       y       z     vdW  Elec       q    Type
REMARK                         _______ _______ _______ _____ _____    ______ ____
ROOT
ATOM      1  C   UNL     1      -2.643  10.616  18.170  0.00  0.00    +0.000 A 
ATOM      2  C   UNL     1      -1.562  10.996  18.977  0.00  0.00    +0.000 A 
ATOM      3  C   UNL     1      -1.776  11.999  19.935  0.00  0.00    +0.000 A 
ATOM      4  C   UNL     1      -3.029  12.634  20.106  0.00  0.00    +0.000 A 
ATOM      5  C   UNL     1      -4.127  12.248  19.324  0.00  0.00    +0.000 A 
ATOM      6  C   UNL     1      -3.906  11.203  18.392  0.00  0.00    +0.000 A 
ATOM      7  C   UNL     1      -5.556  12.841  19.557  0.00  0.00    +0.000 C 
ATOM      8  C   UNL     1      -6.112  13.344  18.191  0.00  0.00    +0.000 C 
ATOM      9  C   UNL     1      -7.506  13.965  18.212  0.00  0.00    +0.000 C 
ATOM     10  C   UNL     1      -7.874  14.672  19.503  0.00  0.00    +0.000 C 
ATOM     11  C   UNL     1      -6.674  15.170  20.324  0.00  0.00    +0.000 C 
ATOM     12  C   UNL     1      -6.075  16.400  19.595  0.00  0.00    +0.000 C 
ATOM     13  C   UNL     1      -7.236  15.678  21.675  0.00  0.00    +0.000 C 
ATOM     14  C   UNL     1      -5.611  14.019  20.616  0.00  0.00    +0.000 C 
ATOM     15  C   UNL     1      -4.237  14.650  20.924  0.00  0.00    +0.000 C 
ATOM     16  C   UNL     1      -3.136  13.654  21.198  0.00  0.00    +0.000 C 
ENDROOT
BRANCH   2  17
ATOM     17  C   UNL     1      -0.163  10.389  18.905  0.00  0.00    +0.000 C 
ATOM     18  C   UNL     1       0.924  11.413  18.576  0.00  0.00    +0.000 C 
ATOM     19  C   UNL     1       0.211   9.574  20.149  0.00  0.00    +0.000 C 
ENDBRANCH   2  17
BRANCH   1  21
ATOM     20  C   UNL     1      -2.453  10.018  15.873  0.00  0.00    +0.000 C 
ATOM     21  O   UNL     1      -2.399   9.631  17.246  0.00  0.00    +0.000 OA
ENDBRANCH   1  21
BRANCH   6  22
ATOM     22  O   UNL     1      -5.001  10.690  17.749  0.00  0.00    +0.000 OA
ATOM     23  H   UNL     1      -5.178  11.264  16.979  0.00  0.00    +0.000 HD
ENDBRANCH   6  22
BRANCH   7  24
ATOM     24  C   UNL     1      -6.475  11.698  20.108  0.00  0.00    +0.000 C 
ATOM     25  O   UNL     1      -7.165  10.954  19.424  0.00  0.00    +0.000 OA
BRANCH  24  26
ATOM     26  O   UNL     1      -6.489  11.567  21.458  0.00  0.00    +0.000 OA
ATOM     27  H   UNL     1      -7.199  10.998  21.813  0.00  0.00    +0.000 HD
ENDBRANCH  24  26
ENDBRANCH   7  24
TORSDOF 5
ENDMDL
