MODEL 1
REMARK VINA RESULT:      -6.5      0.000      0.000
REMARK  Name = 
REMARK  5 active torsions:
REMARK  status: ('A' for Active; 'I' for Inactive)
REMARK    1  A    between atoms: C_1  and  O_2
REMARK    2  A    between atoms: O_2  and  C_3
REMARK    3  A    between atoms: C_8  and  N_9
REMARK    4  A    between atoms: N_12  and  C_13
REMARK    5  A    between atoms: C_19  and  C_20
REMARK                            x       y       z     vdW  Elec       q    Type
REMARK                         _______ _______ _______ _____ _____    ______ ____
ROOT
ATOM      1  N   UNL     1       1.005   9.552  19.170  0.00  0.00    +0.000 N 
ATOM      2  C   UNL     1       1.265   8.581  18.099  0.00  0.00    +0.000 C 
ATOM      3  C   UNL     1       2.462   7.696  18.514  0.00  0.00    +0.000 C 
ATOM      4  N   UNL     1       2.192   7.016  19.804  0.00  0.00    +0.000 N 
ATOM      5  C   UNL     1       1.838   7.945  20.903  0.00  0.00    +0.000 C 
ATOM      6  C   UNL     1       0.720   8.935  20.481  0.00  0.00    +0.000 C 
ENDROOT
BRANCH   4   7
ATOM      7  C   UNL     1       2.306   5.643  19.947  0.00  0.00    +0.000 A 
ATOM      8  C   UNL     1       1.200   4.920  20.453  0.00  0.00    +0.000 A 
ATOM      9  C   UNL     1       1.220   3.536  20.652  0.00  0.00    +0.000 A 
ATOM     10  C   UNL     1       2.368   2.821  20.362  0.00  0.00    +0.000 A 
ATOM     11  C   UNL     1       3.475   3.496  19.865  0.00  0.00    +0.000 A 
ATOM     12  F   UNL     1       4.576   2.779  19.589  0.00  0.00    +0.000 F 
ATOM     13  C   UNL     1       3.461   4.883  19.644  0.00  0.00    +0.000 A 
BRANCH  13  14
ATOM     14  C   UNL     1       4.641   5.443  19.058  0.00  0.00    +0.000 C 
ATOM     15  N   UNL     1       5.597   5.918  18.591  0.00  0.00    +0.000 NA
ENDBRANCH  13  14
ENDBRANCH   4   7
BRANCH   1  21
ATOM     16  C   UNL     1      -0.479  11.495  18.696  0.00  0.00    +0.000 A 
ATOM     17  C   UNL     1      -0.575  12.867  18.400  0.00  0.00    +0.000 A 
ATOM     18  C   UNL     1       0.557  13.677  18.362  0.00  0.00    +0.000 A 
ATOM     19  C   UNL     1       1.801  13.123  18.608  0.00  0.00    +0.000 A 
ATOM     20  C   UNL     1       1.908  11.759  18.881  0.00  0.00    +0.000 A 
ATOM     21  C   UNL     1       0.788  10.901  18.934  0.00  0.00    +0.000 A 
BRANCH  16  23
ATOM     22  C   UNL     1      -2.119  10.211  17.528  0.00  0.00    +0.000 C 
ATOM     23  O   UNL     1      -1.594  10.688  18.761  0.00  0.00    +0.000 OA
ENDBRANCH  16  23
ENDBRANCH   1  21
TORSDOF 4
ENDMDL
MODEL 2
REMARK VINA RESULT:      -6.3      2.144      2.705
REMARK  Name = 
REMARK  5 active torsions:
REMARK  status: ('A' for Active; 'I' for Inactive)
REMARK    1  A    between atoms: C_1  and  O_2
REMARK    2  A    between atoms: O_2  and  C_3
REMARK    3  A    between atoms: C_8  and  N_9
REMARK    4  A    between atoms: N_12  and  C_13
REMARK    5  A    between atoms: C_19  and  C_20
REMARK                            x       y       z     vdW  Elec       q    Type
REMARK                         _______ _______ _______ _____ _____    ______ ____
ROOT
ATOM      1  N   UNL     1       1.109   9.471  19.589  0.00  0.00    +0.000 N 
ATOM      2  C   UNL     1       1.141   9.162  18.154  0.00  0.00    +0.000 C 
ATOM      3  C   UNL     1       2.452   8.407  17.840  0.00  0.00    +0.000 C 
ATOM      4  N   UNL     1       2.560   7.175  18.659  0.00  0.00    +0.000 N 
ATOM      5  C   UNL     1       2.447   7.419  20.115  0.00  0.00    +0.000 C 
ATOM      6  C   UNL     1       1.205   8.283  20.460  0.00  0.00    +0.000 C 
ENDROOT
BRANCH   4   7
ATOM      7  C   UNL     1       2.783   5.933  18.089  0.00  0.00    +0.000 A 
ATOM      8  C   UNL     1       1.769   4.951  18.182  0.00  0.00    +0.000 A 
ATOM      9  C   UNL     1       1.904   3.662  17.657  0.00  0.00    +0.000 A 
ATOM     10  C   UNL     1       3.080   3.303  17.024  0.00  0.00    +0.000 A 
ATOM     11  C   UNL     1       4.100   4.239  16.914  0.00  0.00    +0.000 A 
ATOM     12  F   UNL     1       5.230   3.865  16.293  0.00  0.00    +0.000 F 
ATOM     13  C   UNL     1       3.970   5.541  17.422  0.00  0.00    +0.000 A 
BRANCH  13  14
ATOM     14  C   UNL     1       5.065   6.430  17.174  0.00  0.00    +0.000 C 
ATOM     15  N   UNL     1       5.969   7.135  16.971  0.00  0.00    +0.000 NA
ENDBRANCH  13  14
ENDBRANCH   4   7
BRANCH   1  21
ATOM     16  C   UNL     1       1.278  11.955  19.622  0.00  0.00    +0.000 A 
ATOM     17  C   UNL     1       0.909  13.160  20.249  0.00  0.00    +0.000 A 
ATOM     18  C   UNL     1       0.014  13.171  21.316  0.00  0.00    +0.000 A 
ATOM     19  C   UNL     1      -0.514  11.977  21.777  0.00  0.00    +0.000 A 
ATOM     20  C   UNL     1      -0.136  10.777  21.175  0.00  0.00    +0.000 A 
ATOM     21  C   UNL     1       0.764  10.718  20.089  0.00  0.00    +0.000 A 
BRANCH  16  23
ATOM     22  C   UNL     1       2.749  13.167  18.181  0.00  0.00    +0.000 C 
ATOM     23  O   UNL     1       2.143  11.933  18.549  0.00  0.00    +0.000 OA
ENDBRANCH  16  23
ENDBRANCH   1  21
TORSDOF 4
ENDMDL
MODEL 3
REMARK VINA RESULT:      -6.3      1.819      1.888
REMARK  Name = 
REMARK  5 active torsions:
REMARK  status: ('A' for Active; 'I' for Inactive)
REMARK    1  A    between atoms: C_1  and  O_2
REMARK    2  A    between atoms: O_2  and  C_3
REMARK    3  A    between atoms: C_8  and  N_9
REMARK    4  A    between atoms: N_12  and  C_13
REMARK    5  A    between atoms: C_19  and  C_20
REMARK                            x       y       z     vdW  Elec       q    Type
REMARK                         _______ _______ _______ _____ _____    ______ ____
ROOT
ATOM      1  N   UNL     1       0.941   9.679  19.275  0.00  0.00    +0.000 N 
ATOM      2  C   UNL     1       1.150   9.317  17.867  0.00  0.00    +0.000 C 
ATOM      3  C   UNL     1       2.472   8.526  17.751  0.00  0.00    +0.000 C 
ATOM      4  N   UNL     1       2.446   7.324  18.619  0.00  0.00    +0.000 N 
ATOM      5  C   UNL     1       2.153   7.623  20.039  0.00  0.00    +0.000 C 
ATOM      6  C   UNL     1       0.897   8.522  20.191  0.00  0.00    +0.000 C 
ENDROOT
BRANCH   4   7
ATOM      7  C   UNL     1       2.711   6.058  18.125  0.00  0.00    +0.000 A 
ATOM      8  C   UNL     1       1.678   5.091  18.144  0.00  0.00    +0.000 A 
ATOM      9  C   UNL     1       1.850   3.780  17.688  0.00  0.00    +0.000 A 
ATOM     10  C   UNL     1       3.083   3.384  17.201  0.00  0.00    +0.000 A 
ATOM     11  C   UNL     1       4.122   4.304  17.166  0.00  0.00    +0.000 A 
ATOM     12  F   UNL     1       5.307   3.894  16.688  0.00  0.00    +0.000 F 
ATOM     13  C   UNL     1       3.957   5.627  17.607  0.00  0.00    +0.000 A 
BRANCH  13  14
ATOM     14  C   UNL     1       5.085   6.493  17.446  0.00  0.00    +0.000 C 
ATOM     15  N   UNL     1       6.017   7.180  17.320  0.00  0.00    +0.000 NA
ENDBRANCH  13  14
ENDBRANCH   4   7
BRANCH   1  21
ATOM     16  C   UNL     1      -0.713  11.529  19.472  0.00  0.00    +0.000 A 
ATOM     17  C   UNL     1      -0.967  12.855  19.870  0.00  0.00    +0.000 A 
ATOM     18  C   UNL     1       0.012  13.616  20.503  0.00  0.00    +0.000 A 
ATOM     19  C   UNL     1       1.261  13.066  20.736  0.00  0.00    +0.000 A 
ATOM     20  C   UNL     1       1.527  11.759  20.325  0.00  0.00    +0.000 A 
ATOM     21  C   UNL     1       0.564  10.950  19.684  0.00  0.00    +0.000 A 
BRANCH  16  23
ATOM     22  C   UNL     1      -2.474  11.383  17.864  0.00  0.00    +0.000 C 
ATOM     23  O   UNL     1      -1.682  10.757  18.867  0.00  0.00    +0.000 OA
ENDBRANCH  16  23
ENDBRANCH   1  21
TORSDOF 4
ENDMDL
MODEL 4
REMARK VINA RESULT:      -6.2      2.099      2.504
REMARK  Name = 
REMARK  5 active torsions:
REMARK  status: ('A' for Active; 'I' for Inactive)
REMARK    1  A    between atoms: C_1  and  O_2
REMARK    2  A    between atoms: O_2  and  C_3
REMARK    3  A    between atoms: C_8  and  N_9
REMARK    4  A    between atoms: N_12  and  C_13
REMARK    5  A    between atoms: C_19  and  C_20
REMARK                            x       y       z     vdW  Elec       q    Type
REMARK                         _______ _______ _______ _____ _____    ______ ____
ROOT
ATOM      1  N   UNL     1       1.085   9.577  19.379  0.00  0.00    +0.000 N 
ATOM      2  C   UNL     1       1.282   9.248  17.961  0.00  0.00    +0.000 C 
ATOM      3  C   UNL     1       2.584   8.429  17.819  0.00  0.00    +0.000 C 
ATOM      4  N   UNL     1       2.530   7.205  18.654  0.00  0.00    +0.000 N 
ATOM      5  C   UNL     1       2.248   7.472  20.083  0.00  0.00    +0.000 C 
ATOM      6  C   UNL     1       1.015   8.397  20.263  0.00  0.00    +0.000 C 
ENDROOT
BRANCH   4   7
ATOM      7  C   UNL     1       2.764   5.946  18.125  0.00  0.00    +0.000 A 
ATOM      8  C   UNL     1       1.715   4.996  18.144  0.00  0.00    +0.000 A 
ATOM      9  C   UNL     1       1.855   3.694  17.654  0.00  0.00    +0.000 A 
ATOM     10  C   UNL     1       3.071   3.289  17.132  0.00  0.00    +0.000 A 
ATOM     11  C   UNL     1       4.124   4.192  17.097  0.00  0.00    +0.000 A 
ATOM     12  F   UNL     1       5.292   3.774  16.584  0.00  0.00    +0.000 F 
ATOM     13  C   UNL     1       3.991   5.507  17.571  0.00  0.00    +0.000 A 
BRANCH  13  14
ATOM     14  C   UNL     1       5.130   6.358  17.407  0.00  0.00    +0.000 C 
ATOM     15  N   UNL     1       6.044   7.069  17.279  0.00  0.00    +0.000 NA
ENDBRANCH  13  14
ENDBRANCH   4   7
BRANCH   1  21
ATOM     16  C   UNL     1       0.499  11.198  21.176  0.00  0.00    +0.000 A 
ATOM     17  C   UNL     1       0.087  12.502  21.507  0.00  0.00    +0.000 A 
ATOM     18  C   UNL     1      -0.064  13.480  20.527  0.00  0.00    +0.000 A 
ATOM     19  C   UNL     1       0.183  13.163  19.202  0.00  0.00    +0.000 A 
ATOM     20  C   UNL     1       0.571  11.866  18.863  0.00  0.00    +0.000 A 
ATOM     21  C   UNL     1       0.740  10.845  19.823  0.00  0.00    +0.000 A 
BRANCH  16  23
ATOM     22  C   UNL     1      -0.377  10.052  23.080  0.00  0.00    +0.000 C 
ATOM     23  O   UNL     1       0.676  10.229  22.140  0.00  0.00    +0.000 OA
ENDBRANCH  16  23
ENDBRANCH   1  21
TORSDOF 4
ENDMDL
MODEL 5
REMARK VINA RESULT:      -6.2      2.114      3.129
REMARK  Name = 
REMARK  5 active torsions:
REMARK  status: ('A' for Active; 'I' for Inactive)
REMARK    1  A    between atoms: C_1  and  O_2
REMARK    2  A    between atoms: O_2  and  C_3
REMARK    3  A    between atoms: C_8  and  N_9
REMARK    4  A    between atoms: N_12  and  C_13
REMARK    5  A    between atoms: C_19  and  C_20
REMARK                            x       y       z     vdW  Elec       q    Type
REMARK                         _______ _______ _______ _____ _____    ______ ____
ROOT
ATOM      1  N   UNL     1       1.255   9.274  19.563  0.00  0.00    +0.000 N 
ATOM      2  C   UNL     1       1.827   8.214  20.404  0.00  0.00    +0.000 C 
ATOM      3  C   UNL     1       1.826   6.892  19.604  0.00  0.00    +0.000 C 
ATOM      4  N   UNL     1       2.581   7.042  18.337  0.00  0.00    +0.000 N 
ATOM      5  C   UNL     1       2.100   8.155  17.486  0.00  0.00    +0.000 C 
ATOM      6  C   UNL     1       1.971   9.478  18.288  0.00  0.00    +0.000 C 
ENDROOT
BRANCH   4   7
ATOM      7  C   UNL     1       3.611   6.183  17.991  0.00  0.00    +0.000 A 
ATOM      8  C   UNL     1       4.929   6.691  17.934  0.00  0.00    +0.000 A 
ATOM      9  C   UNL     1       6.034   5.911  17.578  0.00  0.00    +0.000 A 
ATOM     10  C   UNL     1       5.851   4.580  17.248  0.00  0.00    +0.000 A 
ATOM     11  C   UNL     1       4.571   4.045  17.291  0.00  0.00    +0.000 A 
ATOM     12  F   UNL     1       4.422   2.750  16.969  0.00  0.00    +0.000 F 
ATOM     13  C   UNL     1       3.457   4.813  17.664  0.00  0.00    +0.000 A 
BRANCH  13  14
ATOM     14  C   UNL     1       2.207   4.121  17.740  0.00  0.00    +0.000 C 
ATOM     15  N   UNL     1       1.185   3.562  17.781  0.00  0.00    +0.000 NA
ENDBRANCH  13  14
ENDBRANCH   4   7
BRANCH   1  21
ATOM     16  C   UNL     1      -0.830  10.604  19.283  0.00  0.00    +0.000 A 
ATOM     17  C   UNL     1      -1.698  11.574  19.819  0.00  0.00    +0.000 A 
ATOM     18  C   UNL     1      -1.485  12.109  21.087  0.00  0.00    +0.000 A 
ATOM     19  C   UNL     1      -0.395  11.690  21.830  0.00  0.00    +0.000 A 
ATOM     20  C   UNL     1       0.482  10.745  21.298  0.00  0.00    +0.000 A 
ATOM     21  C   UNL     1       0.303  10.173  20.020  0.00  0.00    +0.000 A 
BRANCH  16  23
ATOM     22  C   UNL     1      -2.386  10.019  17.568  0.00  0.00    +0.000 C 
ATOM     23  O   UNL     1      -1.045  10.049  18.040  0.00  0.00    +0.000 OA
ENDBRANCH  16  23
ENDBRANCH   1  21
TORSDOF 4
ENDMDL
MODEL 6
REMARK VINA RESULT:      -6.1      2.488      3.776
REMARK  Name = 
REMARK  5 active torsions:
REMARK  status: ('A' for Active; 'I' for Inactive)
REMARK    1  A    between atoms: C_1  and  O_2
REMARK    2  A    between atoms: O_2  and  C_3
REMARK    3  A    between atoms: C_8  and  N_9
REMARK    4  A    between atoms: N_12  and  C_13
REMARK    5  A    between atoms: C_19  and  C_20
REMARK                            x       y       z     vdW  Elec       q    Type
REMARK                         _______ _______ _______ _____ _____    ______ ____
ROOT
ATOM      1  N   UNL     1       1.896   7.820  19.492  0.00  0.00    +0.000 N 
ATOM      2  C   UNL     1       2.185   8.079  18.076  0.00  0.00    +0.000 C 
ATOM      3  C   UNL     1       3.683   7.803  17.817  0.00  0.00    +0.000 C 
ATOM      4  N   UNL     1       4.036   6.413  18.193  0.00  0.00    +0.000 N 
ATOM      5  C   UNL     1       3.687   6.069  19.591  0.00  0.00    +0.000 C 
ATOM      6  C   UNL     1       2.219   6.447  19.927  0.00  0.00    +0.000 C 
ENDROOT
BRANCH   4   7
ATOM      7  C   UNL     1       4.666   5.553  17.310  0.00  0.00    +0.000 A 
ATOM      8  C   UNL     1       3.985   4.383  16.899  0.00  0.00    +0.000 A 
ATOM      9  C   UNL     1       4.541   3.442  16.027  0.00  0.00    +0.000 A 
ATOM     10  C   UNL     1       5.822   3.636  15.541  0.00  0.00    +0.000 A 
ATOM     11  C   UNL     1       6.523   4.771  15.923  0.00  0.00    +0.000 A 
ATOM     12  F   UNL     1       7.763   4.936  15.436  0.00  0.00    +0.000 F 
ATOM     13  C   UNL     1       5.969   5.731  16.785  0.00  0.00    +0.000 A 
BRANCH  13  14
ATOM     14  C   UNL     1       6.769   6.891  17.038  0.00  0.00    +0.000 C 
ATOM     15  N   UNL     1       7.401   7.845  17.255  0.00  0.00    +0.000 NA
ENDBRANCH  13  14
ENDBRANCH   4   7
BRANCH   1  21
ATOM     16  C   UNL     1       0.344   9.742  19.803  0.00  0.00    +0.000 A 
ATOM     17  C   UNL     1      -0.311  10.602  20.704  0.00  0.00    +0.000 A 
ATOM     18  C   UNL     1      -0.204  10.420  22.080  0.00  0.00    +0.000 A 
ATOM     19  C   UNL     1       0.570   9.384  22.574  0.00  0.00    +0.000 A 
ATOM     20  C   UNL     1       1.240   8.540  21.688  0.00  0.00    +0.000 A 
ATOM     21  C   UNL     1       1.157   8.684  20.286  0.00  0.00    +0.000 A 
BRANCH  16  23
ATOM     22  C   UNL     1      -1.067  10.211  17.934  0.00  0.00    +0.000 C 
ATOM     23  O   UNL     1       0.225   9.896  18.439  0.00  0.00    +0.000 OA
ENDBRANCH  16  23
ENDBRANCH   1  21
TORSDOF 4
ENDMDL
MODEL 7
REMARK VINA RESULT:      -6.1      3.275      7.883
REMARK  Name = 
REMARK  5 active torsions:
REMARK  status: ('A' for Active; 'I' for Inactive)
REMARK    1  A    between atoms: C_1  and  O_2
REMARK    2  A    between atoms: O_2  and  C_3
REMARK    3  A    between atoms: C_8  and  N_9
REMARK    4  A    between atoms: N_12  and  C_13
REMARK    5  A    between atoms: C_19  and  C_20
REMARK                            x       y       z     vdW  Elec       q    Type
REMARK                         _______ _______ _______ _____ _____    ______ ____
ROOT
ATOM      1  N   UNL     1       2.147   7.072  19.670  0.00  0.00    +0.000 N 
ATOM      2  C   UNL     1       2.622   7.715  18.438  0.00  0.00    +0.000 C 
ATOM      3  C   UNL     1       1.536   8.695  17.941  0.00  0.00    +0.000 C 
ATOM      4  N   UNL     1       1.214   9.699  18.984  0.00  0.00    +0.000 N 
ATOM      5  C   UNL     1       0.811   9.103  20.279  0.00  0.00    +0.000 C 
ATOM      6  C   UNL     1       1.817   8.021  20.752  0.00  0.00    +0.000 C 
ENDROOT
BRANCH   4   7
ATOM      7  C   UNL     1       1.260  11.060  18.731  0.00  0.00    +0.000 A 
ATOM      8  C   UNL     1       2.515  11.663  18.484  0.00  0.00    +0.000 A 
ATOM      9  C   UNL     1       2.671  13.030  18.237  0.00  0.00    +0.000 A 
ATOM     10  C   UNL     1       1.560  13.855  18.242  0.00  0.00    +0.000 A 
ATOM     11  C   UNL     1       0.310  13.300  18.481  0.00  0.00    +0.000 A 
ATOM     12  F   UNL     1      -0.752  14.122  18.478  0.00  0.00    +0.000 F 
ATOM     13  C   UNL     1       0.139  11.926  18.714  0.00  0.00    +0.000 A 
BRANCH  13  14
ATOM     14  C   UNL     1      -1.209  11.473  18.872  0.00  0.00    +0.000 C 
ATOM     15  N   UNL     1      -2.300  11.091  19.018  0.00  0.00    +0.000 NA
ENDBRANCH  13  14
ENDBRANCH   4   7
BRANCH   1  21
ATOM     16  C   UNL     1       3.431   4.943  19.800  0.00  0.00    +0.000 A 
ATOM     17  C   UNL     1       3.397   3.548  19.986  0.00  0.00    +0.000 A 
ATOM     18  C   UNL     1       2.209   2.892  20.298  0.00  0.00    +0.000 A 
ATOM     19  C   UNL     1       1.038   3.620  20.416  0.00  0.00    +0.000 A 
ATOM     20  C   UNL     1       1.058   5.000  20.211  0.00  0.00    +0.000 A 
ATOM     21  C   UNL     1       2.239   5.707  19.898  0.00  0.00    +0.000 A 
BRANCH  16  23
ATOM     22  C   UNL     1       5.372   5.123  18.419  0.00  0.00    +0.000 C 
ATOM     23  O   UNL     1       4.605   5.607  19.515  0.00  0.00    +0.000 OA
ENDBRANCH  16  23
ENDBRANCH   1  21
TORSDOF 4
ENDMDL
MODEL 8
REMARK VINA RESULT:      -6.1      3.610      7.742
REMARK  Name = 
REMARK  5 active torsions:
REMARK  status: ('A' for Active; 'I' for Inactive)
REMARK    1  A    between atoms: C_1  and  O_2
REMARK    2  A    between atoms: O_2  and  C_3
REMARK    3  A    between atoms: C_8  and  N_9
REMARK    4  A    between atoms: N_12  and  C_13
REMARK    5  A    between atoms: C_19  and  C_20
REMARK                            x       y       z     vdW  Elec       q    Type
REMARK                         _______ _______ _______ _____ _____    ______ ____
ROOT
ATOM      1  N   UNL     1       2.374   7.400  18.552  0.00  0.00    +0.000 N 
ATOM      2  C   UNL     1       2.380   8.606  17.714  0.00  0.00    +0.000 C 
ATOM      3  C   UNL     1       1.025   9.329  17.877  0.00  0.00    +0.000 C 
ATOM      4  N   UNL     1       0.773   9.663  19.300  0.00  0.00    +0.000 N 
ATOM      5  C   UNL     1       0.840   8.493  20.206  0.00  0.00    +0.000 C 
ATOM      6  C   UNL     1       2.136   7.668  19.984  0.00  0.00    +0.000 C 
ENDROOT
BRANCH   4   7
ATOM      7  C   UNL     1       0.469  10.951  19.708  0.00  0.00    +0.000 A 
ATOM      8  C   UNL     1       1.451  11.692  20.406  0.00  0.00    +0.000 A 
ATOM      9  C   UNL     1       1.237  12.991  20.877  0.00  0.00    +0.000 A 
ATOM     10  C   UNL     1       0.009  13.596  20.674  0.00  0.00    +0.000 A 
ATOM     11  C   UNL     1      -0.981  12.900  19.994  0.00  0.00    +0.000 A 
ATOM     12  F   UNL     1      -2.162  13.511  19.808  0.00  0.00    +0.000 F 
ATOM     13  C   UNL     1      -0.772  11.602  19.502  0.00  0.00    +0.000 A 
BRANCH  13  14
ATOM     14  C   UNL     1      -1.848  11.027  18.753  0.00  0.00    +0.000 C 
ATOM     15  N   UNL     1      -2.735  10.580  18.144  0.00  0.00    +0.000 NA
ENDBRANCH  13  14
ENDBRANCH   4   7
BRANCH   1  21
ATOM     16  C   UNL     1       4.100   5.880  17.597  0.00  0.00    +0.000 A 
ATOM     17  C   UNL     1       4.407   4.599  17.101  0.00  0.00    +0.000 A 
ATOM     18  C   UNL     1       3.464   3.574  17.121  0.00  0.00    +0.000 A 
ATOM     19  C   UNL     1       2.198   3.821  17.624  0.00  0.00    +0.000 A 
ATOM     20  C   UNL     1       1.878   5.094  18.097  0.00  0.00    +0.000 A 
ATOM     21  C   UNL     1       2.803   6.161  18.101  0.00  0.00    +0.000 A 
BRANCH  16  23
ATOM     22  C   UNL     1       6.335   6.581  17.129  0.00  0.00    +0.000 C 
ATOM     23  O   UNL     1       5.032   6.896  17.606  0.00  0.00    +0.000 OA
ENDBRANCH  16  23
ENDBRANCH   1  21
TORSDOF 4
ENDMDL
MODEL 9
REMARK VINA RESULT:      -6.0      1.380      1.478
REMARK  Name = 
REMARK  5 active torsions:
REMARK  status: ('A' for Active; 'I' for Inactive)
REMARK    1  A    between atoms: C_1  and  O_2
REMARK    2  A    between atoms: O_2  and  C_3
REMARK    3  A    between atoms: C_8  and  N_9
REMARK    4  A    between atoms: N_12  and  C_13
REMARK    5  A    between atoms: C_19  and  C_20
REMARK                            x       y       z     vdW  Elec       q    Type
REMARK                         _______ _______ _______ _____ _____    ______ ____
ROOT
ATOM      1  N   UNL     1       1.511   9.490  18.844  0.00  0.00    +0.000 N 
ATOM      2  C   UNL     1       1.740   8.758  17.591  0.00  0.00    +0.000 C 
ATOM      3  C   UNL     1       2.880   7.740  17.814  0.00  0.00    +0.000 C 
ATOM      4  N   UNL     1       2.552   6.816  18.926  0.00  0.00    +0.000 N 
ATOM      5  C   UNL     1       2.228   7.506  20.196  0.00  0.00    +0.000 C 
ATOM      6  C   UNL     1       1.171   8.624  19.990  0.00  0.00    +0.000 C 
ENDROOT
BRANCH   4   7
ATOM      7  C   UNL     1       2.591   5.440  18.772  0.00  0.00    +0.000 A 
ATOM      8  C   UNL     1       1.405   4.765  18.398  0.00  0.00    +0.000 A 
ATOM      9  C   UNL     1       1.334   3.378  18.236  0.00  0.00    +0.000 A 
ATOM     10  C   UNL     1       2.461   2.607  18.458  0.00  0.00    +0.000 A 
ATOM     11  C   UNL     1       3.644   3.233  18.826  0.00  0.00    +0.000 A 
ATOM     12  F   UNL     1       4.724   2.462  19.033  0.00  0.00    +0.000 F 
ATOM     13  C   UNL     1       3.732   4.627  18.977  0.00  0.00    +0.000 A 
BRANCH  13  14
ATOM     14  C   UNL     1       5.028   5.150  19.286  0.00  0.00    +0.000 C 
ATOM     15  N   UNL     1       6.086   5.558  19.551  0.00  0.00    +0.000 NA
ENDBRANCH  13  14
ENDBRANCH   4   7
BRANCH   1  21
ATOM     16  C   UNL     1       0.333  11.554  19.586  0.00  0.00    +0.000 A 
ATOM     17  C   UNL     1       0.247  12.958  19.522  0.00  0.00    +0.000 A 
ATOM     18  C   UNL     1       1.187  13.705  18.817  0.00  0.00    +0.000 A 
ATOM     19  C   UNL     1       2.217  13.058  18.156  0.00  0.00    +0.000 A 
ATOM     20  C   UNL     1       2.297  11.666  18.196  0.00  0.00    +0.000 A 
ATOM     21  C   UNL     1       1.370  10.868  18.902  0.00  0.00    +0.000 A 
BRANCH  16  23
ATOM     22  C   UNL     1      -1.038  11.351  21.531  0.00  0.00    +0.000 C 
ATOM     23  O   UNL     1      -0.577  10.806  20.301  0.00  0.00    +0.000 OA
ENDBRANCH  16  23
ENDBRANCH   1  21
TORSDOF 4
ENDMDL
