MODEL 1
REMARK VINA RESULT:      -8.5      0.000      0.000
REMARK  Name = 
REMARK  5 active torsions:
REMARK  status: ('A' for Active; 'I' for Inactive)
REMARK    1  A    between atoms: C_2  and  C_3
REMARK    2  A    between atoms: C_2  and  C_17
REMARK    3  A    between atoms: C_6  and  C_7
REMARK    4  A    between atoms: C_11  and  O_12
REMARK    5  A    between atoms: C_23  and  O_24
REMARK                            x       y       z     vdW  Elec       q    Type
REMARK                         _______ _______ _______ _____ _____    ______ ____
ROOT
ATOM      1  C   UNL     1       0.959   9.546  19.257  0.00  0.00    +0.000 A 
ATOM      2  C   UNL     1       0.880   9.178  20.583  0.00  0.00    +0.000 A 
ATOM      3  C   UNL     1       1.493   7.919  20.837  0.00  0.00    +0.000 A 
ATOM      4  C   UNL     1       2.081   7.372  19.710  0.00  0.00    +0.000 A 
ATOM      5  S   UNL     1       1.883   8.419  18.362  0.00  0.00    +0.000 S 
ENDROOT
BRANCH   4   6
ATOM      6  C   UNL     1       2.808   6.095  19.602  0.00  0.00    +0.000 A 
ATOM      7  C   UNL     1       2.418   5.003  20.396  0.00  0.00    +0.000 A 
ATOM      8  C   UNL     1       3.144   3.809  20.375  0.00  0.00    +0.000 A 
ATOM      9 CL   UNL     1       2.647   2.510  21.396  0.00  0.00    +0.000 Cl
ATOM     10  C   UNL     1       4.265   3.677  19.556  0.00  0.00    +0.000 A 
ATOM     11  C   UNL     1       4.650   4.745  18.746  0.00  0.00    +0.000 A 
ATOM     12 CL   UNL     1       6.034   4.641  17.719  0.00  0.00    +0.000 Cl
ATOM     13  C   UNL     1       3.927   5.943  18.768  0.00  0.00    +0.000 A 
BRANCH  10  14
ATOM     14  O   UNL     1       4.994   2.516  19.549  0.00  0.00    +0.000 OA
ATOM     15  H   UNL     1       4.467   1.827  19.995  0.00  0.00    +0.000 HD
ENDBRANCH  10  14
ENDBRANCH   4   6
BRANCH   1  17
ATOM     16  O   UNL     1       1.077  11.809  18.673  0.00  0.00    +0.000 OA
ATOM     17  C   UNL     1       0.415  10.772  18.688  0.00  0.00    +0.000 C 
BRANCH  17  18
ATOM     18  C   UNL     1      -1.001  10.854  18.226  0.00  0.00    +0.000 A 
ATOM     19  C   UNL     1      -1.481  10.031  17.192  0.00  0.00    +0.000 A 
ATOM     20  C   UNL     1      -2.824  10.083  16.828  0.00  0.00    +0.000 A 
ATOM     21  F   UNL     1      -3.256   9.306  15.827  0.00  0.00    +0.000 F 
ATOM     22  C   UNL     1      -3.706  10.914  17.498  0.00  0.00    +0.000 A 
ATOM     23  F   UNL     1      -5.004  10.946  17.160  0.00  0.00    +0.000 F 
ATOM     24  C   UNL     1      -3.252  11.714  18.538  0.00  0.00    +0.000 A 
ATOM     25  C   UNL     1      -1.902  11.691  18.897  0.00  0.00    +0.000 A 
ATOM     26  F   UNL     1      -1.490  12.487  19.893  0.00  0.00    +0.000 F 
BRANCH  24  27
ATOM     27  O   UNL     1      -4.125  12.518  19.220  0.00  0.00    +0.000 OA
ATOM     28  H   UNL     1      -3.643  12.929  19.962  0.00  0.00    +0.000 HD
ENDBRANCH  24  27
ENDBRANCH  17  18
ENDBRANCH   1  17
TORSDOF 5
ENDMDL
MODEL 2
REMARK VINA RESULT:      -8.3      0.222      1.785
REMARK  Name = 
REMARK  5 active torsions:
REMARK  status: ('A' for Active; 'I' for Inactive)
REMARK    1  A    between atoms: C_2  and  C_3
REMARK    2  A    between atoms: C_2  and  C_17
REMARK    3  A    between atoms: C_6  and  C_7
REMARK    4  A    between atoms: C_11  and  O_12
REMARK    5  A    between atoms: C_23  and  O_24
REMARK                            x       y       z     vdW  Elec       q    Type
REMARK                         _______ _______ _______ _____ _____    ______ ____
ROOT
ATOM      1  C   UNL     1       0.909   9.551  19.357  0.00  0.00    +0.000 A 
ATOM      2  C   UNL     1       0.812   9.203  20.687  0.00  0.00    +0.000 A 
ATOM      3  C   UNL     1       1.405   7.940  20.965  0.00  0.00    +0.000 A 
ATOM      4  C   UNL     1       1.998   7.370  19.853  0.00  0.00    +0.000 A 
ATOM      5  S   UNL     1       1.828   8.400  18.488  0.00  0.00    +0.000 S 
ENDROOT
BRANCH   4   6
ATOM      6  C   UNL     1       2.710   6.082  19.770  0.00  0.00    +0.000 A 
ATOM      7  C   UNL     1       3.686   5.889  18.778  0.00  0.00    +0.000 A 
ATOM      8  C   UNL     1       4.313   4.650  18.623  0.00  0.00    +0.000 A 
ATOM      9 CL   UNL     1       5.478   4.452  17.366  0.00  0.00    +0.000 Cl
ATOM     10  C   UNL     1       3.987   3.583  19.461  0.00  0.00    +0.000 A 
ATOM     11  C   UNL     1       3.036   3.768  20.464  0.00  0.00    +0.000 A 
ATOM     12 CL   UNL     1       2.587   2.480  21.523  0.00  0.00    +0.000 Cl
ATOM     13  C   UNL     1       2.404   5.007  20.618  0.00  0.00    +0.000 A 
BRANCH  10  14
ATOM     14  O   UNL     1       4.583   2.359  19.299  0.00  0.00    +0.000 OA
ATOM     15  H   UNL     1       5.527   2.452  19.524  0.00  0.00    +0.000 HD
ENDBRANCH  10  14
ENDBRANCH   4   6
BRANCH   1  17
ATOM     16  O   UNL     1       1.060  11.806  18.749  0.00  0.00    +0.000 OA
ATOM     17  C   UNL     1       0.388  10.776  18.765  0.00  0.00    +0.000 C 
BRANCH  17  18
ATOM     18  C   UNL     1      -1.020  10.867  18.280  0.00  0.00    +0.000 A 
ATOM     19  C   UNL     1      -1.490  10.042  17.243  0.00  0.00    +0.000 A 
ATOM     20  C   UNL     1      -2.827  10.104  16.857  0.00  0.00    +0.000 A 
ATOM     21  F   UNL     1      -3.249   9.325  15.853  0.00  0.00    +0.000 F 
ATOM     22  C   UNL     1      -3.713  10.946  17.508  0.00  0.00    +0.000 A 
ATOM     23  F   UNL     1      -5.005  10.987  17.150  0.00  0.00    +0.000 F 
ATOM     24  C   UNL     1      -3.269  11.748  18.551  0.00  0.00    +0.000 A 
ATOM     25  C   UNL     1      -1.925  11.716  18.933  0.00  0.00    +0.000 A 
ATOM     26  F   UNL     1      -1.522  12.514  19.930  0.00  0.00    +0.000 F 
BRANCH  24  27
ATOM     27  O   UNL     1      -4.145  12.562  19.215  0.00  0.00    +0.000 OA
ATOM     28  H   UNL     1      -4.491  13.218  18.581  0.00  0.00    +0.000 HD
ENDBRANCH  24  27
ENDBRANCH  17  18
ENDBRANCH   1  17
TORSDOF 5
ENDMDL
MODEL 3
REMARK VINA RESULT:      -8.3      1.418      2.217
REMARK  Name = 
REMARK  5 active torsions:
REMARK  status: ('A' for Active; 'I' for Inactive)
REMARK    1  A    between atoms: C_2  and  C_3
REMARK    2  A    between atoms: C_2  and  C_17
REMARK    3  A    between atoms: C_6  and  C_7
REMARK    4  A    between atoms: C_11  and  O_12
REMARK    5  A    between atoms: C_23  and  O_24
REMARK                            x       y       z     vdW  Elec       q    Type
REMARK                         _______ _______ _______ _____ _____    ______ ____
ROOT
ATOM      1  C   UNL     1       1.093   9.535  19.054  0.00  0.00    +0.000 A 
ATOM      2  C   UNL     1       1.185   8.814  20.225  0.00  0.00    +0.000 A 
ATOM      3  C   UNL     1       1.908   7.599  20.062  0.00  0.00    +0.000 A 
ATOM      4  C   UNL     1       2.406   7.440  18.781  0.00  0.00    +0.000 A 
ATOM      5  S   UNL     1       1.990   8.790  17.803  0.00  0.00    +0.000 S 
ENDROOT
BRANCH   4   6
ATOM      6  C   UNL     1       3.205   6.317  18.257  0.00  0.00    +0.000 A 
ATOM      7  C   UNL     1       4.484   6.560  17.729  0.00  0.00    +0.000 A 
ATOM      8  C   UNL     1       5.224   5.528  17.147  0.00  0.00    +0.000 A 
ATOM      9 CL   UNL     1       6.775   5.883  16.479  0.00  0.00    +0.000 Cl
ATOM     10  C   UNL     1       4.709   4.233  17.091  0.00  0.00    +0.000 A 
ATOM     11  C   UNL     1       3.451   3.973  17.632  0.00  0.00    +0.000 A 
ATOM     12 CL   UNL     1       2.759   2.391  17.582  0.00  0.00    +0.000 Cl
ATOM     13  C   UNL     1       2.705   5.006  18.211  0.00  0.00    +0.000 A 
BRANCH  10  14
ATOM     14  O   UNL     1       5.423   3.221  16.501  0.00  0.00    +0.000 OA
ATOM     15  H   UNL     1       6.212   3.051  17.048  0.00  0.00    +0.000 HD
ENDBRANCH  10  14
ENDBRANCH   4   6
BRANCH   1  17
ATOM     16  O   UNL     1       0.925  11.858  19.286  0.00  0.00    +0.000 OA
ATOM     17  C   UNL     1       0.407  10.811  18.900  0.00  0.00    +0.000 C 
BRANCH  17  18
ATOM     18  C   UNL     1      -0.996  10.884  18.398  0.00  0.00    +0.000 A 
ATOM     19  C   UNL     1      -1.444  10.049  17.359  0.00  0.00    +0.000 A 
ATOM     20  C   UNL     1      -2.776  10.094  16.956  0.00  0.00    +0.000 A 
ATOM     21  F   UNL     1      -3.177   9.305  15.950  0.00  0.00    +0.000 F 
ATOM     22  C   UNL     1      -3.680  10.929  17.592  0.00  0.00    +0.000 A 
ATOM     23  F   UNL     1      -4.968  10.953  17.217  0.00  0.00    +0.000 F 
ATOM     24  C   UNL     1      -3.258  11.740  18.637  0.00  0.00    +0.000 A 
ATOM     25  C   UNL     1      -1.919  11.725  19.035  0.00  0.00    +0.000 A 
ATOM     26  F   UNL     1      -1.538  12.532  20.034  0.00  0.00    +0.000 F 
BRANCH  24  27
ATOM     27  O   UNL     1      -4.152  12.547  19.286  0.00  0.00    +0.000 OA
ATOM     28  H   UNL     1      -3.650  13.226  19.775  0.00  0.00    +0.000 HD
ENDBRANCH  24  27
ENDBRANCH  17  18
ENDBRANCH   1  17
TORSDOF 5
ENDMDL
MODEL 4
REMARK VINA RESULT:      -8.3      1.476      1.541
REMARK  Name = 
REMARK  5 active torsions:
REMARK  status: ('A' for Active; 'I' for Inactive)
REMARK    1  A    between atoms: C_2  and  C_3
REMARK    2  A    between atoms: C_2  and  C_17
REMARK    3  A    between atoms: C_6  and  C_7
REMARK    4  A    between atoms: C_11  and  O_12
REMARK    5  A    between atoms: C_23  and  O_24
REMARK                            x       y       z     vdW  Elec       q    Type
REMARK                         _______ _______ _______ _____ _____    ______ ____
ROOT
ATOM      1  C   UNL     1       1.052   9.541  19.124  0.00  0.00    +0.000 A 
ATOM      2  C   UNL     1       1.215   8.771  20.256  0.00  0.00    +0.000 A 
ATOM      3  C   UNL     1       1.952   7.581  20.004  0.00  0.00    +0.000 A 
ATOM      4  C   UNL     1       2.390   7.488  18.695  0.00  0.00    +0.000 A 
ATOM      5  S   UNL     1       1.900   8.870  17.799  0.00  0.00    +0.000 S 
ENDROOT
BRANCH   4   6
ATOM      6  C   UNL     1       3.182   6.406  18.083  0.00  0.00    +0.000 A 
ATOM      7  C   UNL     1       2.651   5.106  18.017  0.00  0.00    +0.000 A 
ATOM      8  C   UNL     1       3.415   4.047  17.521  0.00  0.00    +0.000 A 
ATOM      9 CL   UNL     1       2.733   2.463  17.496  0.00  0.00    +0.000 Cl
ATOM     10  C   UNL     1       4.718   4.264  17.071  0.00  0.00    +0.000 A 
ATOM     11  C   UNL     1       5.248   5.553  17.109  0.00  0.00    +0.000 A 
ATOM     12 CL   UNL     1       6.858   5.878  16.575  0.00  0.00    +0.000 Cl
ATOM     13  C   UNL     1       4.487   6.615  17.610  0.00  0.00    +0.000 A 
BRANCH  10  14
ATOM     14  O   UNL     1       5.479   3.224  16.605  0.00  0.00    +0.000 OA
ATOM     15  H   UNL     1       4.883   2.475  16.416  0.00  0.00    +0.000 HD
ENDBRANCH  10  14
ENDBRANCH   4   6
BRANCH   1  17
ATOM     16  O   UNL     1       0.804  11.825  19.567  0.00  0.00    +0.000 OA
ATOM     17  C   UNL     1       0.335  10.807  19.061  0.00  0.00    +0.000 C 
BRANCH  17  18
ATOM     18  C   UNL     1      -1.046  10.893  18.503  0.00  0.00    +0.000 A 
ATOM     19  C   UNL     1      -1.460  10.061  17.447  0.00  0.00    +0.000 A 
ATOM     20  C   UNL     1      -2.775  10.117  16.992  0.00  0.00    +0.000 A 
ATOM     21  F   UNL     1      -3.143   9.331  15.972  0.00  0.00    +0.000 F 
ATOM     22  C   UNL     1      -3.695  10.960  17.591  0.00  0.00    +0.000 A 
ATOM     23  F   UNL     1      -4.967  10.996  17.165  0.00  0.00    +0.000 F 
ATOM     24  C   UNL     1      -3.308  11.769  18.651  0.00  0.00    +0.000 A 
ATOM     25  C   UNL     1      -1.986  11.742  19.102  0.00  0.00    +0.000 A 
ATOM     26  F   UNL     1      -1.637  12.547  20.114  0.00  0.00    +0.000 F 
BRANCH  24  27
ATOM     27  O   UNL     1      -4.220  12.585  19.264  0.00  0.00    +0.000 OA
ATOM     28  H   UNL     1      -5.079  12.123  19.281  0.00  0.00    +0.000 HD
ENDBRANCH  24  27
ENDBRANCH  17  18
ENDBRANCH   1  17
TORSDOF 5
ENDMDL
MODEL 5
REMARK VINA RESULT:      -8.1      5.208      9.325
REMARK  Name = 
REMARK  5 active torsions:
REMARK  status: ('A' for Active; 'I' for Inactive)
REMARK    1  A    between atoms: C_2  and  C_3
REMARK    2  A    between atoms: C_2  and  C_17
REMARK    3  A    between atoms: C_6  and  C_7
REMARK    4  A    between atoms: C_11  and  O_12
REMARK    5  A    between atoms: C_23  and  O_24
REMARK                            x       y       z     vdW  Elec       q    Type
REMARK                         _______ _______ _______ _____ _____    ______ ____
ROOT
ATOM      1  C   UNL     1       2.668   7.065  19.037  0.00  0.00    +0.000 A 
ATOM      2  C   UNL     1       2.839   7.778  17.870  0.00  0.00    +0.000 A 
ATOM      3  C   UNL     1       2.038   8.953  17.825  0.00  0.00    +0.000 A 
ATOM      4  C   UNL     1       1.309   9.149  18.985  0.00  0.00    +0.000 A 
ATOM      5  S   UNL     1       1.631   7.895  20.115  0.00  0.00    +0.000 S 
ENDROOT
BRANCH   4   6
ATOM      6  C   UNL     1       0.385  10.255  19.294  0.00  0.00    +0.000 A 
ATOM      7  C   UNL     1      -0.823  10.372  18.587  0.00  0.00    +0.000 A 
ATOM      8  C   UNL     1      -1.673  11.459  18.800  0.00  0.00    +0.000 A 
ATOM      9 CL   UNL     1      -3.128  11.577  17.879  0.00  0.00    +0.000 Cl
ATOM     10  C   UNL     1      -1.343  12.445  19.730  0.00  0.00    +0.000 A 
ATOM     11  C   UNL     1      -0.158  12.329  20.456  0.00  0.00    +0.000 A 
ATOM     12 CL   UNL     1       0.307  13.524  21.613  0.00  0.00    +0.000 Cl
ATOM     13  C   UNL     1       0.699  11.243  20.241  0.00  0.00    +0.000 A 
BRANCH  10  14
ATOM     14  O   UNL     1      -2.164  13.525  19.927  0.00  0.00    +0.000 OA
ATOM     15  H   UNL     1      -2.799  13.296  20.631  0.00  0.00    +0.000 HD
ENDBRANCH  10  14
ENDBRANCH   4   6
BRANCH   1  17
ATOM     16  O   UNL     1       2.912   5.087  20.263  0.00  0.00    +0.000 OA
ATOM     17  C   UNL     1       3.340   5.817  19.370  0.00  0.00    +0.000 C 
BRANCH  17  18
ATOM     18  C   UNL     1       4.639   5.441  18.740  0.00  0.00    +0.000 A 
ATOM     19  C   UNL     1       5.866   5.799  19.328  0.00  0.00    +0.000 A 
ATOM     20  C   UNL     1       7.062   5.377  18.752  0.00  0.00    +0.000 A 
ATOM     21  F   UNL     1       8.219   5.746  19.316  0.00  0.00    +0.000 F 
ATOM     22  C   UNL     1       7.059   4.576  17.622  0.00  0.00    +0.000 A 
ATOM     23  F   UNL     1       8.212   4.152  17.083  0.00  0.00    +0.000 F 
ATOM     24  C   UNL     1       5.855   4.193  17.046  0.00  0.00    +0.000 A 
ATOM     25  C   UNL     1       4.648   4.630  17.598  0.00  0.00    +0.000 A 
ATOM     26  F   UNL     1       3.503   4.260  17.009  0.00  0.00    +0.000 F 
BRANCH  24  27
ATOM     27  O   UNL     1       5.846   3.380  15.945  0.00  0.00    +0.000 OA
ATOM     28  H   UNL     1       6.425   2.617  16.126  0.00  0.00    +0.000 HD
ENDBRANCH  24  27
ENDBRANCH  17  18
ENDBRANCH   1  17
TORSDOF 5
ENDMDL
MODEL 6
REMARK VINA RESULT:      -8.1      5.130      9.350
REMARK  Name = 
REMARK  5 active torsions:
REMARK  status: ('A' for Active; 'I' for Inactive)
REMARK    1  A    between atoms: C_2  and  C_3
REMARK    2  A    between atoms: C_2  and  C_17
REMARK    3  A    between atoms: C_6  and  C_7
REMARK    4  A    between atoms: C_11  and  O_12
REMARK    5  A    between atoms: C_23  and  O_24
REMARK                            x       y       z     vdW  Elec       q    Type
REMARK                         _______ _______ _______ _____ _____    ______ ____
ROOT
ATOM      1  C   UNL     1       2.508   6.910  19.044  0.00  0.00    +0.000 A 
ATOM      2  C   UNL     1       2.538   7.661  17.888  0.00  0.00    +0.000 A 
ATOM      3  C   UNL     1       1.823   8.885  18.014  0.00  0.00    +0.000 A 
ATOM      4  C   UNL     1       1.307   9.076  19.284  0.00  0.00    +0.000 A 
ATOM      5  S   UNL     1       1.720   7.757  20.304  0.00  0.00    +0.000 S 
ENDROOT
BRANCH   4   6
ATOM      6  C   UNL     1       0.526  10.225  19.776  0.00  0.00    +0.000 A 
ATOM      7  C   UNL     1       0.433  11.389  18.996  0.00  0.00    +0.000 A 
ATOM      8  C   UNL     1      -0.228  12.521  19.477  0.00  0.00    +0.000 A 
ATOM      9 CL   UNL     1      -0.284  13.940  18.496  0.00  0.00    +0.000 Cl
ATOM     10  C   UNL     1      -0.819  12.512  20.741  0.00  0.00    +0.000 A 
ATOM     11  C   UNL     1      -0.754  11.355  21.517  0.00  0.00    +0.000 A 
ATOM     12 CL   UNL     1      -1.459  11.289  23.092  0.00  0.00    +0.000 Cl
ATOM     13  C   UNL     1      -0.088  10.221  21.038  0.00  0.00    +0.000 A 
BRANCH  10  14
ATOM     14  O   UNL     1      -1.450  13.628  21.227  0.00  0.00    +0.000 OA
ATOM     15  H   UNL     1      -2.054  13.345  21.939  0.00  0.00    +0.000 HD
ENDBRANCH  10  14
ENDBRANCH   4   6
BRANCH   1  17
ATOM     16  O   UNL     1       2.624   4.752  19.941  0.00  0.00    +0.000 OA
ATOM     17  C   UNL     1       3.137   5.608  19.222  0.00  0.00    +0.000 C 
BRANCH  17  18
ATOM     18  C   UNL     1       4.482   5.311  18.651  0.00  0.00    +0.000 A 
ATOM     19  C   UNL     1       5.659   5.708  19.311  0.00  0.00    +0.000 A 
ATOM     20  C   UNL     1       6.902   5.358  18.788  0.00  0.00    +0.000 A 
ATOM     21  F   UNL     1       8.010   5.764  19.421  0.00  0.00    +0.000 F 
ATOM     22  C   UNL     1       6.995   4.589  17.640  0.00  0.00    +0.000 A 
ATOM     23  F   UNL     1       8.192   4.233  17.151  0.00  0.00    +0.000 F 
ATOM     24  C   UNL     1       5.841   4.167  16.992  0.00  0.00    +0.000 A 
ATOM     25  C   UNL     1       4.588   4.532  17.491  0.00  0.00    +0.000 A 
ATOM     26  F   UNL     1       3.494   4.126  16.834  0.00  0.00    +0.000 F 
BRANCH  24  27
ATOM     27  O   UNL     1       5.927   3.385  15.872  0.00  0.00    +0.000 OA
ATOM     28  H   UNL     1       6.867   3.313  15.622  0.00  0.00    +0.000 HD
ENDBRANCH  24  27
ENDBRANCH  17  18
ENDBRANCH   1  17
TORSDOF 5
ENDMDL
MODEL 7
REMARK VINA RESULT:      -8.1      4.892      8.880
REMARK  Name = 
REMARK  5 active torsions:
REMARK  status: ('A' for Active; 'I' for Inactive)
REMARK    1  A    between atoms: C_2  and  C_3
REMARK    2  A    between atoms: C_2  and  C_17
REMARK    3  A    between atoms: C_6  and  C_7
REMARK    4  A    between atoms: C_11  and  O_12
REMARK    5  A    between atoms: C_23  and  O_24
REMARK                            x       y       z     vdW  Elec       q    Type
REMARK                         _______ _______ _______ _____ _____    ______ ____
ROOT
ATOM      1  C   UNL     1       2.386   7.807  18.762  0.00  0.00    +0.000 A 
ATOM      2  C   UNL     1       1.877   7.739  20.041  0.00  0.00    +0.000 A 
ATOM      3  C   UNL     1       1.130   8.897  20.393  0.00  0.00    +0.000 A 
ATOM      4  C   UNL     1       1.032   9.808  19.356  0.00  0.00    +0.000 A 
ATOM      5  S   UNL     1       1.847   9.219  17.962  0.00  0.00    +0.000 S 
ENDROOT
BRANCH   4   6
ATOM      6  C   UNL     1       0.332  11.105  19.357  0.00  0.00    +0.000 A 
ATOM      7  C   UNL     1       1.040  12.278  19.048  0.00  0.00    +0.000 A 
ATOM      8  C   UNL     1       0.421  13.528  19.126  0.00  0.00    +0.000 A 
ATOM      9 CL   UNL     1       1.344  14.943  18.773  0.00  0.00    +0.000 Cl
ATOM     10  C   UNL     1      -0.917  13.632  19.503  0.00  0.00    +0.000 A 
ATOM     11  C   UNL     1      -1.639  12.474  19.791  0.00  0.00    +0.000 A 
ATOM     12 CL   UNL     1      -3.296  12.543  20.272  0.00  0.00    +0.000 Cl
ATOM     13  C   UNL     1      -1.020  11.221  19.717  0.00  0.00    +0.000 A 
BRANCH  10  14
ATOM     14  O   UNL     1      -1.523  14.858  19.603  0.00  0.00    +0.000 OA
ATOM     15  H   UNL     1      -2.415  14.785  19.217  0.00  0.00    +0.000 HD
ENDBRANCH  10  14
ENDBRANCH   4   6
BRANCH   1  17
ATOM     16  O   UNL     1       3.962   7.066  17.199  0.00  0.00    +0.000 OA
ATOM     17  C   UNL     1       3.200   6.782  18.122  0.00  0.00    +0.000 C 
BRANCH  17  18
ATOM     18  C   UNL     1       3.044   5.339  18.464  0.00  0.00    +0.000 A 
ATOM     19  C   UNL     1       1.849   4.649  18.193  0.00  0.00    +0.000 A 
ATOM     20  C   UNL     1       1.757   3.286  18.463  0.00  0.00    +0.000 A 
ATOM     21  F   UNL     1       0.603   2.652  18.217  0.00  0.00    +0.000 F 
ATOM     22  C   UNL     1       2.843   2.589  18.965  0.00  0.00    +0.000 A 
ATOM     23  F   UNL     1       2.758   1.271  19.203  0.00  0.00    +0.000 F 
ATOM     24  C   UNL     1       4.037   3.251  19.214  0.00  0.00    +0.000 A 
ATOM     25  C   UNL     1       4.137   4.624  18.972  0.00  0.00    +0.000 A 
ATOM     26  F   UNL     1       5.297   5.239  19.239  0.00  0.00    +0.000 F 
BRANCH  24  27
ATOM     27  O   UNL     1       5.122   2.563  19.685  0.00  0.00    +0.000 OA
ATOM     28  H   UNL     1       5.564   2.135  18.928  0.00  0.00    +0.000 HD
ENDBRANCH  24  27
ENDBRANCH  17  18
ENDBRANCH   1  17
TORSDOF 5
ENDMDL
MODEL 8
REMARK VINA RESULT:      -8.1      5.124      9.192
REMARK  Name = 
REMARK  5 active torsions:
REMARK  status: ('A' for Active; 'I' for Inactive)
REMARK    1  A    between atoms: C_2  and  C_3
REMARK    2  A    between atoms: C_2  and  C_17
REMARK    3  A    between atoms: C_6  and  C_7
REMARK    4  A    between atoms: C_11  and  O_12
REMARK    5  A    between atoms: C_23  and  O_24
REMARK                            x       y       z     vdW  Elec       q    Type
REMARK                         _______ _______ _______ _____ _____    ______ ____
ROOT
ATOM      1  C   UNL     1       2.490   6.921  19.011  0.00  0.00    +0.000 A 
ATOM      2  C   UNL     1       2.499   7.686  17.864  0.00  0.00    +0.000 A 
ATOM      3  C   UNL     1       1.830   8.929  18.033  0.00  0.00    +0.000 A 
ATOM      4  C   UNL     1       1.368   9.119  19.324  0.00  0.00    +0.000 A 
ATOM      5  S   UNL     1       1.777   7.773  20.310  0.00  0.00    +0.000 S 
ENDROOT
BRANCH   4   6
ATOM      6  C   UNL     1       0.643  10.285  19.860  0.00  0.00    +0.000 A 
ATOM      7  C   UNL     1       0.033  10.203  21.124  0.00  0.00    +0.000 A 
ATOM      8  C   UNL     1      -0.733  11.262  21.617  0.00  0.00    +0.000 A 
ATOM      9 CL   UNL     1      -1.492  11.099  23.158  0.00  0.00    +0.000 Cl
ATOM     10  C   UNL     1      -0.897  12.426  20.867  0.00  0.00    +0.000 A 
ATOM     11  C   UNL     1      -0.278  12.529  19.621  0.00  0.00    +0.000 A 
ATOM     12 CL   UNL     1      -0.455  13.943  18.645  0.00  0.00    +0.000 Cl
ATOM     13  C   UNL     1       0.486  11.468  19.123  0.00  0.00    +0.000 A 
BRANCH  10  14
ATOM     14  O   UNL     1      -1.666  13.460  21.337  0.00  0.00    +0.000 OA
ATOM     15  H   UNL     1      -1.933  14.006  20.574  0.00  0.00    +0.000 HD
ENDBRANCH  10  14
ENDBRANCH   4   6
BRANCH   1  17
ATOM     16  O   UNL     1       2.525   4.719  19.803  0.00  0.00    +0.000 OA
ATOM     17  C   UNL     1       3.083   5.597  19.147  0.00  0.00    +0.000 C 
BRANCH  17  18
ATOM     18  C   UNL     1       4.444   5.297  18.615  0.00  0.00    +0.000 A 
ATOM     19  C   UNL     1       5.603   5.684  19.311  0.00  0.00    +0.000 A 
ATOM     20  C   UNL     1       6.858   5.331  18.822  0.00  0.00    +0.000 A 
ATOM     21  F   UNL     1       7.950   5.728  19.489  0.00  0.00    +0.000 F 
ATOM     22  C   UNL     1       6.981   4.569  17.672  0.00  0.00    +0.000 A 
ATOM     23  F   UNL     1       8.191   4.211  17.217  0.00  0.00    +0.000 F 
ATOM     24  C   UNL     1       5.845   4.157  16.988  0.00  0.00    +0.000 A 
ATOM     25  C   UNL     1       4.580   4.525  17.452  0.00  0.00    +0.000 A 
ATOM     26  F   UNL     1       3.503   4.128  16.761  0.00  0.00    +0.000 F 
BRANCH  24  27
ATOM     27  O   UNL     1       5.960   3.382  15.866  0.00  0.00    +0.000 OA
ATOM     28  H   UNL     1       6.444   3.893  15.191  0.00  0.00    +0.000 HD
ENDBRANCH  24  27
ENDBRANCH  17  18
ENDBRANCH   1  17
TORSDOF 5
ENDMDL
MODEL 9
REMARK VINA RESULT:      -8.1      0.854      2.071
REMARK  Name = 
REMARK  5 active torsions:
REMARK  status: ('A' for Active; 'I' for Inactive)
REMARK    1  A    between atoms: C_2  and  C_3
REMARK    2  A    between atoms: C_2  and  C_17
REMARK    3  A    between atoms: C_6  and  C_7
REMARK    4  A    between atoms: C_11  and  O_12
REMARK    5  A    between atoms: C_23  and  O_24
REMARK                            x       y       z     vdW  Elec       q    Type
REMARK                         _______ _______ _______ _____ _____    ______ ____
ROOT
ATOM      1  C   UNL     1       1.140   9.504  19.039  0.00  0.00    +0.000 A 
ATOM      2  C   UNL     1       1.796   9.397  17.831  0.00  0.00    +0.000 A 
ATOM      3  C   UNL     1       2.606   8.230  17.751  0.00  0.00    +0.000 A 
ATOM      4  C   UNL     1       2.511   7.434  18.878  0.00  0.00    +0.000 A 
ATOM      5  S   UNL     1       1.419   8.124  20.011  0.00  0.00    +0.000 S 
ENDROOT
BRANCH   4   6
ATOM      6  C   UNL     1       3.196   6.155  19.140  0.00  0.00    +0.000 A 
ATOM      7  C   UNL     1       4.436   5.893  18.534  0.00  0.00    +0.000 A 
ATOM      8  C   UNL     1       5.064   4.656  18.696  0.00  0.00    +0.000 A 
ATOM      9 CL   UNL     1       6.569   4.370  17.902  0.00  0.00    +0.000 Cl
ATOM     10  C   UNL     1       4.473   3.659  19.473  0.00  0.00    +0.000 A 
ATOM     11  C   UNL     1       3.253   3.914  20.099  0.00  0.00    +0.000 A 
ATOM     12 CL   UNL     1       2.471   2.715  21.065  0.00  0.00    +0.000 Cl
ATOM     13  C   UNL     1       2.620   5.151  19.934  0.00  0.00    +0.000 A 
BRANCH  10  14
ATOM     14  O   UNL     1       5.074   2.436  19.618  0.00  0.00    +0.000 OA
ATOM     15  H   UNL     1       4.382   1.751  19.554  0.00  0.00    +0.000 HD
ENDBRANCH  10  14
ENDBRANCH   4   6
BRANCH   1  17
ATOM     16  O   UNL     1       0.511  11.311  20.386  0.00  0.00    +0.000 OA
ATOM     17  C   UNL     1       0.250  10.591  19.423  0.00  0.00    +0.000 C 
BRANCH  17  18
ATOM     18  C   UNL     1      -1.068  10.790  18.754  0.00  0.00    +0.000 A 
ATOM     19  C   UNL     1      -1.453  10.008  17.651  0.00  0.00    +0.000 A 
ATOM     20  C   UNL     1      -2.717  10.171  17.089  0.00  0.00    +0.000 A 
ATOM     21  F   UNL     1      -3.055   9.430  16.026  0.00  0.00    +0.000 F 
ATOM     22  C   UNL     1      -3.619  11.073  17.628  0.00  0.00    +0.000 A 
ATOM     23  F   UNL     1      -4.844  11.212  17.099  0.00  0.00    +0.000 F 
ATOM     24  C   UNL     1      -3.263  11.834  18.733  0.00  0.00    +0.000 A 
ATOM     25  C   UNL     1      -1.989  11.700  19.291  0.00  0.00    +0.000 A 
ATOM     26  F   UNL     1      -1.668  12.461  20.346  0.00  0.00    +0.000 F 
BRANCH  24  27
ATOM     27  O   UNL     1      -4.159  12.709  19.285  0.00  0.00    +0.000 OA
ATOM     28  H   UNL     1      -5.049  12.480  18.957  0.00  0.00    +0.000 HD
ENDBRANCH  24  27
ENDBRANCH  17  18
ENDBRANCH   1  17
TORSDOF 5
ENDMDL
