MODEL 1
REMARK VINA RESULT:      -7.7      0.000      0.000
REMARK  Name = 
REMARK  8 active torsions:
REMARK  status: ('A' for Active; 'I' for Inactive)
REMARK    1  A    between atoms: C_1  and  N_2
REMARK    2  A    between atoms: N_2  and  C_3
REMARK    3  A    between atoms: C_3  and  C_4
REMARK    4  A    between atoms: C_4  and  N_5
REMARK    5  A    between atoms: C_4  and  C_22
REMARK    6  A    between atoms: N_15  and  C_16
REMARK    7  A    between atoms: C_16  and  C_17
REMARK    8  A    between atoms: C_16  and  C_18
REMARK                            x       y       z     vdW  Elec       q    Type
REMARK                         _______ _______ _______ _____ _____    ______ ____
ROOT
ATOM      1  N   UNL     1       2.300   7.741  18.720  0.00  0.00    +0.000 N 
ATOM      2  C   UNL     1       1.756   8.492  19.742  0.00  0.00    +0.000 C 
ATOM      3  O   UNL     1       1.986   8.246  20.917  0.00  0.00    +0.000 OA
ATOM      4  N   UNL     1       0.904   9.509  19.336  0.00  0.00    +0.000 N 
ATOM      5  C   UNL     1       0.628   9.893  17.951  0.00  0.00    +0.000 C 
ATOM      6  C   UNL     1      -0.875   9.940  17.710  0.00  0.00    +0.000 C 
ATOM      7  C   UNL     1      -1.540  10.828  18.707  0.00  0.00    +0.000 A 
ATOM      8  C   UNL     1      -2.746  11.432  18.447  0.00  0.00    +0.000 A 
ATOM      9  N   UNL     1      -3.394  12.206  19.327  0.00  0.00    +0.000 NA
ATOM     10  C   UNL     1      -2.813  12.404  20.517  0.00  0.00    +0.000 A 
ATOM     11  N   UNL     1      -3.432  13.239  21.437  0.00  0.00    +0.000 N 
ATOM     12  N   UNL     1      -1.636  11.852  20.872  0.00  0.00    +0.000 NA
ATOM     13  C   UNL     1      -1.012  11.048  19.970  0.00  0.00    +0.000 A 
ATOM     14  C   UNL     1       0.306  10.382  20.370  0.00  0.00    +0.000 C 
ATOM     15  H   UNL     1       2.527   8.245  17.877  0.00  0.00    +0.000 HD
ATOM     16  H   UNL     1      -2.956  13.166  22.326  0.00  0.00    +0.000 HD
ENDROOT
BRANCH  11  17
ATOM     17  C   UNL     1      -4.895  13.237  21.440  0.00  0.00    +0.000 C 
ATOM     18  C   UNL     1      -5.415  12.959  22.855  0.00  0.00    +0.000 C 
ATOM     19  C   UNL     1      -5.404  14.600  20.969  0.00  0.00    +0.000 C 
ENDBRANCH  11  17
BRANCH   1  20
ATOM     20  C   UNL     1       3.212   6.629  18.970  0.00  0.00    +0.000 C 
BRANCH  20  21
ATOM     21  C   UNL     1       2.439   5.314  18.997  0.00  0.00    +0.000 A 
ATOM     22  C   UNL     1       1.940   4.768  17.802  0.00  0.00    +0.000 A 
ATOM     23  C   UNL     1       1.219   3.571  17.821  0.00  0.00    +0.000 A 
ATOM     24  C   UNL     1       0.997   2.915  19.025  0.00  0.00    +0.000 A 
ATOM     25  F   UNL     1       0.300   1.768  19.016  0.00  0.00    +0.000 F 
ATOM     26  C   UNL     1       1.488   3.437  20.218  0.00  0.00    +0.000 A 
ATOM     27 CL   UNL     1       1.218   2.630  21.715  0.00  0.00    +0.000 Cl
ATOM     28  C   UNL     1       2.207   4.634  20.205  0.00  0.00    +0.000 A 
ENDBRANCH  20  21
BRANCH  20  29
ATOM     29  C   UNL     1       4.326   6.570  17.880  0.00  0.00    +0.000 C 
BRANCH  29  31
ATOM     30  C   UNL     1       5.716   4.649  17.347  0.00  0.00    +0.000 C 
ATOM     31  N   UNL     1       5.534   5.796  18.235  0.00  0.00    +0.000 NA
ATOM     32  H   UNL     1       6.346   6.408  18.127  0.00  0.00    +0.000 HD
ENDBRANCH  29  31
ENDBRANCH  20  29
ENDBRANCH   1  20
TORSDOF 5
ENDMDL
MODEL 2
REMARK VINA RESULT:      -7.5      2.879      3.936
REMARK  Name = 
REMARK  8 active torsions:
REMARK  status: ('A' for Active; 'I' for Inactive)
REMARK    1  A    between atoms: C_1  and  N_2
REMARK    2  A    between atoms: N_2  and  C_3
REMARK    3  A    between atoms: C_3  and  C_4
REMARK    4  A    between atoms: C_4  and  N_5
REMARK    5  A    between atoms: C_4  and  C_22
REMARK    6  A    between atoms: N_15  and  C_16
REMARK    7  A    between atoms: C_16  and  C_17
REMARK    8  A    between atoms: C_16  and  C_18
REMARK                            x       y       z     vdW  Elec       q    Type
REMARK                         _______ _______ _______ _____ _____    ______ ____
ROOT
ATOM      1  N   UNL     1       2.278   6.379  18.562  0.00  0.00    +0.000 N 
ATOM      2  C   UNL     1       1.942   6.917  19.788  0.00  0.00    +0.000 C 
ATOM      3  O   UNL     1       1.875   6.232  20.798  0.00  0.00    +0.000 OA
ATOM      4  N   UNL     1       1.648   8.273  19.775  0.00  0.00    +0.000 N 
ATOM      5  C   UNL     1       1.761   9.162  18.618  0.00  0.00    +0.000 C 
ATOM      6  C   UNL     1       0.461   9.931  18.419  0.00  0.00    +0.000 C 
ATOM      7  C   UNL     1       0.075  10.644  19.670  0.00  0.00    +0.000 A 
ATOM      8  C   UNL     1      -0.728  11.759  19.648  0.00  0.00    +0.000 A 
ATOM      9  N   UNL     1      -1.128  12.408  20.749  0.00  0.00    +0.000 NA
ATOM     10  C   UNL     1      -0.700  11.939  21.929  0.00  0.00    +0.000 A 
ATOM     11  N   UNL     1      -1.055  12.614  23.089  0.00  0.00    +0.000 N 
ATOM     12  N   UNL     1       0.084  10.851  22.058  0.00  0.00    +0.000 NA
ATOM     13  C   UNL     1       0.453  10.194  20.925  0.00  0.00    +0.000 A 
ATOM     14  C   UNL     1       1.311   8.934  21.055  0.00  0.00    +0.000 C 
ATOM     15  H   UNL     1       2.813   6.977  17.952  0.00  0.00    +0.000 HD
ATOM     16  H   UNL     1      -0.787  12.059  23.891  0.00  0.00    +0.000 HD
ENDROOT
BRANCH  11  17
ATOM     17  C   UNL     1      -2.374  13.244  23.100  0.00  0.00    +0.000 C 
ATOM     18  C   UNL     1      -3.393  12.315  23.769  0.00  0.00    +0.000 C 
ATOM     19  C   UNL     1      -2.300  14.560  23.876  0.00  0.00    +0.000 C 
ENDBRANCH  11  17
BRANCH   1  20
ATOM     20  C   UNL     1       2.610   4.967  18.396  0.00  0.00    +0.000 C 
BRANCH  20  21
ATOM     21  C   UNL     1       4.094   4.813  18.079  0.00  0.00    +0.000 A 
ATOM     22  C   UNL     1       5.054   5.051  19.079  0.00  0.00    +0.000 A 
ATOM     23  C   UNL     1       6.417   4.925  18.793  0.00  0.00    +0.000 A 
ATOM     24  C   UNL     1       6.825   4.561  17.515  0.00  0.00    +0.000 A 
ATOM     25  F   UNL     1       8.139   4.449  17.266  0.00  0.00    +0.000 F 
ATOM     26  C   UNL     1       5.890   4.317  16.515  0.00  0.00    +0.000 A 
ATOM     27 CL   UNL     1       6.388   3.865  14.930  0.00  0.00    +0.000 Cl
ATOM     28  C   UNL     1       4.528   4.443  16.794  0.00  0.00    +0.000 A 
ENDBRANCH  20  21
BRANCH  20  29
ATOM     29  C   UNL     1       2.253   4.158  19.681  0.00  0.00    +0.000 C 
BRANCH  29  31
ATOM     30  C   UNL     1       0.899   2.339  18.807  0.00  0.00    +0.000 C 
ATOM     31  N   UNL     1       0.926   3.508  19.685  0.00  0.00    +0.000 NA
ATOM     32  H   UNL     1       0.730   3.191  20.636  0.00  0.00    +0.000 HD
ENDBRANCH  29  31
ENDBRANCH  20  29
ENDBRANCH   1  20
TORSDOF 5
ENDMDL
MODEL 3
REMARK VINA RESULT:      -7.5      2.759      3.732
REMARK  Name = 
REMARK  8 active torsions:
REMARK  status: ('A' for Active; 'I' for Inactive)
REMARK    1  A    between atoms: C_1  and  N_2
REMARK    2  A    between atoms: N_2  and  C_3
REMARK    3  A    between atoms: C_3  and  C_4
REMARK    4  A    between atoms: C_4  and  N_5
REMARK    5  A    between atoms: C_4  and  C_22
REMARK    6  A    between atoms: N_15  and  C_16
REMARK    7  A    between atoms: C_16  and  C_17
REMARK    8  A    between atoms: C_16  and  C_18
REMARK                            x       y       z     vdW  Elec       q    Type
REMARK                         _______ _______ _______ _____ _____    ______ ____
ROOT
ATOM      1  N   UNL     1       2.258   6.393  18.627  0.00  0.00    +0.000 N 
ATOM      2  C   UNL     1       1.934   6.953  19.846  0.00  0.00    +0.000 C 
ATOM      3  O   UNL     1       1.885   6.287  20.870  0.00  0.00    +0.000 OA
ATOM      4  N   UNL     1       1.632   8.307  19.811  0.00  0.00    +0.000 N 
ATOM      5  C   UNL     1       1.724   9.174  18.636  0.00  0.00    +0.000 C 
ATOM      6  C   UNL     1       0.417   9.930  18.439  0.00  0.00    +0.000 C 
ATOM      7  C   UNL     1       0.043  10.666  19.681  0.00  0.00    +0.000 A 
ATOM      8  C   UNL     1      -0.767  11.775  19.648  0.00  0.00    +0.000 A 
ATOM      9  N   UNL     1      -1.157  12.442  20.742  0.00  0.00    +0.000 NA
ATOM     10  C   UNL     1      -0.710  12.000  21.925  0.00  0.00    +0.000 A 
ATOM     11  N   UNL     1      -1.054  12.695  23.076  0.00  0.00    +0.000 N 
ATOM     12  N   UNL     1       0.082  10.918  22.064  0.00  0.00    +0.000 NA
ATOM     13  C   UNL     1       0.440  10.242  20.939  0.00  0.00    +0.000 A 
ATOM     14  C   UNL     1       1.307   8.990  21.083  0.00  0.00    +0.000 C 
ATOM     15  H   UNL     1       2.781   6.982  17.999  0.00  0.00    +0.000 HD
ATOM     16  H   UNL     1      -0.772  12.157  23.885  0.00  0.00    +0.000 HD
ENDROOT
BRANCH  11  17
ATOM     17  C   UNL     1      -2.377  13.317  23.093  0.00  0.00    +0.000 C 
ATOM     18  C   UNL     1      -3.409  12.340  23.666  0.00  0.00    +0.000 C 
ATOM     19  C   UNL     1      -2.333  14.577  23.959  0.00  0.00    +0.000 C 
ENDBRANCH  11  17
BRANCH   1  20
ATOM     20  C   UNL     1       2.597   4.980  18.484  0.00  0.00    +0.000 C 
BRANCH  20  21
ATOM     21  C   UNL     1       4.052   4.833  18.051  0.00  0.00    +0.000 A 
ATOM     22  C   UNL     1       4.361   4.219  16.825  0.00  0.00    +0.000 A 
ATOM     23  C   UNL     1       5.692   4.068  16.427  0.00  0.00    +0.000 A 
ATOM     24  C   UNL     1       6.716   4.529  17.246  0.00  0.00    +0.000 A 
ATOM     25  F   UNL     1       7.985   4.370  16.841  0.00  0.00    +0.000 F 
ATOM     26  C   UNL     1       6.430   5.144  18.461  0.00  0.00    +0.000 A 
ATOM     27 CL   UNL     1       7.692   5.718  19.480  0.00  0.00    +0.000 Cl
ATOM     28  C   UNL     1       5.102   5.296  18.863  0.00  0.00    +0.000 A 
ENDBRANCH  20  21
BRANCH  20  29
ATOM     29  C   UNL     1       2.359   4.214  19.822  0.00  0.00    +0.000 C 
BRANCH  29  31
ATOM     30  C   UNL     1       0.967   2.536  18.749  0.00  0.00    +0.000 C 
ATOM     31  N   UNL     1       1.112   3.426  19.900  0.00  0.00    +0.000 NA
ATOM     32  H   UNL     1       1.154   2.846  20.741  0.00  0.00    +0.000 HD
ENDBRANCH  29  31
ENDBRANCH  20  29
ENDBRANCH   1  20
TORSDOF 5
ENDMDL
MODEL 4
REMARK VINA RESULT:      -7.4      2.930      3.855
REMARK  Name = 
REMARK  8 active torsions:
REMARK  status: ('A' for Active; 'I' for Inactive)
REMARK    1  A    between atoms: C_1  and  N_2
REMARK    2  A    between atoms: N_2  and  C_3
REMARK    3  A    between atoms: C_3  and  C_4
REMARK    4  A    between atoms: C_4  and  N_5
REMARK    5  A    between atoms: C_4  and  C_22
REMARK    6  A    between atoms: N_15  and  C_16
REMARK    7  A    between atoms: C_16  and  C_17
REMARK    8  A    between atoms: C_16  and  C_18
REMARK                            x       y       z     vdW  Elec       q    Type
REMARK                         _______ _______ _______ _____ _____    ______ ____
ROOT
ATOM      1  N   UNL     1       2.451   6.463  18.646  0.00  0.00    +0.000 N 
ATOM      2  C   UNL     1       1.990   6.940  19.855  0.00  0.00    +0.000 C 
ATOM      3  O   UNL     1       1.881   6.218  20.836  0.00  0.00    +0.000 OA
ATOM      4  N   UNL     1       1.623   8.279  19.859  0.00  0.00    +0.000 N 
ATOM      5  C   UNL     1       1.777   9.211  18.742  0.00  0.00    +0.000 C 
ATOM      6  C   UNL     1       0.457   9.916  18.462  0.00  0.00    +0.000 C 
ATOM      7  C   UNL     1      -0.066  10.565  19.698  0.00  0.00    +0.000 A 
ATOM      8  C   UNL     1      -0.925  11.636  19.645  0.00  0.00    +0.000 A 
ATOM      9  N   UNL     1      -1.446  12.225  20.729  0.00  0.00    +0.000 NA
ATOM     10  C   UNL     1      -1.088  11.739  21.925  0.00  0.00    +0.000 A 
ATOM     11  N   UNL     1      -1.570  12.355  23.072  0.00  0.00    +0.000 N 
ATOM     12  N   UNL     1      -0.257  10.690  22.084  0.00  0.00    +0.000 NA
ATOM     13  C   UNL     1       0.236  10.093  20.966  0.00  0.00    +0.000 A 
ATOM     14  C   UNL     1       1.149   8.876  21.127  0.00  0.00    +0.000 C 
ATOM     15  H   UNL     1       2.999   7.109  18.099  0.00  0.00    +0.000 HD
ATOM     16  H   UNL     1      -1.336  11.788  23.876  0.00  0.00    +0.000 HD
ENDROOT
BRANCH  11  17
ATOM     17  C   UNL     1      -2.919  12.913  22.995  0.00  0.00    +0.000 C 
ATOM     18  C   UNL     1      -3.815  12.267  24.058  0.00  0.00    +0.000 C 
ATOM     19  C   UNL     1      -2.856  14.423  23.233  0.00  0.00    +0.000 C 
ENDBRANCH  11  17
BRANCH   1  20
ATOM     20  C   UNL     1       2.874   5.077  18.465  0.00  0.00    +0.000 C 
BRANCH  20  21
ATOM     21  C   UNL     1       4.142   5.023  17.619  0.00  0.00    +0.000 A 
ATOM     22  C   UNL     1       4.314   3.994  16.677  0.00  0.00    +0.000 A 
ATOM     23  C   UNL     1       5.480   3.930  15.908  0.00  0.00    +0.000 A 
ATOM     24  C   UNL     1       6.472   4.888  16.073  0.00  0.00    +0.000 A 
ATOM     25  F   UNL     1       7.582   4.803  15.324  0.00  0.00    +0.000 F 
ATOM     26  C   UNL     1       6.317   5.918  16.997  0.00  0.00    +0.000 A 
ATOM     27 CL   UNL     1       7.541   7.110  17.206  0.00  0.00    +0.000 Cl
ATOM     28  C   UNL     1       5.156   5.986  17.769  0.00  0.00    +0.000 A 
ENDBRANCH  20  21
BRANCH  20  29
ATOM     29  C   UNL     1       3.122   4.389  19.843  0.00  0.00    +0.000 C 
BRANCH  29  31
ATOM     30  C   UNL     1       2.280   2.848  21.523  0.00  0.00    +0.000 C 
ATOM     31  N   UNL     1       2.349   3.155  20.095  0.00  0.00    +0.000 NA
ATOM     32  H   UNL     1       1.395   3.303  19.759  0.00  0.00    +0.000 HD
ENDBRANCH  29  31
ENDBRANCH  20  29
ENDBRANCH   1  20
TORSDOF 5
ENDMDL
MODEL 5
REMARK VINA RESULT:      -7.2      2.946      3.851
REMARK  Name = 
REMARK  8 active torsions:
REMARK  status: ('A' for Active; 'I' for Inactive)
REMARK    1  A    between atoms: C_1  and  N_2
REMARK    2  A    between atoms: N_2  and  C_3
REMARK    3  A    between atoms: C_3  and  C_4
REMARK    4  A    between atoms: C_4  and  N_5
REMARK    5  A    between atoms: C_4  and  C_22
REMARK    6  A    between atoms: N_15  and  C_16
REMARK    7  A    between atoms: C_16  and  C_17
REMARK    8  A    between atoms: C_16  and  C_18
REMARK                            x       y       z     vdW  Elec       q    Type
REMARK                         _______ _______ _______ _____ _____    ______ ____
ROOT
ATOM      1  N   UNL     1       2.288   7.168  18.058  0.00  0.00    +0.000 N 
ATOM      2  C   UNL     1       1.952   7.595  19.326  0.00  0.00    +0.000 C 
ATOM      3  O   UNL     1       2.064   6.868  20.303  0.00  0.00    +0.000 OA
ATOM      4  N   UNL     1       1.444   8.884  19.399  0.00  0.00    +0.000 N 
ATOM      5  C   UNL     1       1.336   9.825  18.284  0.00  0.00    +0.000 C 
ATOM      6  C   UNL     1      -0.081  10.378  18.201  0.00  0.00    +0.000 C 
ATOM      7  C   UNL     1      -0.492  10.969  19.507  0.00  0.00    +0.000 A 
ATOM      8  C   UNL     1      -1.463  11.938  19.589  0.00  0.00    +0.000 A 
ATOM      9  N   UNL     1      -1.887  12.468  20.744  0.00  0.00    +0.000 NA
ATOM     10  C   UNL     1      -1.312  12.029  21.871  0.00  0.00    +0.000 A 
ATOM     11  N   UNL     1      -1.692  12.590  23.083  0.00  0.00    +0.000 N 
ATOM     12  N   UNL     1      -0.356  11.078  21.898  0.00  0.00    +0.000 NA
ATOM     13  C   UNL     1       0.037  10.537  20.713  0.00  0.00    +0.000 A 
ATOM     14  C   UNL     1       1.092   9.430  20.729  0.00  0.00    +0.000 C 
ATOM     15  H   UNL     1       2.678   7.870  17.448  0.00  0.00    +0.000 HD
ATOM     16  H   UNL     1      -1.286  12.055  23.838  0.00  0.00    +0.000 HD
ENDROOT
BRANCH  11  17
ATOM     17  C   UNL     1      -3.092  12.995  23.204  0.00  0.00    +0.000 C 
ATOM     18  C   UNL     1      -3.803  12.119  24.241  0.00  0.00    +0.000 C 
ATOM     19  C   UNL     1      -3.159  14.458  23.643  0.00  0.00    +0.000 C 
ENDBRANCH  11  17
BRANCH   1  20
ATOM     20  C   UNL     1       2.831   5.838  17.801  0.00  0.00    +0.000 C 
BRANCH  20  21
ATOM     21  C   UNL     1       4.311   5.798  18.167  0.00  0.00    +0.000 A 
ATOM     22  C   UNL     1       4.774   4.872  19.119  0.00  0.00    +0.000 A 
ATOM     23  C   UNL     1       6.127   4.838  19.470  0.00  0.00    +0.000 A 
ATOM     24  C   UNL     1       7.019   5.721  18.874  0.00  0.00    +0.000 A 
ATOM     25  F   UNL     1       8.312   5.669  19.230  0.00  0.00    +0.000 F 
ATOM     26  C   UNL     1       6.580   6.641  17.926  0.00  0.00    +0.000 A 
ATOM     27 CL   UNL     1       7.680   7.737  17.183  0.00  0.00    +0.000 Cl
ATOM     28  C   UNL     1       5.230   6.680  17.574  0.00  0.00    +0.000 A 
ENDBRANCH  20  21
BRANCH  20  29
ATOM     29  C   UNL     1       2.052   4.756  18.611  0.00  0.00    +0.000 C 
BRANCH  29  31
ATOM     30  C   UNL     1       1.491   2.392  18.550  0.00  0.00    +0.000 C 
ATOM     31  N   UNL     1       1.464   3.656  17.817  0.00  0.00    +0.000 NA
ATOM     32  H   UNL     1       0.487   3.888  17.628  0.00  0.00    +0.000 HD
ENDBRANCH  29  31
ENDBRANCH  20  29
ENDBRANCH   1  20
TORSDOF 5
ENDMDL
MODEL 6
REMARK VINA RESULT:      -7.0      4.685     10.147
REMARK  Name = 
REMARK  8 active torsions:
REMARK  status: ('A' for Active; 'I' for Inactive)
REMARK    1  A    between atoms: C_1  and  N_2
REMARK    2  A    between atoms: N_2  and  C_3
REMARK    3  A    between atoms: C_3  and  C_4
REMARK    4  A    between atoms: C_4  and  N_5
REMARK    5  A    between atoms: C_4  and  C_22
REMARK    6  A    between atoms: N_15  and  C_16
REMARK    7  A    between atoms: C_16  and  C_17
REMARK    8  A    between atoms: C_16  and  C_18
REMARK                            x       y       z     vdW  Elec       q    Type
REMARK                         _______ _______ _______ _____ _____    ______ ____
ROOT
ATOM      1  N   UNL     1      -1.037  11.630  22.097  0.00  0.00    +0.000 N 
ATOM      2  C   UNL     1      -0.311  10.468  22.265  0.00  0.00    +0.000 C 
ATOM      3  O   UNL     1       0.050  10.086  23.370  0.00  0.00    +0.000 OA
ATOM      4  N   UNL     1       0.010   9.799  21.093  0.00  0.00    +0.000 N 
ATOM      5  C   UNL     1      -0.434  10.168  19.748  0.00  0.00    +0.000 C 
ATOM      6  C   UNL     1       0.761  10.256  18.808  0.00  0.00    +0.000 C 
ATOM      7  C   UNL     1       1.548   8.990  18.838  0.00  0.00    +0.000 A 
ATOM      8  C   UNL     1       2.340   8.607  17.782  0.00  0.00    +0.000 A 
ATOM      9  N   UNL     1       3.091   7.498  17.783  0.00  0.00    +0.000 NA
ATOM     10  C   UNL     1       3.044   6.723  18.874  0.00  0.00    +0.000 A 
ATOM     11  N   UNL     1       3.772   5.540  18.891  0.00  0.00    +0.000 N 
ATOM     12  N   UNL     1       2.305   7.014  19.963  0.00  0.00    +0.000 NA
ATOM     13  C   UNL     1       1.573   8.161  19.947  0.00  0.00    +0.000 A 
ATOM     14  C   UNL     1       0.759   8.527  21.190  0.00  0.00    +0.000 C 
ATOM     15  H   UNL     1      -1.717  11.618  21.354  0.00  0.00    +0.000 HD
ATOM     16  H   UNL     1       3.754   5.153  19.825  0.00  0.00    +0.000 HD
ENDROOT
BRANCH  11  17
ATOM     17  C   UNL     1       5.047   5.549  18.176  0.00  0.00    +0.000 C 
ATOM     18  C   UNL     1       6.197   5.269  19.151  0.00  0.00    +0.000 C 
ATOM     19  C   UNL     1       5.026   4.470  17.092  0.00  0.00    +0.000 C 
ENDBRANCH  11  17
BRANCH   1  20
ATOM     20  C   UNL     1      -1.453  12.458  23.225  0.00  0.00    +0.000 C 
BRANCH  20  21
ATOM     21  C   UNL     1      -1.237  13.932  22.898  0.00  0.00    +0.000 A 
ATOM     22  C   UNL     1      -1.230  14.887  23.931  0.00  0.00    +0.000 A 
ATOM     23  C   UNL     1      -1.046  16.241  23.638  0.00  0.00    +0.000 A 
ATOM     24  C   UNL     1      -0.866  16.647  22.322  0.00  0.00    +0.000 A 
ATOM     25  F   UNL     1      -0.694  17.953  22.068  0.00  0.00    +0.000 F 
ATOM     26  C   UNL     1      -0.864  15.717  21.287  0.00  0.00    +0.000 A 
ATOM     27 CL   UNL     1      -0.641  16.212  19.653  0.00  0.00    +0.000 Cl
ATOM     28  C   UNL     1      -1.049  14.363  21.573  0.00  0.00    +0.000 A 
ENDBRANCH  20  21
BRANCH  20  29
ATOM     29  C   UNL     1      -2.951  12.204  23.576  0.00  0.00    +0.000 C 
BRANCH  29  31
ATOM     30  C   UNL     1      -5.099  13.116  22.897  0.00  0.00    +0.000 C 
ATOM     31  N   UNL     1      -3.912  12.379  22.467  0.00  0.00    +0.000 NA
ATOM     32  H   UNL     1      -3.454  12.924  21.733  0.00  0.00    +0.000 HD
ENDBRANCH  29  31
ENDBRANCH  20  29
ENDBRANCH   1  20
TORSDOF 5
ENDMDL
MODEL 7
REMARK VINA RESULT:      -6.9      3.137      4.155
REMARK  Name = 
REMARK  8 active torsions:
REMARK  status: ('A' for Active; 'I' for Inactive)
REMARK    1  A    between atoms: C_1  and  N_2
REMARK    2  A    between atoms: N_2  and  C_3
REMARK    3  A    between atoms: C_3  and  C_4
REMARK    4  A    between atoms: C_4  and  N_5
REMARK    5  A    between atoms: C_4  and  C_22
REMARK    6  A    between atoms: N_15  and  C_16
REMARK    7  A    between atoms: C_16  and  C_17
REMARK    8  A    between atoms: C_16  and  C_18
REMARK                            x       y       z     vdW  Elec       q    Type
REMARK                         _______ _______ _______ _____ _____    ______ ____
ROOT
ATOM      1  N   UNL     1       2.898   6.323  18.022  0.00  0.00    +0.000 N 
ATOM      2  C   UNL     1       2.400   6.728  19.244  0.00  0.00    +0.000 C 
ATOM      3  O   UNL     1       2.292   5.954  20.185  0.00  0.00    +0.000 OA
ATOM      4  N   UNL     1       1.997   8.054  19.307  0.00  0.00    +0.000 N 
ATOM      5  C   UNL     1       2.148   9.045  18.241  0.00  0.00    +0.000 C 
ATOM      6  C   UNL     1       0.815   9.728  17.969  0.00  0.00    +0.000 C 
ATOM      7  C   UNL     1       0.250  10.301  19.225  0.00  0.00    +0.000 A 
ATOM      8  C   UNL     1      -0.637  11.350  19.207  0.00  0.00    +0.000 A 
ATOM      9  N   UNL     1      -1.195  11.869  20.308  0.00  0.00    +0.000 NA
ATOM     10  C   UNL     1      -0.846  11.334  21.485  0.00  0.00    +0.000 A 
ATOM     11  N   UNL     1      -1.367  11.878  22.652  0.00  0.00    +0.000 N 
ATOM     12  N   UNL     1       0.010  10.300  21.609  0.00  0.00    +0.000 NA
ATOM     13  C   UNL     1       0.540   9.773  20.473  0.00  0.00    +0.000 A 
ATOM     14  C   UNL     1       1.483   8.575  20.593  0.00  0.00    +0.000 C 
ATOM     15  H   UNL     1       3.438   7.010  17.520  0.00  0.00    +0.000 HD
ATOM     16  H   UNL     1      -1.134  11.278  23.431  0.00  0.00    +0.000 HD
ENDROOT
BRANCH  11  17
ATOM     17  C   UNL     1      -2.729  12.405  22.575  0.00  0.00    +0.000 C 
ATOM     18  C   UNL     1      -3.483  12.101  23.874  0.00  0.00    +0.000 C 
ATOM     19  C   UNL     1      -2.676  13.918  22.360  0.00  0.00    +0.000 C 
ENDBRANCH  11  17
BRANCH   1  20
ATOM     20  C   UNL     1       3.361   4.960  17.782  0.00  0.00    +0.000 C 
BRANCH  20  21
ATOM     21  C   UNL     1       4.600   4.978  16.892  0.00  0.00    +0.000 A 
ATOM     22  C   UNL     1       5.761   5.647  17.317  0.00  0.00    +0.000 A 
ATOM     23  C   UNL     1       6.895   5.680  16.502  0.00  0.00    +0.000 A 
ATOM     24  C   UNL     1       6.878   5.046  15.265  0.00  0.00    +0.000 A 
ATOM     25  F   UNL     1       7.979   5.094  14.501  0.00  0.00    +0.000 F 
ATOM     26  C   UNL     1       5.740   4.374  14.829  0.00  0.00    +0.000 A 
ATOM     27 CL   UNL     1       5.710   3.586  13.299  0.00  0.00    +0.000 Cl
ATOM     28  C   UNL     1       4.603   4.340  15.639  0.00  0.00    +0.000 A 
ENDBRANCH  20  21
BRANCH  20  29
ATOM     29  C   UNL     1       3.682   4.238  19.127  0.00  0.00    +0.000 C 
BRANCH  29  31
ATOM     30  C   UNL     1       4.501   2.194  20.155  0.00  0.00    +0.000 C 
ATOM     31  N   UNL     1       3.689   2.761  19.079  0.00  0.00    +0.000 NA
ATOM     32  H   UNL     1       2.729   2.434  19.206  0.00  0.00    +0.000 HD
ENDBRANCH  29  31
ENDBRANCH  20  29
ENDBRANCH   1  20
TORSDOF 5
ENDMDL
MODEL 8
REMARK VINA RESULT:      -6.9      4.932      9.844
REMARK  Name = 
REMARK  8 active torsions:
REMARK  status: ('A' for Active; 'I' for Inactive)
REMARK    1  A    between atoms: C_1  and  N_2
REMARK    2  A    between atoms: N_2  and  C_3
REMARK    3  A    between atoms: C_3  and  C_4
REMARK    4  A    between atoms: C_4  and  N_5
REMARK    5  A    between atoms: C_4  and  C_22
REMARK    6  A    between atoms: N_15  and  C_16
REMARK    7  A    between atoms: C_16  and  C_17
REMARK    8  A    between atoms: C_16  and  C_18
REMARK                            x       y       z     vdW  Elec       q    Type
REMARK                         _______ _______ _______ _____ _____    ______ ____
ROOT
ATOM      1  N   UNL     1       1.122  11.686  20.012  0.00  0.00    +0.000 N 
ATOM      2  C   UNL     1       1.214  10.480  20.675  0.00  0.00    +0.000 C 
ATOM      3  O   UNL     1       1.268  10.416  21.895  0.00  0.00    +0.000 OA
ATOM      4  N   UNL     1       1.283   9.362  19.857  0.00  0.00    +0.000 N 
ATOM      5  C   UNL     1       1.169   9.360  18.399  0.00  0.00    +0.000 C 
ATOM      6  C   UNL     1       2.340   8.608  17.782  0.00  0.00    +0.000 C 
ATOM      7  C   UNL     1       2.451   7.239  18.362  0.00  0.00    +0.000 A 
ATOM      8  C   UNL     1       3.058   6.211  17.680  0.00  0.00    +0.000 A 
ATOM      9  N   UNL     1       3.211   4.978  18.179  0.00  0.00    +0.000 NA
ATOM     10  C   UNL     1       2.725   4.745  19.405  0.00  0.00    +0.000 A 
ATOM     11  N   UNL     1       2.821   3.465  19.935  0.00  0.00    +0.000 N 
ATOM     12  N   UNL     1       2.118   5.686  20.157  0.00  0.00    +0.000 NA
ATOM     13  C   UNL     1       2.001   6.937  19.638  0.00  0.00    +0.000 A 
ATOM     14  C   UNL     1       1.350   8.027  20.492  0.00  0.00    +0.000 C 
ATOM     15  H   UNL     1       0.574  11.681  19.165  0.00  0.00    +0.000 HD
ATOM     16  H   UNL     1       2.552   3.489  20.910  0.00  0.00    +0.000 HD
ENDROOT
BRANCH  11  17
ATOM     17  C   UNL     1       4.009   2.696  19.569  0.00  0.00    +0.000 C 
ATOM     18  C   UNL     1       4.576   1.987  20.805  0.00  0.00    +0.000 C 
ATOM     19  C   UNL     1       3.633   1.655  18.514  0.00  0.00    +0.000 C 
ENDBRANCH  11  17
BRANCH   1  20
ATOM     20  C   UNL     1       1.045  12.961  20.719  0.00  0.00    +0.000 C 
BRANCH  20  21
ATOM     21  C   UNL     1       1.587  14.082  19.838  0.00  0.00    +0.000 A 
ATOM     22  C   UNL     1       0.799  15.217  19.581  0.00  0.00    +0.000 A 
ATOM     23  C   UNL     1       1.283  16.242  18.764  0.00  0.00    +0.000 A 
ATOM     24  C   UNL     1       2.551  16.141  18.204  0.00  0.00    +0.000 A 
ATOM     25  F   UNL     1       2.991  17.138  17.421  0.00  0.00    +0.000 F 
ATOM     26  C   UNL     1       3.348  15.027  18.451  0.00  0.00    +0.000 A 
ATOM     27 CL   UNL     1       4.920  14.895  17.762  0.00  0.00    +0.000 Cl
ATOM     28  C   UNL     1       2.868  14.000  19.265  0.00  0.00    +0.000 A 
ENDBRANCH  20  21
BRANCH  20  29
ATOM     29  C   UNL     1      -0.424  13.275  21.139  0.00  0.00    +0.000 C 
BRANCH  29  31
ATOM     30  C   UNL     1      -1.078  14.078  23.337  0.00  0.00    +0.000 C 
ATOM     31  N   UNL     1      -0.795  12.900  22.519  0.00  0.00    +0.000 NA
ATOM     32  H   UNL     1      -1.646  12.335  22.477  0.00  0.00    +0.000 HD
ENDBRANCH  29  31
ENDBRANCH  20  29
ENDBRANCH   1  20
TORSDOF 5
ENDMDL
MODEL 9
REMARK VINA RESULT:      -6.9      4.778     10.105
REMARK  Name = 
REMARK  8 active torsions:
REMARK  status: ('A' for Active; 'I' for Inactive)
REMARK    1  A    between atoms: C_1  and  N_2
REMARK    2  A    between atoms: N_2  and  C_3
REMARK    3  A    between atoms: C_3  and  C_4
REMARK    4  A    between atoms: C_4  and  N_5
REMARK    5  A    between atoms: C_4  and  C_22
REMARK    6  A    between atoms: N_15  and  C_16
REMARK    7  A    between atoms: C_16  and  C_17
REMARK    8  A    between atoms: C_16  and  C_18
REMARK                            x       y       z     vdW  Elec       q    Type
REMARK                         _______ _______ _______ _____ _____    ______ ____
ROOT
ATOM      1  N   UNL     1      -0.999  11.934  21.937  0.00  0.00    +0.000 N 
ATOM      2  C   UNL     1      -0.325  10.748  22.147  0.00  0.00    +0.000 C 
ATOM      3  O   UNL     1       0.009  10.385  23.266  0.00  0.00    +0.000 OA
ATOM      4  N   UNL     1      -0.023  10.031  20.999  0.00  0.00    +0.000 N 
ATOM      5  C   UNL     1      -0.440  10.377  19.639  0.00  0.00    +0.000 C 
ATOM      6  C   UNL     1       0.765  10.386  18.709  0.00  0.00    +0.000 C 
ATOM      7  C   UNL     1       1.498   9.089  18.784  0.00  0.00    +0.000 A 
ATOM      8  C   UNL     1       2.282   8.640  17.749  0.00  0.00    +0.000 A 
ATOM      9  N   UNL     1       2.985   7.501  17.790  0.00  0.00    +0.000 NA
ATOM     10  C   UNL     1       2.895   6.762  18.904  0.00  0.00    +0.000 A 
ATOM     11  N   UNL     1       3.571   5.551  18.964  0.00  0.00    +0.000 N 
ATOM     12  N   UNL     1       2.160   7.118  19.976  0.00  0.00    +0.000 NA
ATOM     13  C   UNL     1       1.478   8.293  19.919  0.00  0.00    +0.000 A 
ATOM     14  C   UNL     1       0.669   8.731  21.141  0.00  0.00    +0.000 C 
ATOM     15  H   UNL     1      -1.673  11.929  21.188  0.00  0.00    +0.000 HD
ATOM     16  H   UNL     1       3.529   5.193  19.909  0.00  0.00    +0.000 HD
ENDROOT
BRANCH  11  17
ATOM     17  C   UNL     1       4.852   5.483  18.261  0.00  0.00    +0.000 C 
ATOM     18  C   UNL     1       5.982   5.200  19.257  0.00  0.00    +0.000 C 
ATOM     19  C   UNL     1       4.800   4.364  17.220  0.00  0.00    +0.000 C 
ENDBRANCH  11  17
BRANCH   1  20
ATOM     20  C   UNL     1      -1.389  12.814  23.035  0.00  0.00    +0.000 C 
BRANCH  20  21
ATOM     21  C   UNL     1      -0.803  14.205  22.824  0.00  0.00    +0.000 A 
ATOM     22  C   UNL     1      -1.479  15.335  23.315  0.00  0.00    +0.000 A 
ATOM     23  C   UNL     1      -0.955  16.615  23.114  0.00  0.00    +0.000 A 
ATOM     24  C   UNL     1       0.242  16.772  22.427  0.00  0.00    +0.000 A 
ATOM     25  F   UNL     1       0.723  18.012  22.246  0.00  0.00    +0.000 F 
ATOM     26  C   UNL     1       0.930  15.666  21.938  0.00  0.00    +0.000 A 
ATOM     27 CL   UNL     1       2.415  15.853  21.087  0.00  0.00    +0.000 Cl
ATOM     28  C   UNL     1       0.409  14.386  22.134  0.00  0.00    +0.000 A 
ENDBRANCH  20  21
BRANCH  20  29
ATOM     29  C   UNL     1      -2.943  12.902  23.150  0.00  0.00    +0.000 C 
BRANCH  29  31
ATOM     30  C   UNL     1      -4.588  12.391  24.863  0.00  0.00    +0.000 C 
ATOM     31  N   UNL     1      -3.591  11.840  23.947  0.00  0.00    +0.000 NA
ATOM     32  H   UNL     1      -4.072  11.208  23.303  0.00  0.00    +0.000 HD
ENDBRANCH  29  31
ENDBRANCH  20  29
ENDBRANCH   1  20
TORSDOF 5
ENDMDL
