MODEL 1
REMARK VINA RESULT:      -8.5      0.000      0.000
REMARK  Name = 
REMARK  8 active torsions:
REMARK  status: ('A' for Active; 'I' for Inactive)
REMARK    1  A    between atoms: C_1  and  N_2
REMARK    2  A    between atoms: C_3  and  C_5
REMARK    3  A    between atoms: C_8  and  C_9
REMARK    4  A    between atoms: C_9  and  C_10
REMARK    5  A    between atoms: C_10  and  N_11
REMARK    6  A    between atoms: C_10  and  C_25
REMARK    7  A    between atoms: N_11  and  S_12
REMARK    8  A    between atoms: S_12  and  C_15
REMARK                            x       y       z     vdW  Elec       q    Type
REMARK                         _______ _______ _______ _____ _____    ______ ____
ROOT
ATOM      1  C   UNL     1       1.166   8.812  19.148  0.00  0.00    +0.000 C 
ENDROOT
BRANCH   1   2
ATOM      2  C   UNL     1       2.356   7.862  18.816  0.00  0.00    +0.000 C 
ATOM      3  O   UNL     1       3.097   8.099  17.858  0.00  0.00    +0.000 OA
ATOM      4  N   UNL     1       2.540   6.703  19.587  0.00  0.00    +0.000 N 
ATOM      5  C   UNL     1       3.727   5.901  19.304  0.00  0.00    +0.000 C 
ATOM      6  C   UNL     1       3.494   4.899  18.176  0.00  0.00    +0.000 C 
ATOM      7  C   UNL     1       2.691   3.665  18.581  0.00  0.00    +0.000 C 
ATOM      8  C   UNL     1       1.326   3.964  19.202  0.00  0.00    +0.000 C 
ATOM      9  C   UNL     1       1.438   4.637  20.568  0.00  0.00    +0.000 C 
ATOM     10  C   UNL     1       1.516   6.162  20.475  0.00  0.00    +0.000 C 
ENDBRANCH   1   2
BRANCH   1  11
ATOM     11  N   UNL     1       1.432   9.699  20.329  0.00  0.00    +0.000 NA
ATOM     12  H   UNL     1       2.390  10.045  20.424  0.00  0.00    +0.000 HD
BRANCH  11  13
ATOM     13  S   UNL     1       0.629   9.488  21.820  0.00  0.00    +0.000 S 
ATOM     14  O   UNL     1      -0.395   8.504  21.566  0.00  0.00    +0.000 OA
ATOM     15  O   UNL     1       1.617   9.327  22.852  0.00  0.00    +0.000 OA
BRANCH  13  16
ATOM     16  C   UNL     1      -0.234  11.033  22.083  0.00  0.00    +0.000 A 
ATOM     17  C   UNL     1       0.342  12.223  21.643  0.00  0.00    +0.000 A 
ATOM     18  C   UNL     1      -0.356  13.426  21.778  0.00  0.00    +0.000 A 
ATOM     19  C   UNL     1      -1.627  13.447  22.376  0.00  0.00    +0.000 A 
ATOM     20  C   UNL     1      -2.426  14.602  22.338  0.00  0.00    +0.000 A 
ATOM     21  C   UNL     1      -3.691  14.607  22.921  0.00  0.00    +0.000 A 
ATOM     22  C   UNL     1      -4.100  13.521  23.689  0.00  0.00    +0.000 A 
ATOM     23  C   UNL     1      -3.324  12.361  23.722  0.00  0.00    +0.000 A 
ATOM     24  C   UNL     1      -2.129  12.277  22.983  0.00  0.00    +0.000 A 
ATOM     25  C   UNL     1      -1.432  11.060  22.811  0.00  0.00    +0.000 A 
ENDBRANCH  13  16
ENDBRANCH  11  13
ENDBRANCH   1  11
BRANCH   1  26
ATOM     26  C   UNL     1       0.725   9.650  17.927  0.00  0.00    +0.000 C 
BRANCH  26  30
ATOM     27  C   UNL     1      -3.232  11.356  18.340  0.00  0.00    +0.000 A 
ATOM     28  C   UNL     1      -2.109  12.088  18.753  0.00  0.00    +0.000 A 
ATOM     29  C   UNL     1      -0.827  11.574  18.588  0.00  0.00    +0.000 A 
ATOM     30  C   UNL     1      -0.646  10.300  18.038  0.00  0.00    +0.000 A 
ATOM     31  C   UNL     1      -1.770   9.595  17.583  0.00  0.00    +0.000 A 
ATOM     32  C   UNL     1      -3.060  10.113  17.733  0.00  0.00    +0.000 A 
BRANCH  27  35
ATOM     33  C   UNL     1      -7.023  11.476  18.335  0.00  0.00    +0.000 C 
ATOM     34  N   UNL     1      -5.664  11.475  17.856  0.00  0.00    +0.000 N 
ATOM     35  C   UNL     1      -4.592  11.938  18.574  0.00  0.00    +0.000 C 
ATOM     36  N   UNL     1      -4.696  12.893  19.450  0.00  0.00    +0.000 NA
ATOM     37  H   UNL     1      -5.469  10.747  17.175  0.00  0.00    +0.000 HD
ATOM     38  H   UNL     1      -5.663  13.225  19.478  0.00  0.00    +0.000 HD
ENDBRANCH  27  35
ENDBRANCH  26  30
ENDBRANCH   1  26
TORSDOF 7
ENDMDL
MODEL 2
REMARK VINA RESULT:      -8.2      3.780      9.132
REMARK  Name = 
REMARK  8 active torsions:
REMARK  status: ('A' for Active; 'I' for Inactive)
REMARK    1  A    between atoms: C_1  and  N_2
REMARK    2  A    between atoms: C_3  and  C_5
REMARK    3  A    between atoms: C_8  and  C_9
REMARK    4  A    between atoms: C_9  and  C_10
REMARK    5  A    between atoms: C_10  and  N_11
REMARK    6  A    between atoms: C_10  and  C_25
REMARK    7  A    between atoms: N_11  and  S_12
REMARK    8  A    between atoms: S_12  and  C_15
REMARK                            x       y       z     vdW  Elec       q    Type
REMARK                         _______ _______ _______ _____ _____    ______ ____
ROOT
ATOM      1  C   UNL     1       3.615   6.506  18.489  0.00  0.00    +0.000 C 
ENDROOT
BRANCH   1   2
ATOM      2  C   UNL     1       3.270   5.045  18.072  0.00  0.00    +0.000 C 
ATOM      3  O   UNL     1       3.004   4.776  16.897  0.00  0.00    +0.000 OA
ATOM      4  N   UNL     1       3.211   4.048  19.060  0.00  0.00    +0.000 N 
ATOM      5  C   UNL     1       2.987   2.678  18.606  0.00  0.00    +0.000 C 
ATOM      6  C   UNL     1       1.503   2.357  18.444  0.00  0.00    +0.000 C 
ATOM      7  C   UNL     1       0.765   2.101  19.756  0.00  0.00    +0.000 C 
ATOM      8  C   UNL     1       0.868   3.230  20.781  0.00  0.00    +0.000 C 
ATOM      9  C   UNL     1       2.283   3.396  21.330  0.00  0.00    +0.000 C 
ATOM     10  C   UNL     1       3.142   4.340  20.488  0.00  0.00    +0.000 C 
ENDBRANCH   1   2
BRANCH   1  11
ATOM     11  N   UNL     1       4.931   6.980  17.944  0.00  0.00    +0.000 NA
ATOM     12  H   UNL     1       4.885   7.564  17.105  0.00  0.00    +0.000 HD
BRANCH  11  13
ATOM     13  S   UNL     1       6.347   6.032  18.041  0.00  0.00    +0.000 S 
ATOM     14  O   UNL     1       7.440   6.973  17.986  0.00  0.00    +0.000 OA
ATOM     15  O   UNL     1       6.193   5.088  19.113  0.00  0.00    +0.000 OA
BRANCH  13  16
ATOM     16  C   UNL     1       6.393   5.142  16.489  0.00  0.00    +0.000 A 
ATOM     17  C   UNL     1       5.796   3.886  16.402  0.00  0.00    +0.000 A 
ATOM     18  C   UNL     1       5.762   3.214  15.178  0.00  0.00    +0.000 A 
ATOM     19  C   UNL     1       6.348   3.786  14.036  0.00  0.00    +0.000 A 
ATOM     20  C   UNL     1       6.150   3.228  12.763  0.00  0.00    +0.000 A 
ATOM     21  C   UNL     1       6.724   3.812  11.636  0.00  0.00    +0.000 A 
ATOM     22  C   UNL     1       7.632   4.855  11.788  0.00  0.00    +0.000 A 
ATOM     23  C   UNL     1       7.826   5.432  13.045  0.00  0.00    +0.000 A 
ATOM     24  C   UNL     1       7.109   4.967  14.164  0.00  0.00    +0.000 A 
ATOM     25  C   UNL     1       7.107   5.656  15.398  0.00  0.00    +0.000 A 
ENDBRANCH  13  16
ENDBRANCH  11  13
ENDBRANCH   1  11
BRANCH   1  26
ATOM     26  C   UNL     1       2.489   7.500  18.131  0.00  0.00    +0.000 C 
BRANCH  26  30
ATOM     27  C   UNL     1       0.556   9.600  21.385  0.00  0.00    +0.000 A 
ATOM     28  C   UNL     1       1.141   8.347  21.613  0.00  0.00    +0.000 A 
ATOM     29  C   UNL     1       1.805   7.677  20.591  0.00  0.00    +0.000 A 
ATOM     30  C   UNL     1       1.863   8.234  19.308  0.00  0.00    +0.000 A 
ATOM     31  C   UNL     1       1.319   9.510  19.101  0.00  0.00    +0.000 A 
ATOM     32  C   UNL     1       0.664  10.194  20.129  0.00  0.00    +0.000 A 
BRANCH  27  35
ATOM     33  C   UNL     1      -2.075  11.784  23.027  0.00  0.00    +0.000 C 
ATOM     34  N   UNL     1      -0.911  11.397  22.272  0.00  0.00    +0.000 N 
ATOM     35  C   UNL     1      -0.178  10.263  22.510  0.00  0.00    +0.000 C 
ATOM     36  N   UNL     1      -0.068   9.737  23.695  0.00  0.00    +0.000 NA
ATOM     37  H   UNL     1      -0.907  11.742  21.317  0.00  0.00    +0.000 HD
ATOM     38  H   UNL     1      -0.580  10.309  24.371  0.00  0.00    +0.000 HD
ENDBRANCH  27  35
ENDBRANCH  26  30
ENDBRANCH   1  26
TORSDOF 7
ENDMDL
MODEL 3
REMARK VINA RESULT:      -8.2      3.210      7.435
REMARK  Name = 
REMARK  8 active torsions:
REMARK  status: ('A' for Active; 'I' for Inactive)
REMARK    1  A    between atoms: C_1  and  N_2
REMARK    2  A    between atoms: C_3  and  C_5
REMARK    3  A    between atoms: C_8  and  C_9
REMARK    4  A    between atoms: C_9  and  C_10
REMARK    5  A    between atoms: C_10  and  N_11
REMARK    6  A    between atoms: C_10  and  C_25
REMARK    7  A    between atoms: N_11  and  S_12
REMARK    8  A    between atoms: S_12  and  C_15
REMARK                            x       y       z     vdW  Elec       q    Type
REMARK                         _______ _______ _______ _____ _____    ______ ____
ROOT
ATOM      1  C   UNL     1       2.329   6.836  18.920  0.00  0.00    +0.000 C 
ENDROOT
BRANCH   1   2
ATOM      2  C   UNL     1       1.826   5.570  19.677  0.00  0.00    +0.000 C 
ATOM      3  O   UNL     1       1.710   5.581  20.906  0.00  0.00    +0.000 OA
ATOM      4  N   UNL     1       1.561   4.400  18.948  0.00  0.00    +0.000 N 
ATOM      5  C   UNL     1       0.994   3.274  19.686  0.00  0.00    +0.000 C 
ATOM      6  C   UNL     1       2.069   2.411  20.342  0.00  0.00    +0.000 C 
ATOM      7  C   UNL     1       2.806   1.480  19.381  0.00  0.00    +0.000 C 
ATOM      8  C   UNL     1       3.459   2.176  18.188  0.00  0.00    +0.000 C 
ATOM      9  C   UNL     1       2.435   2.761  17.218  0.00  0.00    +0.000 C 
ATOM     10  C   UNL     1       2.019   4.188  17.579  0.00  0.00    +0.000 C 
ENDBRANCH   1   2
BRANCH   1  11
ATOM     11  N   UNL     1       1.638   8.096  19.355  0.00  0.00    +0.000 NA
ATOM     12  H   UNL     1       0.776   7.972  19.891  0.00  0.00    +0.000 HD
BRANCH  11  13
ATOM     13  S   UNL     1       1.658   9.514  18.407  0.00  0.00    +0.000 S 
ATOM     14  O   UNL     1       2.431  10.469  19.164  0.00  0.00    +0.000 OA
ATOM     15  O   UNL     1       1.983   9.156  17.054  0.00  0.00    +0.000 OA
BRANCH  13  16
ATOM     16  C   UNL     1      -0.030  10.106  18.458  0.00  0.00    +0.000 A 
ATOM     17  C   UNL     1      -0.490  10.769  19.593  0.00  0.00    +0.000 A 
ATOM     18  C   UNL     1      -1.783  11.299  19.616  0.00  0.00    +0.000 A 
ATOM     19  C   UNL     1      -2.633  11.147  18.507  0.00  0.00    +0.000 A 
ATOM     20  C   UNL     1      -3.851  11.840  18.429  0.00  0.00    +0.000 A 
ATOM     21  C   UNL     1      -4.680  11.692  17.318  0.00  0.00    +0.000 A 
ATOM     22  C   UNL     1      -4.380  10.729  16.359  0.00  0.00    +0.000 A 
ATOM     23  C   UNL     1      -3.164  10.045  16.415  0.00  0.00    +0.000 A 
ATOM     24  C   UNL     1      -2.234  10.321  17.435  0.00  0.00    +0.000 A 
ATOM     25  C   UNL     1      -0.913   9.820  17.407  0.00  0.00    +0.000 A 
ENDBRANCH  13  16
ENDBRANCH  11  13
ENDBRANCH   1  11
BRANCH   1  26
ATOM     26  C   UNL     1       3.863   7.000  19.005  0.00  0.00    +0.000 C 
BRANCH  26  30
ATOM     27  C   UNL     1       6.006   5.342  15.629  0.00  0.00    +0.000 A 
ATOM     28  C   UNL     1       5.248   6.511  15.469  0.00  0.00    +0.000 A 
ATOM     29  C   UNL     1       4.589   7.083  16.552  0.00  0.00    +0.000 A 
ATOM     30  C   UNL     1       4.645   6.473  17.811  0.00  0.00    +0.000 A 
ATOM     31  C   UNL     1       5.445   5.333  17.973  0.00  0.00    +0.000 A 
ATOM     32  C   UNL     1       6.122   4.763  16.891  0.00  0.00    +0.000 A 
BRANCH  27  35
ATOM     33  C   UNL     1       6.264   3.295  12.446  0.00  0.00    +0.000 C 
ATOM     34  N   UNL     1       6.140   3.622  13.844  0.00  0.00    +0.000 N 
ATOM     35  C   UNL     1       6.667   4.747  14.424  0.00  0.00    +0.000 C 
ATOM     36  N   UNL     1       7.747   5.321  13.984  0.00  0.00    +0.000 NA
ATOM     37  H   UNL     1       5.312   3.235  14.284  0.00  0.00    +0.000 HD
ATOM     38  H   UNL     1       8.115   4.791  13.190  0.00  0.00    +0.000 HD
ENDBRANCH  27  35
ENDBRANCH  26  30
ENDBRANCH   1  26
TORSDOF 7
ENDMDL
MODEL 4
REMARK VINA RESULT:      -8.1      3.014      7.873
REMARK  Name = 
REMARK  8 active torsions:
REMARK  status: ('A' for Active; 'I' for Inactive)
REMARK    1  A    between atoms: C_1  and  N_2
REMARK    2  A    between atoms: C_3  and  C_5
REMARK    3  A    between atoms: C_8  and  C_9
REMARK    4  A    between atoms: C_9  and  C_10
REMARK    5  A    between atoms: C_10  and  N_11
REMARK    6  A    between atoms: C_10  and  C_25
REMARK    7  A    between atoms: N_11  and  S_12
REMARK    8  A    between atoms: S_12  and  C_15
REMARK                            x       y       z     vdW  Elec       q    Type
REMARK                         _______ _______ _______ _____ _____    ______ ____
ROOT
ATOM      1  C   UNL     1      -1.283  12.536  19.007  0.00  0.00    +0.000 C 
ENDROOT
BRANCH   1   2
ATOM      2  C   UNL     1      -1.461  13.579  20.151  0.00  0.00    +0.000 C 
ATOM      3  O   UNL     1      -2.256  13.369  21.071  0.00  0.00    +0.000 OA
ATOM      4  N   UNL     1      -0.748  14.787  20.091  0.00  0.00    +0.000 N 
ATOM      5  C   UNL     1      -0.869  15.686  21.236  0.00  0.00    +0.000 C 
ATOM      6  C   UNL     1      -2.084  16.604  21.125  0.00  0.00    +0.000 C 
ATOM      7  C   UNL     1      -1.908  17.772  20.158  0.00  0.00    +0.000 C 
ATOM      8  C   UNL     1      -1.519  17.374  18.735  0.00  0.00    +0.000 C 
ATOM      9  C   UNL     1      -0.114  16.783  18.655  0.00  0.00    +0.000 C 
ATOM     10  C   UNL     1      -0.091  15.270  18.880  0.00  0.00    +0.000 C 
ENDBRANCH   1   2
BRANCH   1  11
ATOM     11  N   UNL     1       0.026  11.804  19.076  0.00  0.00    +0.000 NA
ATOM     12  H   UNL     1       0.398  11.466  18.185  0.00  0.00    +0.000 HD
BRANCH  11  13
ATOM     13  S   UNL     1       0.450  10.828  20.410  0.00  0.00    +0.000 S 
ATOM     14  O   UNL     1       1.508  11.542  21.084  0.00  0.00    +0.000 OA
ATOM     15  O   UNL     1      -0.754  10.420  21.078  0.00  0.00    +0.000 OA
BRANCH  13  16
ATOM     16  C   UNL     1       1.222   9.389  19.679  0.00  0.00    +0.000 A 
ATOM     17  C   UNL     1       1.588   9.416  18.335  0.00  0.00    +0.000 A 
ATOM     18  C   UNL     1       2.258   8.326  17.773  0.00  0.00    +0.000 A 
ATOM     19  C   UNL     1       2.544   7.190  18.550  0.00  0.00    +0.000 A 
ATOM     20  C   UNL     1       3.386   6.176  18.066  0.00  0.00    +0.000 A 
ATOM     21  C   UNL     1       3.674   5.061  18.851  0.00  0.00    +0.000 A 
ATOM     22  C   UNL     1       2.995   4.868  20.049  0.00  0.00    +0.000 A 
ATOM     23  C   UNL     1       2.167   5.875  20.550  0.00  0.00    +0.000 A 
ATOM     24  C   UNL     1       2.013   7.088  19.853  0.00  0.00    +0.000 A 
ATOM     25  C   UNL     1       1.369   8.209  20.423  0.00  0.00    +0.000 A 
ENDBRANCH  13  16
ENDBRANCH  11  13
ENDBRANCH   1  11
BRANCH   1  26
ATOM     26  C   UNL     1      -2.460  11.539  18.933  0.00  0.00    +0.000 C 
BRANCH  26  30
ATOM     27  C   UNL     1      -3.372  10.204  14.918  0.00  0.00    +0.000 A 
ATOM     28  C   UNL     1      -2.292   9.640  15.612  0.00  0.00    +0.000 A 
ATOM     29  C   UNL     1      -2.011  10.024  16.919  0.00  0.00    +0.000 A 
ATOM     30  C   UNL     1      -2.784  11.010  17.543  0.00  0.00    +0.000 A 
ATOM     31  C   UNL     1      -3.892  11.533  16.860  0.00  0.00    +0.000 A 
ATOM     32  C   UNL     1      -4.188  11.139  15.552  0.00  0.00    +0.000 A 
BRANCH  27  35
ATOM     33  C   UNL     1      -5.317   9.748  11.693  0.00  0.00    +0.000 C 
ATOM     34  N   UNL     1      -4.890   9.571  13.057  0.00  0.00    +0.000 N 
ATOM     35  C   UNL     1      -3.610   9.782  13.500  0.00  0.00    +0.000 C 
ATOM     36  N   UNL     1      -2.569   9.608  12.740  0.00  0.00    +0.000 NA
ATOM     37  H   UNL     1      -5.629   9.705  13.740  0.00  0.00    +0.000 HD
ATOM     38  H   UNL     1      -2.871   9.281  11.819  0.00  0.00    +0.000 HD
ENDBRANCH  27  35
ENDBRANCH  26  30
ENDBRANCH   1  26
TORSDOF 7
ENDMDL
MODEL 5
REMARK VINA RESULT:      -8.0      0.721      1.518
REMARK  Name = 
REMARK  8 active torsions:
REMARK  status: ('A' for Active; 'I' for Inactive)
REMARK    1  A    between atoms: C_1  and  N_2
REMARK    2  A    between atoms: C_3  and  C_5
REMARK    3  A    between atoms: C_8  and  C_9
REMARK    4  A    between atoms: C_9  and  C_10
REMARK    5  A    between atoms: C_10  and  N_11
REMARK    6  A    between atoms: C_10  and  C_25
REMARK    7  A    between atoms: N_11  and  S_12
REMARK    8  A    between atoms: S_12  and  C_15
REMARK                            x       y       z     vdW  Elec       q    Type
REMARK                         _______ _______ _______ _____ _____    ______ ____
ROOT
ATOM      1  C   UNL     1       1.020   8.898  19.117  0.00  0.00    +0.000 C 
ENDROOT
BRANCH   1   2
ATOM      2  C   UNL     1       2.242   7.993  18.776  0.00  0.00    +0.000 C 
ATOM      3  O   UNL     1       2.966   8.256  17.813  0.00  0.00    +0.000 OA
ATOM      4  N   UNL     1       2.473   6.840  19.545  0.00  0.00    +0.000 N 
ATOM      5  C   UNL     1       3.687   6.082  19.254  0.00  0.00    +0.000 C 
ATOM      6  C   UNL     1       3.482   5.073  18.127  0.00  0.00    +0.000 C 
ATOM      7  C   UNL     1       2.727   3.811  18.537  0.00  0.00    +0.000 C 
ATOM      8  C   UNL     1       1.358   4.059  19.168  0.00  0.00    +0.000 C 
ATOM      9  C   UNL     1       1.455   4.735  20.533  0.00  0.00    +0.000 C 
ATOM     10  C   UNL     1       1.477   6.262  20.441  0.00  0.00    +0.000 C 
ENDBRANCH   1   2
BRANCH   1  11
ATOM     11  N   UNL     1       1.268   9.807  20.286  0.00  0.00    +0.000 NA
ATOM     12  H   UNL     1       2.198  10.231  20.334  0.00  0.00    +0.000 HD
BRANCH  11  13
ATOM     13  S   UNL     1       0.561   9.532  21.814  0.00  0.00    +0.000 S 
ATOM     14  O   UNL     1      -0.497   8.580  21.579  0.00  0.00    +0.000 OA
ATOM     15  O   UNL     1       1.609   9.303  22.769  0.00  0.00    +0.000 OA
BRANCH  13  16
ATOM     16  C   UNL     1      -0.254  11.076  22.210  0.00  0.00    +0.000 A 
ATOM     17  C   UNL     1      -1.397  11.063  23.005  0.00  0.00    +0.000 A 
ATOM     18  C   UNL     1      -1.999  12.267  23.381  0.00  0.00    +0.000 A 
ATOM     19  C   UNL     1      -1.471  13.493  22.942  0.00  0.00    +0.000 A 
ATOM     20  C   UNL     1      -1.933  14.710  23.468  0.00  0.00    +0.000 A 
ATOM     21  C   UNL     1      -1.392  15.919  23.036  0.00  0.00    +0.000 A 
ATOM     22  C   UNL     1      -0.509  15.933  21.961  0.00  0.00    +0.000 A 
ATOM     23  C   UNL     1      -0.028  14.730  21.439  0.00  0.00    +0.000 A 
ATOM     24  C   UNL     1      -0.428  13.499  21.992  0.00  0.00    +0.000 A 
ATOM     25  C   UNL     1       0.195  12.279  21.647  0.00  0.00    +0.000 A 
ENDBRANCH  13  16
ENDBRANCH  11  13
ENDBRANCH   1  11
BRANCH   1  26
ATOM     26  C   UNL     1       0.529   9.706  17.895  0.00  0.00    +0.000 C 
BRANCH  26  30
ATOM     27  C   UNL     1      -3.517  11.192  18.297  0.00  0.00    +0.000 A 
ATOM     28  C   UNL     1      -2.457  11.880  18.905  0.00  0.00    +0.000 A 
ATOM     29  C   UNL     1      -1.146  11.442  18.751  0.00  0.00    +0.000 A 
ATOM     30  C   UNL     1      -0.874  10.284  18.013  0.00  0.00    +0.000 A 
ATOM     31  C   UNL     1      -1.934   9.631  17.367  0.00  0.00    +0.000 A 
ATOM     32  C   UNL     1      -3.251  10.075  17.507  0.00  0.00    +0.000 A 
BRANCH  27  35
ATOM     33  C   UNL     1      -7.141  11.015  19.404  0.00  0.00    +0.000 C 
ATOM     34  N   UNL     1      -5.943  10.785  18.638  0.00  0.00    +0.000 N 
ATOM     35  C   UNL     1      -4.914  11.683  18.524  0.00  0.00    +0.000 C 
ATOM     36  N   UNL     1      -5.098  12.970  18.583  0.00  0.00    +0.000 NA
ATOM     37  H   UNL     1      -5.695   9.804  18.547  0.00  0.00    +0.000 HD
ATOM     38  H   UNL     1      -6.095  13.166  18.697  0.00  0.00    +0.000 HD
ENDBRANCH  27  35
ENDBRANCH  26  30
ENDBRANCH   1  26
TORSDOF 7
ENDMDL
MODEL 6
REMARK VINA RESULT:      -8.0      4.354      9.851
REMARK  Name = 
REMARK  8 active torsions:
REMARK  status: ('A' for Active; 'I' for Inactive)
REMARK    1  A    between atoms: C_1  and  N_2
REMARK    2  A    between atoms: C_3  and  C_5
REMARK    3  A    between atoms: C_8  and  C_9
REMARK    4  A    between atoms: C_9  and  C_10
REMARK    5  A    between atoms: C_10  and  N_11
REMARK    6  A    between atoms: C_10  and  C_25
REMARK    7  A    between atoms: N_11  and  S_12
REMARK    8  A    between atoms: S_12  and  C_15
REMARK                            x       y       z     vdW  Elec       q    Type
REMARK                         _______ _______ _______ _____ _____    ______ ____
ROOT
ATOM      1  C   UNL     1       3.500   5.907  17.640  0.00  0.00    +0.000 C 
ENDROOT
BRANCH   1   2
ATOM      2  C   UNL     1       2.325   4.925  17.928  0.00  0.00    +0.000 C 
ATOM      3  O   UNL     1       1.173   5.211  17.590  0.00  0.00    +0.000 OA
ATOM      4  N   UNL     1       2.585   3.735  18.628  0.00  0.00    +0.000 N 
ATOM      5  C   UNL     1       1.473   2.801  18.783  0.00  0.00    +0.000 C 
ATOM      6  C   UNL     1       0.613   3.122  20.002  0.00  0.00    +0.000 C 
ATOM      7  C   UNL     1       1.223   2.700  21.336  0.00  0.00    +0.000 C 
ATOM      8  C   UNL     1       2.616   3.266  21.611  0.00  0.00    +0.000 C 
ATOM      9  C   UNL     1       3.677   2.697  20.671  0.00  0.00    +0.000 C 
ATOM     10  C   UNL     1       3.816   3.500  19.376  0.00  0.00    +0.000 C 
ENDBRANCH   1   2
BRANCH   1  11
ATOM     11  N   UNL     1       4.301   5.528  16.427  0.00  0.00    +0.000 NA
ATOM     12  H   UNL     1       3.939   4.744  15.878  0.00  0.00    +0.000 HD
BRANCH  11  13
ATOM     13  S   UNL     1       6.000   5.670  16.382  0.00  0.00    +0.000 S 
ATOM     14  O   UNL     1       6.262   7.086  16.288  0.00  0.00    +0.000 OA
ATOM     15  O   UNL     1       6.555   4.849  17.422  0.00  0.00    +0.000 OA
BRANCH  13  16
ATOM     16  C   UNL     1       6.461   4.983  14.795  0.00  0.00    +0.000 A 
ATOM     17  C   UNL     1       7.586   5.475  14.137  0.00  0.00    +0.000 A 
ATOM     18  C   UNL     1       7.998   4.897  12.933  0.00  0.00    +0.000 A 
ATOM     19  C   UNL     1       7.269   3.836  12.368  0.00  0.00    +0.000 A 
ATOM     20  C   UNL     1       7.773   3.113  11.276  0.00  0.00    +0.000 A 
ATOM     21  C   UNL     1       7.049   2.053  10.733  0.00  0.00    +0.000 A 
ATOM     22  C   UNL     1       5.748   1.816  11.165  0.00  0.00    +0.000 A 
ATOM     23  C   UNL     1       5.240   2.516  12.262  0.00  0.00    +0.000 A 
ATOM     24  C   UNL     1       6.033   3.462  12.937  0.00  0.00    +0.000 A 
ATOM     25  C   UNL     1       5.645   4.029  14.172  0.00  0.00    +0.000 A 
ENDBRANCH  13  16
ENDBRANCH  11  13
ENDBRANCH   1  11
BRANCH   1  26
ATOM     26  C   UNL     1       3.029   7.374  17.543  0.00  0.00    +0.000 C 
BRANCH  26  30
ATOM     27  C   UNL     1       0.733   8.873  20.893  0.00  0.00    +0.000 A 
ATOM     28  C   UNL     1       1.491   7.702  21.034  0.00  0.00    +0.000 A 
ATOM     29  C   UNL     1       2.270   7.229  19.983  0.00  0.00    +0.000 A 
ATOM     30  C   UNL     1       2.275   7.902  18.755  0.00  0.00    +0.000 A 
ATOM     31  C   UNL     1       1.553   9.099  18.638  0.00  0.00    +0.000 A 
ATOM     32  C   UNL     1       0.781   9.585  19.697  0.00  0.00    +0.000 A 
BRANCH  27  35
ATOM     33  C   UNL     1      -1.320  11.279  22.987  0.00  0.00    +0.000 C 
ATOM     34  N   UNL     1      -0.182  10.649  22.367  0.00  0.00    +0.000 N 
ATOM     35  C   UNL     1      -0.117   9.319  22.043  0.00  0.00    +0.000 C 
ATOM     36  N   UNL     1      -0.752   8.403  22.714  0.00  0.00    +0.000 NA
ATOM     37  H   UNL     1       0.376  11.278  21.799  0.00  0.00    +0.000 HD
ATOM     38  H   UNL     1      -1.255   8.838  23.491  0.00  0.00    +0.000 HD
ENDBRANCH  27  35
ENDBRANCH  26  30
ENDBRANCH   1  26
TORSDOF 7
ENDMDL
MODEL 7
REMARK VINA RESULT:      -7.9      0.763      1.763
REMARK  Name = 
REMARK  8 active torsions:
REMARK  status: ('A' for Active; 'I' for Inactive)
REMARK    1  A    between atoms: C_1  and  N_2
REMARK    2  A    between atoms: C_3  and  C_5
REMARK    3  A    between atoms: C_8  and  C_9
REMARK    4  A    between atoms: C_9  and  C_10
REMARK    5  A    between atoms: C_10  and  N_11
REMARK    6  A    between atoms: C_10  and  C_25
REMARK    7  A    between atoms: N_11  and  S_12
REMARK    8  A    between atoms: S_12  and  C_15
REMARK                            x       y       z     vdW  Elec       q    Type
REMARK                         _______ _______ _______ _____ _____    ______ ____
ROOT
ATOM      1  C   UNL     1       1.081   8.920  19.184  0.00  0.00    +0.000 C 
ENDROOT
BRANCH   1   2
ATOM      2  C   UNL     1       2.245   7.998  18.712  0.00  0.00    +0.000 C 
ATOM      3  O   UNL     1       2.871   8.259  17.681  0.00  0.00    +0.000 OA
ATOM      4  N   UNL     1       2.534   6.834  19.443  0.00  0.00    +0.000 N 
ATOM      5  C   UNL     1       3.698   6.059  19.022  0.00  0.00    +0.000 C 
ATOM      6  C   UNL     1       3.360   5.065  17.914  0.00  0.00    +0.000 C 
ATOM      7  C   UNL     1       2.630   3.811  18.389  0.00  0.00    +0.000 C 
ATOM      8  C   UNL     1       1.337   4.076  19.160  0.00  0.00    +0.000 C 
ATOM      9  C   UNL     1       1.586   4.737  20.513  0.00  0.00    +0.000 C 
ATOM     10  C   UNL     1       1.625   6.264  20.432  0.00  0.00    +0.000 C 
ENDBRANCH   1   2
BRANCH   1  11
ATOM     11  N   UNL     1       1.423   9.721  20.407  0.00  0.00    +0.000 NA
ATOM     12  H   UNL     1       2.404   9.995  20.503  0.00  0.00    +0.000 HD
BRANCH  11  13
ATOM     13  S   UNL     1       0.629   9.483  21.898  0.00  0.00    +0.000 S 
ATOM     14  O   UNL     1      -0.429   8.542  21.621  0.00  0.00    +0.000 OA
ATOM     15  O   UNL     1       1.621   9.254  22.913  0.00  0.00    +0.000 OA
BRANCH  13  16
ATOM     16  C   UNL     1      -0.181  11.045  22.224  0.00  0.00    +0.000 A 
ATOM     17  C   UNL     1      -1.373  11.061  22.945  0.00  0.00    +0.000 A 
ATOM     18  C   UNL     1      -1.976  12.279  23.268  0.00  0.00    +0.000 A 
ATOM     19  C   UNL     1      -1.400  13.491  22.850  0.00  0.00    +0.000 A 
ATOM     20  C   UNL     1      -1.873  14.722  23.332  0.00  0.00    +0.000 A 
ATOM     21  C   UNL     1      -1.284  15.916  22.922  0.00  0.00    +0.000 A 
ATOM     22  C   UNL     1      -0.334  15.902  21.905  0.00  0.00    +0.000 A 
ATOM     23  C   UNL     1       0.158  14.685  21.428  0.00  0.00    +0.000 A 
ATOM     24  C   UNL     1      -0.298  13.468  21.968  0.00  0.00    +0.000 A 
ATOM     25  C   UNL     1       0.324  12.233  21.677  0.00  0.00    +0.000 A 
ENDBRANCH  13  16
ENDBRANCH  11  13
ENDBRANCH   1  11
BRANCH   1  26
ATOM     26  C   UNL     1       0.568   9.842  18.056  0.00  0.00    +0.000 C 
BRANCH  26  30
ATOM     27  C   UNL     1      -3.423  11.470  18.465  0.00  0.00    +0.000 A 
ATOM     28  C   UNL     1      -3.234  10.237  17.824  0.00  0.00    +0.000 A 
ATOM     29  C   UNL     1      -1.965   9.677  17.723  0.00  0.00    +0.000 A 
ATOM     30  C   UNL     1      -0.853  10.361  18.229  0.00  0.00    +0.000 A 
ATOM     31  C   UNL     1      -1.056  11.569  18.911  0.00  0.00    +0.000 A 
ATOM     32  C   UNL     1      -2.332  12.128  19.029  0.00  0.00    +0.000 A 
BRANCH  27  35
ATOM     33  C   UNL     1      -6.784  12.599  17.117  0.00  0.00    +0.000 C 
ATOM     34  N   UNL     1      -5.368  12.568  17.380  0.00  0.00    +0.000 N 
ATOM     35  C   UNL     1      -4.804  12.046  18.516  0.00  0.00    +0.000 C 
ATOM     36  N   UNL     1      -5.415  12.048  19.664  0.00  0.00    +0.000 NA
ATOM     37  H   UNL     1      -4.794  12.545  16.543  0.00  0.00    +0.000 HD
ATOM     38  H   UNL     1      -6.324  12.505  19.566  0.00  0.00    +0.000 HD
ENDBRANCH  27  35
ENDBRANCH  26  30
ENDBRANCH   1  26
TORSDOF 7
ENDMDL
MODEL 8
REMARK VINA RESULT:      -7.9      4.471      7.654
REMARK  Name = 
REMARK  8 active torsions:
REMARK  status: ('A' for Active; 'I' for Inactive)
REMARK    1  A    between atoms: C_1  and  N_2
REMARK    2  A    between atoms: C_3  and  C_5
REMARK    3  A    between atoms: C_8  and  C_9
REMARK    4  A    between atoms: C_9  and  C_10
REMARK    5  A    between atoms: C_10  and  N_11
REMARK    6  A    between atoms: C_10  and  C_25
REMARK    7  A    between atoms: N_11  and  S_12
REMARK    8  A    between atoms: S_12  and  C_15
REMARK                            x       y       z     vdW  Elec       q    Type
REMARK                         _______ _______ _______ _____ _____    ______ ____
ROOT
ATOM      1  C   UNL     1       4.260   6.681  17.743  0.00  0.00    +0.000 C 
ENDROOT
BRANCH   1   2
ATOM      2  C   UNL     1       4.212   5.137  17.544  0.00  0.00    +0.000 C 
ATOM      3  O   UNL     1       4.415   4.643  16.431  0.00  0.00    +0.000 OA
ATOM      4  N   UNL     1       3.878   4.317  18.634  0.00  0.00    +0.000 N 
ATOM      5  C   UNL     1       3.948   2.873  18.424  0.00  0.00    +0.000 C 
ATOM      6  C   UNL     1       2.657   2.311  17.834  0.00  0.00    +0.000 C 
ATOM      7  C   UNL     1       1.515   2.164  18.836  0.00  0.00    +0.000 C 
ATOM      8  C   UNL     1       1.144   3.448  19.579  0.00  0.00    +0.000 C 
ATOM      9  C   UNL     1       2.243   3.911  20.533  0.00  0.00    +0.000 C 
ATOM     10  C   UNL     1       3.269   4.824  19.860  0.00  0.00    +0.000 C 
ENDBRANCH   1   2
BRANCH   1  11
ATOM     11  N   UNL     1       5.438   7.326  17.073  0.00  0.00    +0.000 NA
ATOM     12  H   UNL     1       5.302   7.604  16.098  0.00  0.00    +0.000 HD
BRANCH  11  13
ATOM     13  S   UNL     1       7.044   6.885  17.441  0.00  0.00    +0.000 S 
ATOM     14  O   UNL     1       6.955   6.089  18.641  0.00  0.00    +0.000 OA
ATOM     15  O   UNL     1       7.674   6.407  16.241  0.00  0.00    +0.000 OA
BRANCH  13  16
ATOM     16  C   UNL     1       7.824   8.419  17.932  0.00  0.00    +0.000 A 
ATOM     17  C   UNL     1       8.756   8.413  18.968  0.00  0.00    +0.000 A 
ATOM     18  C   UNL     1       9.425   9.591  19.311  0.00  0.00    +0.000 A 
ATOM     19  C   UNL     1       9.147  10.789  18.632  0.00  0.00    +0.000 A 
ATOM     20  C   UNL     1       9.945  11.930  18.820  0.00  0.00    +0.000 A 
ATOM     21  C   UNL     1       9.668  13.109  18.131  0.00  0.00    +0.000 A 
ATOM     22  C   UNL     1       8.500  13.210  17.382  0.00  0.00    +0.000 A 
ATOM     23  C   UNL     1       7.706  12.081  17.173  0.00  0.00    +0.000 A 
ATOM     24  C   UNL     1       8.077  10.835  17.714  0.00  0.00    +0.000 A 
ATOM     25  C   UNL     1       7.432   9.632  17.349  0.00  0.00    +0.000 A 
ENDBRANCH  13  16
ENDBRANCH  11  13
ENDBRANCH   1  11
BRANCH   1  26
ATOM     26  C   UNL     1       2.945   7.370  17.313  0.00  0.00    +0.000 C 
BRANCH  26  30
ATOM     27  C   UNL     1       1.021  10.013  20.150  0.00  0.00    +0.000 A 
ATOM     28  C   UNL     1       1.384   8.716  20.540  0.00  0.00    +0.000 A 
ATOM     29  C   UNL     1       2.043   7.868  19.656  0.00  0.00    +0.000 A 
ATOM     30  C   UNL     1       2.318   8.290  18.350  0.00  0.00    +0.000 A 
ATOM     31  C   UNL     1       1.995   9.605  17.984  0.00  0.00    +0.000 A 
ATOM     32  C   UNL     1       1.346  10.466  18.873  0.00  0.00    +0.000 A 
BRANCH  27  35
ATOM     33  C   UNL     1      -1.183  10.799  23.136  0.00  0.00    +0.000 C 
ATOM     34  N   UNL     1      -0.780  10.356  21.826  0.00  0.00    +0.000 N 
ATOM     35  C   UNL     1       0.281  10.873  21.128  0.00  0.00    +0.000 C 
ATOM     36  N   UNL     1       0.670  12.108  21.259  0.00  0.00    +0.000 NA
ATOM     37  H   UNL     1      -1.020   9.390  21.627  0.00  0.00    +0.000 HD
ATOM     38  H   UNL     1       0.056  12.589  21.921  0.00  0.00    +0.000 HD
ENDBRANCH  27  35
ENDBRANCH  26  30
ENDBRANCH   1  26
TORSDOF 7
ENDMDL
MODEL 9
REMARK VINA RESULT:      -7.9      3.021      7.228
REMARK  Name = 
REMARK  8 active torsions:
REMARK  status: ('A' for Active; 'I' for Inactive)
REMARK    1  A    between atoms: C_1  and  N_2
REMARK    2  A    between atoms: C_3  and  C_5
REMARK    3  A    between atoms: C_8  and  C_9
REMARK    4  A    between atoms: C_9  and  C_10
REMARK    5  A    between atoms: C_10  and  N_11
REMARK    6  A    between atoms: C_10  and  C_25
REMARK    7  A    between atoms: N_11  and  S_12
REMARK    8  A    between atoms: S_12  and  C_15
REMARK                            x       y       z     vdW  Elec       q    Type
REMARK                         _______ _______ _______ _____ _____    ______ ____
ROOT
ATOM      1  C   UNL     1       2.142   7.064  18.910  0.00  0.00    +0.000 C 
ENDROOT
BRANCH   1   2
ATOM      2  C   UNL     1       1.825   5.785  19.742  0.00  0.00    +0.000 C 
ATOM      3  O   UNL     1       1.886   5.809  20.974  0.00  0.00    +0.000 OA
ATOM      4  N   UNL     1       1.524   4.590  19.070  0.00  0.00    +0.000 N 
ATOM      5  C   UNL     1       1.133   3.447  19.892  0.00  0.00    +0.000 C 
ATOM      6  C   UNL     1       2.338   2.655  20.392  0.00  0.00    +0.000 C 
ATOM      7  C   UNL     1       2.980   1.749  19.344  0.00  0.00    +0.000 C 
ATOM      8  C   UNL     1       3.414   2.460  18.062  0.00  0.00    +0.000 C 
ATOM      9  C   UNL     1       2.230   2.972  17.245  0.00  0.00    +0.000 C 
ATOM     10  C   UNL     1       1.792   4.380  17.651  0.00  0.00    +0.000 C 
ENDBRANCH   1   2
BRANCH   1  11
ATOM     11  N   UNL     1       1.403   8.279  19.391  0.00  0.00    +0.000 NA
ATOM     12  H   UNL     1       0.522   8.103  19.881  0.00  0.00    +0.000 HD
BRANCH  11  13
ATOM     13  S   UNL     1       1.427   9.753  18.534  0.00  0.00    +0.000 S 
ATOM     14  O   UNL     1       1.941  10.728  19.465  0.00  0.00    +0.000 OA
ATOM     15  O   UNL     1       2.024   9.524  17.247  0.00  0.00    +0.000 OA
BRANCH  13  16
ATOM     16  C   UNL     1      -0.300  10.162  18.305  0.00  0.00    +0.000 A 
ATOM     17  C   UNL     1      -1.008   9.583  17.255  0.00  0.00    +0.000 A 
ATOM     18  C   UNL     1      -2.374   9.838  17.111  0.00  0.00    +0.000 A 
ATOM     19  C   UNL     1      -3.036  10.696  18.006  0.00  0.00    +0.000 A 
ATOM     20  C   UNL     1      -4.435  10.806  18.003  0.00  0.00    +0.000 A 
ATOM     21  C   UNL     1      -5.082  11.649  18.905  0.00  0.00    +0.000 A 
ATOM     22  C   UNL     1      -4.332  12.511  19.699  0.00  0.00    +0.000 A 
ATOM     23  C   UNL     1      -2.940  12.401  19.726  0.00  0.00    +0.000 A 
ATOM     24  C   UNL     1      -2.285  11.423  18.953  0.00  0.00    +0.000 A 
ATOM     25  C   UNL     1      -0.912  11.131  19.114  0.00  0.00    +0.000 A 
ENDBRANCH  13  16
ENDBRANCH  11  13
ENDBRANCH   1  11
BRANCH   1  26
ATOM     26  C   UNL     1       3.658   7.348  18.825  0.00  0.00    +0.000 C 
BRANCH  26  30
ATOM     27  C   UNL     1       5.848   5.443  15.614  0.00  0.00    +0.000 A 
ATOM     28  C   UNL     1       5.930   4.929  16.915  0.00  0.00    +0.000 A 
ATOM     29  C   UNL     1       5.199   5.501  17.952  0.00  0.00    +0.000 A 
ATOM     30  C   UNL     1       4.399   6.624  17.710  0.00  0.00    +0.000 A 
ATOM     31  C   UNL     1       4.284   7.101  16.397  0.00  0.00    +0.000 A 
ATOM     32  C   UNL     1       5.005   6.521  15.349  0.00  0.00    +0.000 A 
BRANCH  27  35
ATOM     33  C   UNL     1       6.563   3.443  12.471  0.00  0.00    +0.000 C 
ATOM     34  N   UNL     1       6.191   3.752  13.827  0.00  0.00    +0.000 N 
ATOM     35  C   UNL     1       6.684   4.814  14.541  0.00  0.00    +0.000 C 
ATOM     36  N   UNL     1       7.875   5.297  14.344  0.00  0.00    +0.000 NA
ATOM     37  H   UNL     1       5.261   3.433  14.081  0.00  0.00    +0.000 HD
ATOM     38  H   UNL     1       8.348   4.751  13.619  0.00  0.00    +0.000 HD
ENDBRANCH  27  35
ENDBRANCH  26  30
ENDBRANCH   1  26
TORSDOF 7
ENDMDL
