MODEL 1
REMARK VINA RESULT:      -9.0      0.000      0.000
REMARK  Name = 
REMARK  12 active torsions:
REMARK  status: ('A' for Active; 'I' for Inactive)
REMARK    1  A    between atoms: C_1  and  C_2
REMARK    2  A    between atoms: C_2  and  C_3
REMARK    3  A    between atoms: C_2  and  C_4
REMARK    4  A    between atoms: C_2  and  O_5
REMARK    5  A    between atoms: O_5  and  C_6
REMARK    6  A    between atoms: N_8  and  C_9
REMARK    7  A    between atoms: C_9  and  C_10
REMARK    8  A    between atoms: C_13  and  C_14
REMARK    9  A    between atoms: N_16  and  C_17
REMARK   10  A    between atoms: C_17  and  C_18
REMARK   11  A    between atoms: C_22  and  O_23
REMARK   12  A    between atoms: O_23  and  C_24
REMARK                            x       y       z     vdW  Elec       q    Type
REMARK                         _______ _______ _______ _____ _____    ______ ____
ROOT
ATOM      1  C   UNL     1       2.192   6.094  19.140  0.00  0.00    +0.000 A 
ATOM      2  N   UNL     1       2.519   5.810  17.871  0.00  0.00    +0.000 NA
ATOM      3  N   UNL     1       2.813   4.492  17.897  0.00  0.00    +0.000 N 
ATOM      4  C   UNL     1       2.652   3.910  19.133  0.00  0.00    +0.000 A 
ATOM      5  C   UNL     1       2.819   2.593  19.589  0.00  0.00    +0.000 A 
ATOM      6  C   UNL     1       2.564   2.337  20.940  0.00  0.00    +0.000 A 
ATOM      7  C   UNL     1       2.167   3.355  21.802  0.00  0.00    +0.000 A 
ATOM      8  C   UNL     1       2.010   4.661  21.336  0.00  0.00    +0.000 A 
ATOM      9  C   UNL     1       2.254   4.945  19.976  0.00  0.00    +0.000 A 
ENDROOT
BRANCH   1  13
ATOM     10  C   UNL     1       1.194   9.483  19.688  0.00  0.00    +0.000 A 
ATOM     11  N   UNL     1       1.245   9.130  20.977  0.00  0.00    +0.000 NA
ATOM     12  O   UNL     1       1.642   7.796  20.925  0.00  0.00    +0.000 OA
ATOM     13  C   UNL     1       1.806   7.470  19.601  0.00  0.00    +0.000 A 
ATOM     14  N   UNL     1       1.569   8.499  18.808  0.00  0.00    +0.000 NA
BRANCH  10  15
ATOM     15  C   UNL     1       0.646  10.783  19.238  0.00  0.00    +0.000 C 
BRANCH  15  18
ATOM     16  C   UNL     1      -1.389  11.817  18.488  0.00  0.00    +0.000 C 
ATOM     17  O   UNL     1      -0.748  12.731  17.984  0.00  0.00    +0.000 OA
ATOM     18  N   UNL     1      -0.794  10.785  19.147  0.00  0.00    +0.000 N 
ATOM     19  H   UNL     1      -1.367  10.079  19.592  0.00  0.00    +0.000 HD
BRANCH  16  20
ATOM     20  O   UNL     1      -2.739  11.685  18.476  0.00  0.00    +0.000 OA
BRANCH  20  22
ATOM     21  C   UNL     1      -3.505   9.454  17.763  0.00  0.00    +0.000 C 
ATOM     22  C   UNL     1      -3.343  10.934  17.389  0.00  0.00    +0.000 C 
ATOM     23  C   UNL     1      -2.550  11.119  16.087  0.00  0.00    +0.000 C 
ATOM     24  C   UNL     1      -4.750  11.519  17.181  0.00  0.00    +0.000 C 
ENDBRANCH  20  22
ENDBRANCH  16  20
ENDBRANCH  15  18
ENDBRANCH  10  15
ENDBRANCH   1  13
BRANCH   3  25
ATOM     25  C   UNL     1       3.322   3.850  16.688  0.00  0.00    +0.000 C 
BRANCH  25  26
ATOM     26  C   UNL     1       4.776   4.172  16.450  0.00  0.00    +0.000 A 
ATOM     27  C   UNL     1       5.251   4.399  15.149  0.00  0.00    +0.000 A 
ATOM     28  C   UNL     1       6.607   4.631  14.928  0.00  0.00    +0.000 A 
ATOM     29  C   UNL     1       7.491   4.666  16.004  0.00  0.00    +0.000 A 
ATOM     30  C   UNL     1       7.027   4.501  17.312  0.00  0.00    +0.000 A 
ATOM     31  C   UNL     1       5.677   4.232  17.529  0.00  0.00    +0.000 A 
BRANCH  30  32
ATOM     32  O   UNL     1       7.995   4.550  18.268  0.00  0.00    +0.000 OA
BRANCH  32  33
ATOM     33  C   UNL     1       7.974   5.584  19.242  0.00  0.00    +0.000 C 
ATOM     34  F   UNL     1       6.791   5.732  19.874  0.00  0.00    +0.000 F 
ATOM     35  F   UNL     1       8.929   5.343  20.166  0.00  0.00    +0.000 F 
ATOM     36  F   UNL     1       8.266   6.754  18.631  0.00  0.00    +0.000 F 
ENDBRANCH  32  33
ENDBRANCH  30  32
ENDBRANCH  25  26
ENDBRANCH   3  25
TORSDOF 9
ENDMDL
MODEL 2
REMARK VINA RESULT:      -8.6      0.225      1.039
REMARK  Name = 
REMARK  12 active torsions:
REMARK  status: ('A' for Active; 'I' for Inactive)
REMARK    1  A    between atoms: C_1  and  C_2
REMARK    2  A    between atoms: C_2  and  C_3
REMARK    3  A    between atoms: C_2  and  C_4
REMARK    4  A    between atoms: C_2  and  O_5
REMARK    5  A    between atoms: O_5  and  C_6
REMARK    6  A    between atoms: N_8  and  C_9
REMARK    7  A    between atoms: C_9  and  C_10
REMARK    8  A    between atoms: C_13  and  C_14
REMARK    9  A    between atoms: N_16  and  C_17
REMARK   10  A    between atoms: C_17  and  C_18
REMARK   11  A    between atoms: C_22  and  O_23
REMARK   12  A    between atoms: O_23  and  C_24
REMARK                            x       y       z     vdW  Elec       q    Type
REMARK                         _______ _______ _______ _____ _____    ______ ____
ROOT
ATOM      1  C   UNL     1       2.228   6.100  19.225  0.00  0.00    +0.000 A 
ATOM      2  N   UNL     1       2.547   5.850  17.947  0.00  0.00    +0.000 NA
ATOM      3  N   UNL     1       2.825   4.529  17.931  0.00  0.00    +0.000 N 
ATOM      4  C   UNL     1       2.660   3.911  19.150  0.00  0.00    +0.000 A 
ATOM      5  C   UNL     1       2.812   2.580  19.565  0.00  0.00    +0.000 A 
ATOM      6  C   UNL     1       2.558   2.285  20.908  0.00  0.00    +0.000 A 
ATOM      7  C   UNL     1       2.176   3.281  21.803  0.00  0.00    +0.000 A 
ATOM      8  C   UNL     1       2.034   4.603  21.377  0.00  0.00    +0.000 A 
ATOM      9  C   UNL     1       2.277   4.925  20.025  0.00  0.00    +0.000 A 
ENDROOT
BRANCH   1  13
ATOM     10  C   UNL     1       1.230   9.469  19.884  0.00  0.00    +0.000 A 
ATOM     11  N   UNL     1       1.385   9.105  21.162  0.00  0.00    +0.000 NA
ATOM     12  O   UNL     1       1.795   7.777  21.065  0.00  0.00    +0.000 OA
ATOM     13  C   UNL     1       1.861   7.466  19.729  0.00  0.00    +0.000 A 
ATOM     14  N   UNL     1       1.549   8.498  18.967  0.00  0.00    +0.000 NA
BRANCH  10  15
ATOM     15  C   UNL     1       0.632  10.765  19.491  0.00  0.00    +0.000 C 
BRANCH  15  18
ATOM     16  C   UNL     1      -1.423  11.680  18.647  0.00  0.00    +0.000 C 
ATOM     17  O   UNL     1      -0.806  12.590  18.107  0.00  0.00    +0.000 OA
ATOM     18  N   UNL     1      -0.806  10.708  19.372  0.00  0.00    +0.000 N 
ATOM     19  H   UNL     1      -1.361  10.005  19.843  0.00  0.00    +0.000 HD
BRANCH  16  20
ATOM     20  O   UNL     1      -2.767  11.496  18.615  0.00  0.00    +0.000 OA
BRANCH  20  22
ATOM     21  C   UNL     1      -4.389  11.594  16.763  0.00  0.00    +0.000 C 
ATOM     22  C   UNL     1      -3.330  10.759  17.496  0.00  0.00    +0.000 C 
ATOM     23  C   UNL     1      -3.878   9.400  17.954  0.00  0.00    +0.000 C 
ATOM     24  C   UNL     1      -2.174  10.505  16.513  0.00  0.00    +0.000 C 
ENDBRANCH  20  22
ENDBRANCH  16  20
ENDBRANCH  15  18
ENDBRANCH  10  15
ENDBRANCH   1  13
BRANCH   3  25
ATOM     25  C   UNL     1       3.322   3.918  16.703  0.00  0.00    +0.000 C 
BRANCH  25  26
ATOM     26  C   UNL     1       4.779   4.233  16.467  0.00  0.00    +0.000 A 
ATOM     27  C   UNL     1       5.255   4.469  15.169  0.00  0.00    +0.000 A 
ATOM     28  C   UNL     1       6.612   4.694  14.949  0.00  0.00    +0.000 A 
ATOM     29  C   UNL     1       7.497   4.713  16.026  0.00  0.00    +0.000 A 
ATOM     30  C   UNL     1       7.032   4.540  17.332  0.00  0.00    +0.000 A 
ATOM     31  C   UNL     1       5.680   4.276  17.546  0.00  0.00    +0.000 A 
BRANCH  30  32
ATOM     32  O   UNL     1       8.001   4.573  18.288  0.00  0.00    +0.000 OA
BRANCH  32  33
ATOM     33  C   UNL     1       8.015   5.626  19.241  0.00  0.00    +0.000 C 
ATOM     34  F   UNL     1       8.328   6.836  18.734  0.00  0.00    +0.000 F 
ATOM     35  F   UNL     1       6.803   5.707  19.832  0.00  0.00    +0.000 F 
ATOM     36  F   UNL     1       8.927   5.329  20.194  0.00  0.00    +0.000 F 
ENDBRANCH  32  33
ENDBRANCH  30  32
ENDBRANCH  25  26
ENDBRANCH   3  25
TORSDOF 9
ENDMDL
MODEL 3
REMARK VINA RESULT:      -8.6      2.861      3.402
REMARK  Name = 
REMARK  12 active torsions:
REMARK  status: ('A' for Active; 'I' for Inactive)
REMARK    1  A    between atoms: C_1  and  C_2
REMARK    2  A    between atoms: C_2  and  C_3
REMARK    3  A    between atoms: C_2  and  C_4
REMARK    4  A    between atoms: C_2  and  O_5
REMARK    5  A    between atoms: O_5  and  C_6
REMARK    6  A    between atoms: N_8  and  C_9
REMARK    7  A    between atoms: C_9  and  C_10
REMARK    8  A    between atoms: C_13  and  C_14
REMARK    9  A    between atoms: N_16  and  C_17
REMARK   10  A    between atoms: C_17  and  C_18
REMARK   11  A    between atoms: C_22  and  O_23
REMARK   12  A    between atoms: O_23  and  C_24
REMARK                            x       y       z     vdW  Elec       q    Type
REMARK                         _______ _______ _______ _____ _____    ______ ____
ROOT
ATOM      1  C   UNL     1       3.016   6.297  18.660  0.00  0.00    +0.000 A 
ATOM      2  N   UNL     1       4.191   5.956  18.110  0.00  0.00    +0.000 NA
ATOM      3  N   UNL     1       4.395   4.690  18.533  0.00  0.00    +0.000 N 
ATOM      4  C   UNL     1       3.373   4.191  19.308  0.00  0.00    +0.000 A 
ATOM      5  C   UNL     1       3.170   2.944  19.918  0.00  0.00    +0.000 A 
ATOM      6  C   UNL     1       1.993   2.764  20.652  0.00  0.00    +0.000 A 
ATOM      7  C   UNL     1       1.060   3.790  20.778  0.00  0.00    +0.000 A 
ATOM      8  C   UNL     1       1.278   5.028  20.169  0.00  0.00    +0.000 A 
ATOM      9  C   UNL     1       2.454   5.232  19.418  0.00  0.00    +0.000 A 
ENDROOT
BRANCH   1  13
ATOM     10  C   UNL     1       1.384   9.475  18.781  0.00  0.00    +0.000 A 
ATOM     11  N   UNL     1       1.846   9.590  17.531  0.00  0.00    +0.000 NA
ATOM     12  O   UNL     1       2.516   8.385  17.328  0.00  0.00    +0.000 OA
ATOM     13  C   UNL     1       2.385   7.648  18.480  0.00  0.00    +0.000 A 
ATOM     14  N   UNL     1       1.664   8.277  19.389  0.00  0.00    +0.000 NA
BRANCH  10  15
ATOM     15  C   UNL     1       0.745  10.600  19.501  0.00  0.00    +0.000 C 
BRANCH  15  18
ATOM     16  C   UNL     1      -1.288  11.723  18.884  0.00  0.00    +0.000 C 
ATOM     17  O   UNL     1      -0.649  12.714  18.553  0.00  0.00    +0.000 OA
ATOM     18  N   UNL     1      -0.694  10.602  19.377  0.00  0.00    +0.000 N 
ATOM     19  H   UNL     1      -1.265   9.826  19.686  0.00  0.00    +0.000 HD
BRANCH  16  20
ATOM     20  O   UNL     1      -2.635  11.580  18.818  0.00  0.00    +0.000 OA
BRANCH  20  22
ATOM     21  C   UNL     1      -3.450   9.463  17.856  0.00  0.00    +0.000 C 
ATOM     22  C   UNL     1      -3.200  10.961  17.631  0.00  0.00    +0.000 C 
ATOM     23  C   UNL     1      -2.319  11.224  16.402  0.00  0.00    +0.000 C 
ATOM     24  C   UNL     1      -4.565  11.630  17.396  0.00  0.00    +0.000 C 
ENDBRANCH  20  22
ENDBRANCH  16  20
ENDBRANCH  15  18
ENDBRANCH  10  15
ENDBRANCH   1  13
BRANCH   3  25
ATOM     25  C   UNL     1       5.652   4.022  18.210  0.00  0.00    +0.000 C 
BRANCH  25  26
ATOM     26  C   UNL     1       6.093   4.307  16.795  0.00  0.00    +0.000 A 
ATOM     27  C   UNL     1       7.326   4.928  16.545  0.00  0.00    +0.000 A 
ATOM     28  C   UNL     1       7.699   5.248  15.242  0.00  0.00    +0.000 A 
ATOM     29  C   UNL     1       6.858   4.926  14.179  0.00  0.00    +0.000 A 
ATOM     30  C   UNL     1       5.653   4.254  14.403  0.00  0.00    +0.000 A 
ATOM     31  C   UNL     1       5.264   3.968  15.711  0.00  0.00    +0.000 A 
BRANCH  30  32
ATOM     32  O   UNL     1       4.924   4.006  13.280  0.00  0.00    +0.000 OA
BRANCH  32  33
ATOM     33  C   UNL     1       5.501   3.269  12.212  0.00  0.00    +0.000 C 
ATOM     34  F   UNL     1       6.232   2.202  12.599  0.00  0.00    +0.000 F 
ATOM     35  F   UNL     1       4.521   2.844  11.385  0.00  0.00    +0.000 F 
ATOM     36  F   UNL     1       6.313   4.093  11.512  0.00  0.00    +0.000 F 
ENDBRANCH  32  33
ENDBRANCH  30  32
ENDBRANCH  25  26
ENDBRANCH   3  25
TORSDOF 9
ENDMDL
MODEL 4
REMARK VINA RESULT:      -8.5      2.097      3.245
REMARK  Name = 
REMARK  12 active torsions:
REMARK  status: ('A' for Active; 'I' for Inactive)
REMARK    1  A    between atoms: C_1  and  C_2
REMARK    2  A    between atoms: C_2  and  C_3
REMARK    3  A    between atoms: C_2  and  C_4
REMARK    4  A    between atoms: C_2  and  O_5
REMARK    5  A    between atoms: O_5  and  C_6
REMARK    6  A    between atoms: N_8  and  C_9
REMARK    7  A    between atoms: C_9  and  C_10
REMARK    8  A    between atoms: C_13  and  C_14
REMARK    9  A    between atoms: N_16  and  C_17
REMARK   10  A    between atoms: C_17  and  C_18
REMARK   11  A    between atoms: C_22  and  O_23
REMARK   12  A    between atoms: O_23  and  C_24
REMARK                            x       y       z     vdW  Elec       q    Type
REMARK                         _______ _______ _______ _____ _____    ______ ____
ROOT
ATOM      1  C   UNL     1       2.168   6.095  18.842  0.00  0.00    +0.000 A 
ATOM      2  N   UNL     1       2.639   5.770  17.629  0.00  0.00    +0.000 NA
ATOM      3  N   UNL     1       2.819   4.433  17.695  0.00  0.00    +0.000 N 
ATOM      4  C   UNL     1       2.446   3.880  18.898  0.00  0.00    +0.000 A 
ATOM      5  C   UNL     1       2.443   2.560  19.372  0.00  0.00    +0.000 A 
ATOM      6  C   UNL     1       1.988   2.340  20.676  0.00  0.00    +0.000 A 
ATOM      7  C   UNL     1       1.562   3.396  21.477  0.00  0.00    +0.000 A 
ATOM      8  C   UNL     1       1.575   4.705  20.993  0.00  0.00    +0.000 A 
ATOM      9  C   UNL     1       2.023   4.953  19.679  0.00  0.00    +0.000 A 
ENDROOT
BRANCH   1  13
ATOM     10  C   UNL     1       1.250   9.524  19.258  0.00  0.00    +0.000 A 
ATOM     11  N   UNL     1       1.414   9.253  20.558  0.00  0.00    +0.000 NA
ATOM     12  O   UNL     1       1.795   7.913  20.556  0.00  0.00    +0.000 OA
ATOM     13  C   UNL     1       1.836   7.502  19.246  0.00  0.00    +0.000 A 
ATOM     14  N   UNL     1       1.535   8.481  18.413  0.00  0.00    +0.000 NA
BRANCH  10  15
ATOM     15  C   UNL     1       0.673  10.800  18.776  0.00  0.00    +0.000 C 
BRANCH  15  18
ATOM     16  C   UNL     1       2.158  12.665  19.074  0.00  0.00    +0.000 C 
ATOM     17  O   UNL     1       1.782  12.790  20.233  0.00  0.00    +0.000 OA
ATOM     18  N   UNL     1       1.667  11.703  18.247  0.00  0.00    +0.000 N 
ATOM     19  H   UNL     1       1.969  11.670  17.281  0.00  0.00    +0.000 HD
BRANCH  16  20
ATOM     20  O   UNL     1       3.085  13.432  18.447  0.00  0.00    +0.000 OA
BRANCH  20  22
ATOM     21  C   UNL     1       3.863  15.262  19.902  0.00  0.00    +0.000 C 
ATOM     22  C   UNL     1       3.046  14.868  18.664  0.00  0.00    +0.000 C 
ATOM     23  C   UNL     1       1.597  15.373  18.742  0.00  0.00    +0.000 C 
ATOM     24  C   UNL     1       3.714  15.514  17.438  0.00  0.00    +0.000 C 
ENDBRANCH  20  22
ENDBRANCH  16  20
ENDBRANCH  15  18
ENDBRANCH  10  15
ENDBRANCH   1  13
BRANCH   3  25
ATOM     25  C   UNL     1       3.433   3.740  16.567  0.00  0.00    +0.000 C 
BRANCH  25  26
ATOM     26  C   UNL     1       4.871   4.150  16.368  0.00  0.00    +0.000 A 
ATOM     27  C   UNL     1       5.351   4.467  15.089  0.00  0.00    +0.000 A 
ATOM     28  C   UNL     1       6.695   4.781  14.901  0.00  0.00    +0.000 A 
ATOM     29  C   UNL     1       7.561   4.809  15.992  0.00  0.00    +0.000 A 
ATOM     30  C   UNL     1       7.089   4.555  17.283  0.00  0.00    +0.000 A 
ATOM     31  C   UNL     1       5.752   4.203  17.464  0.00  0.00    +0.000 A 
BRANCH  30  32
ATOM     32  O   UNL     1       8.040   4.608  18.256  0.00  0.00    +0.000 OA
BRANCH  32  33
ATOM     33  C   UNL     1       7.995   5.639  19.231  0.00  0.00    +0.000 C 
ATOM     34  F   UNL     1       8.367   6.854  18.778  0.00  0.00    +0.000 F 
ATOM     35  F   UNL     1       6.742   5.729  19.726  0.00  0.00    +0.000 F 
ATOM     36  F   UNL     1       8.824   5.305  20.246  0.00  0.00    +0.000 F 
ENDBRANCH  32  33
ENDBRANCH  30  32
ENDBRANCH  25  26
ENDBRANCH   3  25
TORSDOF 9
ENDMDL
MODEL 5
REMARK VINA RESULT:      -8.4      4.894     10.421
REMARK  Name = 
REMARK  12 active torsions:
REMARK  status: ('A' for Active; 'I' for Inactive)
REMARK    1  A    between atoms: C_1  and  C_2
REMARK    2  A    between atoms: C_2  and  C_3
REMARK    3  A    between atoms: C_2  and  C_4
REMARK    4  A    between atoms: C_2  and  O_5
REMARK    5  A    between atoms: O_5  and  C_6
REMARK    6  A    between atoms: N_8  and  C_9
REMARK    7  A    between atoms: C_9  and  C_10
REMARK    8  A    between atoms: C_13  and  C_14
REMARK    9  A    between atoms: N_16  and  C_17
REMARK   10  A    between atoms: C_17  and  C_18
REMARK   11  A    between atoms: C_22  and  O_23
REMARK   12  A    between atoms: O_23  and  C_24
REMARK                            x       y       z     vdW  Elec       q    Type
REMARK                         _______ _______ _______ _____ _____    ______ ____
ROOT
ATOM      1  C   UNL     1       0.908   9.575  19.523  0.00  0.00    +0.000 A 
ATOM      2  N   UNL     1       0.436  10.534  18.712  0.00  0.00    +0.000 NA
ATOM      3  N   UNL     1      -0.381  11.261  19.504  0.00  0.00    +0.000 N 
ATOM      4  C   UNL     1      -0.424  10.825  20.808  0.00  0.00    +0.000 A 
ATOM      5  C   UNL     1      -1.107  11.293  21.941  0.00  0.00    +0.000 A 
ATOM      6  C   UNL     1      -0.924  10.600  23.142  0.00  0.00    +0.000 A 
ATOM      7  C   UNL     1      -0.100   9.480  23.207  0.00  0.00    +0.000 A 
ATOM      8  C   UNL     1       0.569   9.022  22.070  0.00  0.00    +0.000 A 
ATOM      9  C   UNL     1       0.407   9.707  20.848  0.00  0.00    +0.000 A 
ENDROOT
BRANCH   1  13
ATOM     10  C   UNL     1       2.894   6.690  18.811  0.00  0.00    +0.000 A 
ATOM     11  N   UNL     1       3.385   7.458  17.832  0.00  0.00    +0.000 NA
ATOM     12  O   UNL     1       2.695   8.657  17.992  0.00  0.00    +0.000 OA
ATOM     13  C   UNL     1       1.853   8.503  19.066  0.00  0.00    +0.000 A 
ATOM     14  N   UNL     1       1.973   7.309  19.618  0.00  0.00    +0.000 NA
BRANCH  10  15
ATOM     15  C   UNL     1       3.212   5.249  18.930  0.00  0.00    +0.000 C 
BRANCH  15  18
ATOM     16  C   UNL     1       4.922   4.296  17.537  0.00  0.00    +0.000 C 
ATOM     17  O   UNL     1       5.749   4.462  18.425  0.00  0.00    +0.000 OA
ATOM     18  N   UNL     1       3.617   4.656  17.678  0.00  0.00    +0.000 N 
ATOM     19  H   UNL     1       2.981   4.547  16.899  0.00  0.00    +0.000 HD
BRANCH  16  20
ATOM     20  O   UNL     1       5.156   3.749  16.318  0.00  0.00    +0.000 OA
BRANCH  20  22
ATOM     21  C   UNL     1       5.346   5.990  15.309  0.00  0.00    +0.000 C 
ATOM     22  C   UNL     1       5.870   4.547  15.335  0.00  0.00    +0.000 C 
ATOM     23  C   UNL     1       5.818   3.887  13.950  0.00  0.00    +0.000 C 
ATOM     24  C   UNL     1       7.338   4.592  15.792  0.00  0.00    +0.000 C 
ENDBRANCH  20  22
ENDBRANCH  16  20
ENDBRANCH  15  18
ENDBRANCH  10  15
ENDBRANCH   1  13
BRANCH   3  25
ATOM     25  C   UNL     1      -1.164  12.345  18.918  0.00  0.00    +0.000 C 
BRANCH  25  26
ATOM     26  C   UNL     1      -2.558  11.899  18.553  0.00  0.00    +0.000 A 
ATOM     27  C   UNL     1      -2.761  10.973  17.519  0.00  0.00    +0.000 A 
ATOM     28  C   UNL     1      -4.054  10.614  17.142  0.00  0.00    +0.000 A 
ATOM     29  C   UNL     1      -5.149  11.155  17.813  0.00  0.00    +0.000 A 
ATOM     30  C   UNL     1      -4.965  12.033  18.884  0.00  0.00    +0.000 A 
ATOM     31  C   UNL     1      -3.672  12.420  19.235  0.00  0.00    +0.000 A 
BRANCH  30  32
ATOM     32  O   UNL     1      -6.116  12.493  19.446  0.00  0.00    +0.000 OA
BRANCH  32  33
ATOM     33  C   UNL     1      -6.539  11.988  20.704  0.00  0.00    +0.000 C 
ATOM     34  F   UNL     1      -5.644  12.148  21.700  0.00  0.00    +0.000 F 
ATOM     35  F   UNL     1      -7.693  12.592  21.060  0.00  0.00    +0.000 F 
ATOM     36  F   UNL     1      -6.781  10.664  20.575  0.00  0.00    +0.000 F 
ENDBRANCH  32  33
ENDBRANCH  30  32
ENDBRANCH  25  26
ENDBRANCH   3  25
TORSDOF 9
ENDMDL
MODEL 6
REMARK VINA RESULT:      -8.4      2.000      2.380
REMARK  Name = 
REMARK  12 active torsions:
REMARK  status: ('A' for Active; 'I' for Inactive)
REMARK    1  A    between atoms: C_1  and  C_2
REMARK    2  A    between atoms: C_2  and  C_3
REMARK    3  A    between atoms: C_2  and  C_4
REMARK    4  A    between atoms: C_2  and  O_5
REMARK    5  A    between atoms: O_5  and  C_6
REMARK    6  A    between atoms: N_8  and  C_9
REMARK    7  A    between atoms: C_9  and  C_10
REMARK    8  A    between atoms: C_13  and  C_14
REMARK    9  A    between atoms: N_16  and  C_17
REMARK   10  A    between atoms: C_17  and  C_18
REMARK   11  A    between atoms: C_22  and  O_23
REMARK   12  A    between atoms: O_23  and  C_24
REMARK                            x       y       z     vdW  Elec       q    Type
REMARK                         _______ _______ _______ _____ _____    ______ ____
ROOT
ATOM      1  C   UNL     1       2.211   5.883  19.158  0.00  0.00    +0.000 A 
ATOM      2  N   UNL     1       2.613   5.692  17.892  0.00  0.00    +0.000 NA
ATOM      3  N   UNL     1       2.817   4.360  17.811  0.00  0.00    +0.000 N 
ATOM      4  C   UNL     1       2.525   3.680  18.972  0.00  0.00    +0.000 A 
ATOM      5  C   UNL     1       2.570   2.319  19.309  0.00  0.00    +0.000 A 
ATOM      6  C   UNL     1       2.198   1.960  20.608  0.00  0.00    +0.000 A 
ATOM      7  C   UNL     1       1.804   2.921  21.535  0.00  0.00    +0.000 A 
ATOM      8  C   UNL     1       1.770   4.272  21.187  0.00  0.00    +0.000 A 
ATOM      9  C   UNL     1       2.134   4.661  19.881  0.00  0.00    +0.000 A 
ENDROOT
BRANCH   1  13
ATOM     10  C   UNL     1       1.337   9.254  19.962  0.00  0.00    +0.000 A 
ATOM     11  N   UNL     1       1.419   8.815  21.222  0.00  0.00    +0.000 NA
ATOM     12  O   UNL     1       1.773   7.476  21.069  0.00  0.00    +0.000 OA
ATOM     13  C   UNL     1       1.883   7.235  19.721  0.00  0.00    +0.000 A 
ATOM     14  N   UNL     1       1.652   8.321  19.006  0.00  0.00    +0.000 NA
BRANCH  10  15
ATOM     15  C   UNL     1       0.815  10.597  19.617  0.00  0.00    +0.000 C 
BRANCH  15  18
ATOM     16  C   UNL     1      -0.447  11.681  21.351  0.00  0.00    +0.000 C 
ATOM     17  O   UNL     1       0.584  12.146  21.821  0.00  0.00    +0.000 OA
ATOM     18  N   UNL     1      -0.452  10.886  20.246  0.00  0.00    +0.000 N 
ATOM     19  H   UNL     1      -1.322  10.483  19.924  0.00  0.00    +0.000 HD
BRANCH  16  20
ATOM     20  O   UNL     1      -1.702  11.872  21.829  0.00  0.00    +0.000 OA
BRANCH  20  22
ATOM     21  C   UNL     1      -1.805  14.167  20.938  0.00  0.00    +0.000 C 
ATOM     22  C   UNL     1      -2.127  13.233  22.112  0.00  0.00    +0.000 C 
ATOM     23  C   UNL     1      -1.525  13.733  23.433  0.00  0.00    +0.000 C 
ATOM     24  C   UNL     1      -3.657  13.190  22.267  0.00  0.00    +0.000 C 
ENDBRANCH  20  22
ENDBRANCH  16  20
ENDBRANCH  15  18
ENDBRANCH  10  15
ENDBRANCH   1  13
BRANCH   3  25
ATOM     25  C   UNL     1       3.372   3.796  16.585  0.00  0.00    +0.000 C 
BRANCH  25  26
ATOM     26  C   UNL     1       4.804   4.221  16.367  0.00  0.00    +0.000 A 
ATOM     27  C   UNL     1       5.250   4.592  15.090  0.00  0.00    +0.000 A 
ATOM     28  C   UNL     1       6.587   4.921  14.882  0.00  0.00    +0.000 A 
ATOM     29  C   UNL     1       7.481   4.907  15.951  0.00  0.00    +0.000 A 
ATOM     30  C   UNL     1       7.043   4.598  17.242  0.00  0.00    +0.000 A 
ATOM     31  C   UNL     1       5.712   4.233  17.441  0.00  0.00    +0.000 A 
BRANCH  30  32
ATOM     32  O   UNL     1       8.018   4.614  18.192  0.00  0.00    +0.000 OA
BRANCH  32  33
ATOM     33  C   UNL     1       7.973   5.580  19.232  0.00  0.00    +0.000 C 
ATOM     34  F   UNL     1       6.768   5.706  19.826  0.00  0.00    +0.000 F 
ATOM     35  F   UNL     1       8.887   5.261  20.174  0.00  0.00    +0.000 F 
ATOM     36  F   UNL     1       8.306   6.783  18.714  0.00  0.00    +0.000 F 
ENDBRANCH  32  33
ENDBRANCH  30  32
ENDBRANCH  25  26
ENDBRANCH   3  25
TORSDOF 9
ENDMDL
MODEL 7
REMARK VINA RESULT:      -8.4      4.119      9.859
REMARK  Name = 
REMARK  12 active torsions:
REMARK  status: ('A' for Active; 'I' for Inactive)
REMARK    1  A    between atoms: C_1  and  C_2
REMARK    2  A    between atoms: C_2  and  C_3
REMARK    3  A    between atoms: C_2  and  C_4
REMARK    4  A    between atoms: C_2  and  O_5
REMARK    5  A    between atoms: O_5  and  C_6
REMARK    6  A    between atoms: N_8  and  C_9
REMARK    7  A    between atoms: C_9  and  C_10
REMARK    8  A    between atoms: C_13  and  C_14
REMARK    9  A    between atoms: N_16  and  C_17
REMARK   10  A    between atoms: C_17  and  C_18
REMARK   11  A    between atoms: C_22  and  O_23
REMARK   12  A    between atoms: O_23  and  C_24
REMARK                            x       y       z     vdW  Elec       q    Type
REMARK                         _______ _______ _______ _____ _____    ______ ____
ROOT
ATOM      1  C   UNL     1       0.979   9.645  19.635  0.00  0.00    +0.000 A 
ATOM      2  N   UNL     1       0.570  10.684  18.891  0.00  0.00    +0.000 NA
ATOM      3  N   UNL     1      -0.223  11.392  19.724  0.00  0.00    +0.000 N 
ATOM      4  C   UNL     1      -0.310  10.863  20.992  0.00  0.00    +0.000 A 
ATOM      5  C   UNL     1      -0.987  11.281  22.147  0.00  0.00    +0.000 A 
ATOM      6  C   UNL     1      -0.859  10.493  23.296  0.00  0.00    +0.000 A 
ATOM      7  C   UNL     1      -0.093   9.331  23.288  0.00  0.00    +0.000 A 
ATOM      8  C   UNL     1       0.571   8.924  22.129  0.00  0.00    +0.000 A 
ATOM      9  C   UNL     1       0.464   9.705  20.960  0.00  0.00    +0.000 A 
ENDROOT
BRANCH   1  13
ATOM     10  C   UNL     1       2.939   6.765  18.834  0.00  0.00    +0.000 A 
ATOM     11  N   UNL     1       3.212   7.449  17.718  0.00  0.00    +0.000 NA
ATOM     12  O   UNL     1       2.505   8.637  17.892  0.00  0.00    +0.000 OA
ATOM     13  C   UNL     1       1.877   8.562  19.112  0.00  0.00    +0.000 A 
ATOM     14  N   UNL     1       2.149   7.432  19.738  0.00  0.00    +0.000 NA
BRANCH  10  15
ATOM     15  C   UNL     1       3.341   5.352  19.023  0.00  0.00    +0.000 C 
BRANCH  15  18
ATOM     16  C   UNL     1       4.402   4.201  17.201  0.00  0.00    +0.000 C 
ATOM     17  O   UNL     1       3.318   3.768  16.832  0.00  0.00    +0.000 OA
ATOM     18  N   UNL     1       4.535   5.005  18.291  0.00  0.00    +0.000 N 
ATOM     19  H   UNL     1       5.457   5.297  18.588  0.00  0.00    +0.000 HD
BRANCH  16  20
ATOM     20  O   UNL     1       5.601   3.965  16.611  0.00  0.00    +0.000 OA
BRANCH  20  22
ATOM     21  C   UNL     1       5.281   6.105  15.432  0.00  0.00    +0.000 C 
ATOM     22  C   UNL     1       5.934   4.716  15.412  0.00  0.00    +0.000 C 
ATOM     23  C   UNL     1       5.572   3.923  14.148  0.00  0.00    +0.000 C 
ATOM     24  C   UNL     1       7.459   4.918  15.432  0.00  0.00    +0.000 C 
ENDBRANCH  20  22
ENDBRANCH  16  20
ENDBRANCH  15  18
ENDBRANCH  10  15
ENDBRANCH   1  13
BRANCH   3  25
ATOM     25  C   UNL     1      -0.940  12.554  19.211  0.00  0.00    +0.000 C 
BRANCH  25  26
ATOM     26  C   UNL     1      -2.375  12.228  18.877  0.00  0.00    +0.000 A 
ATOM     27  C   UNL     1      -3.415  12.640  19.724  0.00  0.00    +0.000 A 
ATOM     28  C   UNL     1      -4.731  12.279  19.446  0.00  0.00    +0.000 A 
ATOM     29  C   UNL     1      -5.021  11.531  18.307  0.00  0.00    +0.000 A 
ATOM     30  C   UNL     1      -4.006  11.163  17.419  0.00  0.00    +0.000 A 
ATOM     31  C   UNL     1      -2.685  11.492  17.719  0.00  0.00    +0.000 A 
BRANCH  30  32
ATOM     32  O   UNL     1      -4.424  10.429  16.351  0.00  0.00    +0.000 OA
BRANCH  32  33
ATOM     33  C   UNL     1      -3.550  10.224  15.251  0.00  0.00    +0.000 C 
ATOM     34  F   UNL     1      -2.808  11.300  14.918  0.00  0.00    +0.000 F 
ATOM     35  F   UNL     1      -2.720   9.196  15.529  0.00  0.00    +0.000 F 
ATOM     36  F   UNL     1      -4.292   9.884  14.173  0.00  0.00    +0.000 F 
ENDBRANCH  32  33
ENDBRANCH  30  32
ENDBRANCH  25  26
ENDBRANCH   3  25
TORSDOF 9
ENDMDL
MODEL 8
REMARK VINA RESULT:      -8.4      2.807      3.342
REMARK  Name = 
REMARK  12 active torsions:
REMARK  status: ('A' for Active; 'I' for Inactive)
REMARK    1  A    between atoms: C_1  and  C_2
REMARK    2  A    between atoms: C_2  and  C_3
REMARK    3  A    between atoms: C_2  and  C_4
REMARK    4  A    between atoms: C_2  and  O_5
REMARK    5  A    between atoms: O_5  and  C_6
REMARK    6  A    between atoms: N_8  and  C_9
REMARK    7  A    between atoms: C_9  and  C_10
REMARK    8  A    between atoms: C_13  and  C_14
REMARK    9  A    between atoms: N_16  and  C_17
REMARK   10  A    between atoms: C_17  and  C_18
REMARK   11  A    between atoms: C_22  and  O_23
REMARK   12  A    between atoms: O_23  and  C_24
REMARK                            x       y       z     vdW  Elec       q    Type
REMARK                         _______ _______ _______ _____ _____    ______ ____
ROOT
ATOM      1  C   UNL     1       2.899   6.041  19.110  0.00  0.00    +0.000 A 
ATOM      2  N   UNL     1       4.174   5.954  18.702  0.00  0.00    +0.000 NA
ATOM      3  N   UNL     1       4.388   4.626  18.579  0.00  0.00    +0.000 N 
ATOM      4  C   UNL     1       3.282   3.856  18.860  0.00  0.00    +0.000 A 
ATOM      5  C   UNL     1       3.062   2.471  18.834  0.00  0.00    +0.000 A 
ATOM      6  C   UNL     1       1.789   2.009  19.183  0.00  0.00    +0.000 A 
ATOM      7  C   UNL     1       0.780   2.894  19.552  0.00  0.00    +0.000 A 
ATOM      8  C   UNL     1       1.015   4.270  19.579  0.00  0.00    +0.000 A 
ATOM      9  C   UNL     1       2.288   4.762  19.223  0.00  0.00    +0.000 A 
ENDROOT
BRANCH   1  13
ATOM     10  C   UNL     1       1.350   9.259  19.256  0.00  0.00    +0.000 A 
ATOM     11  N   UNL     1       1.059   8.894  20.509  0.00  0.00    +0.000 NA
ATOM     12  O   UNL     1       1.624   7.625  20.610  0.00  0.00    +0.000 OA
ATOM     13  C   UNL     1       2.217   7.347  19.402  0.00  0.00    +0.000 A 
ATOM     14  N   UNL     1       2.096   8.348  18.551  0.00  0.00    +0.000 NA
BRANCH  10  15
ATOM     15  C   UNL     1       0.796  10.484  18.633  0.00  0.00    +0.000 C 
BRANCH  15  18
ATOM     16  C   UNL     1      -1.250  11.709  18.349  0.00  0.00    +0.000 C 
ATOM     17  O   UNL     1      -0.618  12.707  18.026  0.00  0.00    +0.000 OA
ATOM     18  N   UNL     1      -0.645  10.536  18.679  0.00  0.00    +0.000 N 
ATOM     19  H   UNL     1      -1.206   9.753  18.989  0.00  0.00    +0.000 HD
BRANCH  16  20
ATOM     20  O   UNL     1      -2.601  11.610  18.430  0.00  0.00    +0.000 OA
BRANCH  20  22
ATOM     21  C   UNL     1      -3.542   9.439  17.744  0.00  0.00    +0.000 C 
ATOM     22  C   UNL     1      -3.300  10.907  17.368  0.00  0.00    +0.000 C 
ATOM     23  C   UNL     1      -2.555  11.048  16.033  0.00  0.00    +0.000 C 
ATOM     24  C   UNL     1      -4.674  11.584  17.225  0.00  0.00    +0.000 C 
ENDBRANCH  20  22
ENDBRANCH  16  20
ENDBRANCH  15  18
ENDBRANCH  10  15
ENDBRANCH   1  13
BRANCH   3  25
ATOM     25  C   UNL     1       5.726   4.146  18.249  0.00  0.00    +0.000 C 
BRANCH  25  26
ATOM     26  C   UNL     1       6.063   4.370  16.795  0.00  0.00    +0.000 A 
ATOM     27  C   UNL     1       7.179   5.139  16.433  0.00  0.00    +0.000 A 
ATOM     28  C   UNL     1       7.447   5.397  15.091  0.00  0.00    +0.000 A 
ATOM     29  C   UNL     1       6.620   4.867  14.102  0.00  0.00    +0.000 A 
ATOM     30  C   UNL     1       5.539   4.049  14.441  0.00  0.00    +0.000 A 
ATOM     31  C   UNL     1       5.249   3.823  15.786  0.00  0.00    +0.000 A 
BRANCH  30  32
ATOM     32  O   UNL     1       4.810   3.603  13.381  0.00  0.00    +0.000 OA
BRANCH  32  33
ATOM     33  C   UNL     1       5.465   3.256  12.170  0.00  0.00    +0.000 C 
ATOM     34  F   UNL     1       6.799   3.459  12.178  0.00  0.00    +0.000 F 
ATOM     35  F   UNL     1       5.228   1.956  11.894  0.00  0.00    +0.000 F 
ATOM     36  F   UNL     1       4.940   4.000  11.171  0.00  0.00    +0.000 F 
ENDBRANCH  32  33
ENDBRANCH  30  32
ENDBRANCH  25  26
ENDBRANCH   3  25
TORSDOF 9
ENDMDL
MODEL 9
REMARK VINA RESULT:      -8.4      1.785      2.413
REMARK  Name = 
REMARK  12 active torsions:
REMARK  status: ('A' for Active; 'I' for Inactive)
REMARK    1  A    between atoms: C_1  and  C_2
REMARK    2  A    between atoms: C_2  and  C_3
REMARK    3  A    between atoms: C_2  and  C_4
REMARK    4  A    between atoms: C_2  and  O_5
REMARK    5  A    between atoms: O_5  and  C_6
REMARK    6  A    between atoms: N_8  and  C_9
REMARK    7  A    between atoms: C_9  and  C_10
REMARK    8  A    between atoms: C_13  and  C_14
REMARK    9  A    between atoms: N_16  and  C_17
REMARK   10  A    between atoms: C_17  and  C_18
REMARK   11  A    between atoms: C_22  and  O_23
REMARK   12  A    between atoms: O_23  and  C_24
REMARK                            x       y       z     vdW  Elec       q    Type
REMARK                         _______ _______ _______ _____ _____    ______ ____
ROOT
ATOM      1  C   UNL     1       2.223   6.084  18.894  0.00  0.00    +0.000 A 
ATOM      2  N   UNL     1       2.625   5.695  17.675  0.00  0.00    +0.000 NA
ATOM      3  N   UNL     1       2.920   4.387  17.830  0.00  0.00    +0.000 N 
ATOM      4  C   UNL     1       2.689   3.910  19.100  0.00  0.00    +0.000 A 
ATOM      5  C   UNL     1       2.833   2.639  19.675  0.00  0.00    +0.000 A 
ATOM      6  C   UNL     1       2.500   2.496  21.026  0.00  0.00    +0.000 A 
ATOM      7  C   UNL     1       2.050   3.580  21.774  0.00  0.00    +0.000 A 
ATOM      8  C   UNL     1       1.917   4.841  21.190  0.00  0.00    +0.000 A 
ATOM      9  C   UNL     1       2.239   5.011  19.827  0.00  0.00    +0.000 A 
ENDROOT
BRANCH   1  13
ATOM     10  C   UNL     1       1.220   9.261  20.192  0.00  0.00    +0.000 A 
ATOM     11  N   UNL     1       1.414   9.666  18.932  0.00  0.00    +0.000 NA
ATOM     12  O   UNL     1       1.810   8.500  18.280  0.00  0.00    +0.000 OA
ATOM     13  C   UNL     1       1.807   7.491  19.213  0.00  0.00    +0.000 A 
ATOM     14  N   UNL     1       1.417   7.918  20.400  0.00  0.00    +0.000 NA
BRANCH  10  15
ATOM     15  C   UNL     1       0.953  10.204  21.301  0.00  0.00    +0.000 C 
BRANCH  15  18
ATOM     16  C   UNL     1       0.941  12.576  20.917  0.00  0.00    +0.000 C 
ATOM     17  O   UNL     1       2.098  12.654  21.312  0.00  0.00    +0.000 OA
ATOM     18  N   UNL     1       0.263  11.397  20.871  0.00  0.00    +0.000 N 
ATOM     19  H   UNL     1      -0.708  11.389  20.586  0.00  0.00    +0.000 HD
BRANCH  16  20
ATOM     20  O   UNL     1       0.174  13.606  20.479  0.00  0.00    +0.000 OA
BRANCH  20  22
ATOM     21  C   UNL     1      -0.720  13.097  18.240  0.00  0.00    +0.000 C 
ATOM     22  C   UNL     1       0.241  13.958  19.071  0.00  0.00    +0.000 C 
ATOM     23  C   UNL     1       1.685  13.879  18.553  0.00  0.00    +0.000 C 
ATOM     24  C   UNL     1      -0.229  15.419  18.962  0.00  0.00    +0.000 C 
ENDBRANCH  20  22
ENDBRANCH  16  20
ENDBRANCH  15  18
ENDBRANCH  10  15
ENDBRANCH   1  13
BRANCH   3  25
ATOM     25  C   UNL     1       3.501   3.649  16.712  0.00  0.00    +0.000 C 
BRANCH  25  26
ATOM     26  C   UNL     1       4.921   4.075  16.433  0.00  0.00    +0.000 A 
ATOM     27  C   UNL     1       5.337   4.349  15.121  0.00  0.00    +0.000 A 
ATOM     28  C   UNL     1       6.665   4.679  14.861  0.00  0.00    +0.000 A 
ATOM     29  C   UNL     1       7.578   4.765  15.909  0.00  0.00    +0.000 A 
ATOM     30  C   UNL     1       7.169   4.555  17.229  0.00  0.00    +0.000 A 
ATOM     31  C   UNL     1       5.849   4.187  17.484  0.00  0.00    +0.000 A 
BRANCH  30  32
ATOM     32  O   UNL     1       8.161   4.662  18.155  0.00  0.00    +0.000 OA
BRANCH  32  33
ATOM     33  C   UNL     1       8.070   5.645  19.176  0.00  0.00    +0.000 C 
ATOM     34  F   UNL     1       8.394   6.894  18.781  0.00  0.00    +0.000 F 
ATOM     35  F   UNL     1       6.812   5.660  19.667  0.00  0.00    +0.000 F 
ATOM     36  F   UNL     1       8.908   5.299  20.179  0.00  0.00    +0.000 F 
ENDBRANCH  32  33
ENDBRANCH  30  32
ENDBRANCH  25  26
ENDBRANCH   3  25
TORSDOF 9
ENDMDL
