MODEL 1
REMARK VINA RESULT:      -8.1      0.000      0.000
REMARK  Name = 
REMARK  3 active torsions:
REMARK  status: ('A' for Active; 'I' for Inactive)
REMARK    1  A    between atoms: C_2  and  C_3
REMARK    2  A    between atoms: N_5  and  C_6
REMARK    3  A    between atoms: C_6  and  C_7
REMARK                            x       y       z     vdW  Elec       q    Type
REMARK                         _______ _______ _______ _____ _____    ______ ____
ROOT
ATOM      1  C   UNL     1       4.322   4.671  17.876  0.00  0.00    +0.000 C 
ATOM      2  C   UNL     1       4.510   6.051  18.525  0.00  0.00    +0.000 C 
ATOM      3  N   UNL     1       4.313   7.196  17.621  0.00  0.00    +0.000 NA
ATOM      4  C   UNL     1       5.153   7.051  16.423  0.00  0.00    +0.000 C 
ATOM      5  C   UNL     1       5.061   5.688  15.696  0.00  0.00    +0.000 C 
ATOM      6  O   UNL     1       6.166   5.576  14.782  0.00  0.00    +0.000 OA
ATOM      7  C   UNL     1       7.198   4.801  15.414  0.00  0.00    +0.000 C 
ATOM      8  C   UNL     1       6.705   4.417  16.799  0.00  0.00    +0.000 C 
ATOM      9  C   UNL     1       5.198   4.492  16.638  0.00  0.00    +0.000 C 
ENDROOT
BRANCH   1  11
ATOM     10  O   UNL     1       5.643   3.276  19.346  0.00  0.00    +0.000 OA
ATOM     11  C   UNL     1       4.525   3.638  18.986  0.00  0.00    +0.000 C 
ATOM     12  N   UNL     1       3.374   3.318  19.678  0.00  0.00    +0.000 N 
ATOM     13  C   UNL     1       3.322   2.420  20.820  0.00  0.00    +0.000 C 
ATOM     14  C   UNL     1       2.171   2.873  21.720  0.00  0.00    +0.000 C 
ATOM     15  C   UNL     1       0.877   2.991  20.918  0.00  0.00    +0.000 C 
ATOM     16  C   UNL     1       1.112   3.793  19.640  0.00  0.00    +0.000 C 
ATOM     17  O   UNL     1       2.192   3.215  18.900  0.00  0.00    +0.000 OA
ENDBRANCH   1  11
BRANCH   3  18
ATOM     18  C   UNL     1       2.906   7.468  17.287  0.00  0.00    +0.000 C 
BRANCH  18  19
ATOM     19  C   UNL     1       2.198   8.366  18.286  0.00  0.00    +0.000 A 
ATOM     20  C   UNL     1       1.902   7.943  19.586  0.00  0.00    +0.000 A 
ATOM     21  C   UNL     1       1.196   8.788  20.428  0.00  0.00    +0.000 A 
ATOM     22  N   UNL     1       0.808  10.033  20.081  0.00  0.00    +0.000 NA
ATOM     23  C   UNL     1       1.159  10.453  18.848  0.00  0.00    +0.000 A 
ATOM     24  C   UNL     1       1.843   9.672  17.928  0.00  0.00    +0.000 A 
ENDBRANCH  18  19
ENDBRANCH   3  18
TORSDOF 3
ENDMDL
MODEL 2
REMARK VINA RESULT:      -7.4      1.818      4.827
REMARK  Name = 
REMARK  3 active torsions:
REMARK  status: ('A' for Active; 'I' for Inactive)
REMARK    1  A    between atoms: C_2  and  C_3
REMARK    2  A    between atoms: N_5  and  C_6
REMARK    3  A    between atoms: C_6  and  C_7
REMARK                            x       y       z     vdW  Elec       q    Type
REMARK                         _______ _______ _______ _____ _____    ______ ____
ROOT
ATOM      1  C   UNL     1       3.398   4.444  18.744  0.00  0.00    +0.000 C 
ATOM      2  C   UNL     1       2.131   5.235  18.385  0.00  0.00    +0.000 C 
ATOM      3  N   UNL     1       1.598   6.080  19.467  0.00  0.00    +0.000 NA
ATOM      4  C   UNL     1       1.403   5.284  20.687  0.00  0.00    +0.000 C 
ATOM      5  C   UNL     1       2.611   4.427  21.133  0.00  0.00    +0.000 C 
ATOM      6  O   UNL     1       2.162   3.467  22.106  0.00  0.00    +0.000 OA
ATOM      7  C   UNL     1       1.937   2.216  21.436  0.00  0.00    +0.000 C 
ATOM      8  C   UNL     1       2.259   2.415  19.964  0.00  0.00    +0.000 C 
ATOM      9  C   UNL     1       3.212   3.596  19.999  0.00  0.00    +0.000 C 
ENDROOT
BRANCH   1  11
ATOM     10  O   UNL     1       3.046   2.885  16.926  0.00  0.00    +0.000 OA
ATOM     11  C   UNL     1       3.803   3.678  17.482  0.00  0.00    +0.000 C 
ATOM     12  N   UNL     1       4.985   4.110  16.914  0.00  0.00    +0.000 N 
ATOM     13  C   UNL     1       5.542   3.592  15.674  0.00  0.00    +0.000 C 
ATOM     14  C   UNL     1       6.337   4.717  15.012  0.00  0.00    +0.000 C 
ATOM     15  C   UNL     1       7.350   5.307  15.990  0.00  0.00    +0.000 C 
ATOM     16  C   UNL     1       6.680   5.628  17.324  0.00  0.00    +0.000 C 
ATOM     17  O   UNL     1       6.017   4.461  17.823  0.00  0.00    +0.000 OA
ENDBRANCH   1  11
BRANCH   3  18
ATOM     18  C   UNL     1       2.376   7.304  19.716  0.00  0.00    +0.000 C 
BRANCH  18  19
ATOM     19  C   UNL     1       1.541   8.572  19.743  0.00  0.00    +0.000 A 
ATOM     20  C   UNL     1       0.919   9.026  20.911  0.00  0.00    +0.000 A 
ATOM     21  C   UNL     1       0.117  10.155  20.854  0.00  0.00    +0.000 A 
ATOM     22  N   UNL     1      -0.069  10.882  19.733  0.00  0.00    +0.000 NA
ATOM     23  C   UNL     1       0.591  10.471  18.631  0.00  0.00    +0.000 A 
ATOM     24  C   UNL     1       1.395   9.342  18.583  0.00  0.00    +0.000 A 
ENDBRANCH  18  19
ENDBRANCH   3  18
TORSDOF 3
ENDMDL
MODEL 3
REMARK VINA RESULT:      -7.2      1.898      4.933
REMARK  Name = 
REMARK  3 active torsions:
REMARK  status: ('A' for Active; 'I' for Inactive)
REMARK    1  A    between atoms: C_2  and  C_3
REMARK    2  A    between atoms: N_5  and  C_6
REMARK    3  A    between atoms: C_6  and  C_7
REMARK                            x       y       z     vdW  Elec       q    Type
REMARK                         _______ _______ _______ _____ _____    ______ ____
ROOT
ATOM      1  C   UNL     1       3.257   4.503  18.695  0.00  0.00    +0.000 C 
ATOM      2  C   UNL     1       1.985   5.323  18.433  0.00  0.00    +0.000 C 
ATOM      3  N   UNL     1       1.521   6.134  19.570  0.00  0.00    +0.000 NA
ATOM      4  C   UNL     1       1.377   5.295  20.769  0.00  0.00    +0.000 C 
ATOM      5  C   UNL     1       2.595   4.407  21.121  0.00  0.00    +0.000 C 
ATOM      6  O   UNL     1       2.183   3.418  22.080  0.00  0.00    +0.000 OA
ATOM      7  C   UNL     1       1.905   2.195  21.377  0.00  0.00    +0.000 C 
ATOM      8  C   UNL     1       2.154   2.445  19.900  0.00  0.00    +0.000 C 
ATOM      9  C   UNL     1       3.124   3.611  19.927  0.00  0.00    +0.000 C 
ENDROOT
BRANCH   1  11
ATOM     10  O   UNL     1       2.736   3.154  16.754  0.00  0.00    +0.000 OA
ATOM     11  C   UNL     1       3.584   3.780  17.387  0.00  0.00    +0.000 C 
ATOM     12  N   UNL     1       4.837   4.066  16.881  0.00  0.00    +0.000 N 
ATOM     13  C   UNL     1       5.351   3.562  15.618  0.00  0.00    +0.000 C 
ATOM     14  C   UNL     1       6.328   4.598  15.063  0.00  0.00    +0.000 C 
ATOM     15  C   UNL     1       7.385   4.953  16.107  0.00  0.00    +0.000 C 
ATOM     16  C   UNL     1       6.726   5.273  17.446  0.00  0.00    +0.000 C 
ATOM     17  O   UNL     1       5.878   4.188  17.838  0.00  0.00    +0.000 OA
ENDBRANCH   1  11
BRANCH   3  18
ATOM     18  C   UNL     1       2.328   7.338  19.823  0.00  0.00    +0.000 C 
BRANCH  18  19
ATOM     19  C   UNL     1       1.512   8.557  20.214  0.00  0.00    +0.000 A 
ATOM     20  C   UNL     1       1.049   9.475  19.265  0.00  0.00    +0.000 A 
ATOM     21  C   UNL     1       0.365  10.602  19.694  0.00  0.00    +0.000 A 
ATOM     22  N   UNL     1       0.074  10.852  20.987  0.00  0.00    +0.000 NA
ATOM     23  C   UNL     1       0.468   9.924  21.884  0.00  0.00    +0.000 A 
ATOM     24  C   UNL     1       1.178   8.779  21.555  0.00  0.00    +0.000 A 
ENDBRANCH  18  19
ENDBRANCH   3  18
TORSDOF 3
ENDMDL
MODEL 4
REMARK VINA RESULT:      -7.2      0.943      1.337
REMARK  Name = 
REMARK  3 active torsions:
REMARK  status: ('A' for Active; 'I' for Inactive)
REMARK    1  A    between atoms: C_2  and  C_3
REMARK    2  A    between atoms: N_5  and  C_6
REMARK    3  A    between atoms: C_6  and  C_7
REMARK                            x       y       z     vdW  Elec       q    Type
REMARK                         _______ _______ _______ _____ _____    ______ ____
ROOT
ATOM      1  C   UNL     1       3.788   4.412  17.079  0.00  0.00    +0.000 C 
ATOM      2  C   UNL     1       3.974   5.408  18.233  0.00  0.00    +0.000 C 
ATOM      3  N   UNL     1       4.158   6.810  17.822  0.00  0.00    +0.000 NA
ATOM      4  C   UNL     1       5.251   6.915  16.845  0.00  0.00    +0.000 C 
ATOM      5  C   UNL     1       5.179   5.941  15.645  0.00  0.00    +0.000 C 
ATOM      6  O   UNL     1       6.458   5.923  14.987  0.00  0.00    +0.000 OA
ATOM      7  C   UNL     1       7.191   4.778  15.455  0.00  0.00    +0.000 C 
ATOM      8  C   UNL     1       6.317   4.051  16.463  0.00  0.00    +0.000 C 
ATOM      9  C   UNL     1       4.922   4.492  16.060  0.00  0.00    +0.000 C 
ENDROOT
BRANCH   1  11
ATOM     10  O   UNL     1       4.301   2.080  17.476  0.00  0.00    +0.000 OA
ATOM     11  C   UNL     1       3.572   3.040  17.721  0.00  0.00    +0.000 C 
ATOM     12  N   UNL     1       2.640   3.032  18.740  0.00  0.00    +0.000 N 
ATOM     13  C   UNL     1       2.313   1.870  19.550  0.00  0.00    +0.000 C 
ATOM     14  C   UNL     1       1.886   2.368  20.931  0.00  0.00    +0.000 C 
ATOM     15  C   UNL     1       0.780   3.413  20.808  0.00  0.00    +0.000 C 
ATOM     16  C   UNL     1       1.162   4.475  19.779  0.00  0.00    +0.000 C 
ATOM     17  O   UNL     1       1.494   3.846  18.537  0.00  0.00    +0.000 OA
ENDBRANCH   1  11
BRANCH   3  18
ATOM     18  C   UNL     1       2.928   7.470  17.359  0.00  0.00    +0.000 C 
BRANCH  18  19
ATOM     19  C   UNL     1       2.185   8.226  18.446  0.00  0.00    +0.000 A 
ATOM     20  C   UNL     1       1.551   9.448  18.200  0.00  0.00    +0.000 A 
ATOM     21  C   UNL     1       0.946  10.119  19.251  0.00  0.00    +0.000 A 
ATOM     22  N   UNL     1       0.890   9.638  20.510  0.00  0.00    +0.000 NA
ATOM     23  C   UNL     1       1.446   8.427  20.718  0.00  0.00    +0.000 A 
ATOM     24  C   UNL     1       2.095   7.692  19.737  0.00  0.00    +0.000 A 
ENDBRANCH  18  19
ENDBRANCH   3  18
TORSDOF 3
ENDMDL
MODEL 5
REMARK VINA RESULT:      -7.1      2.296      5.612
REMARK  Name = 
REMARK  3 active torsions:
REMARK  status: ('A' for Active; 'I' for Inactive)
REMARK    1  A    between atoms: C_2  and  C_3
REMARK    2  A    between atoms: N_5  and  C_6
REMARK    3  A    between atoms: C_6  and  C_7
REMARK                            x       y       z     vdW  Elec       q    Type
REMARK                         _______ _______ _______ _____ _____    ______ ____
ROOT
ATOM      1  C   UNL     1       2.602   5.613  18.867  0.00  0.00    +0.000 C 
ATOM      2  C   UNL     1       3.971   5.215  19.438  0.00  0.00    +0.000 C 
ATOM      3  N   UNL     1       4.785   4.355  18.563  0.00  0.00    +0.000 NA
ATOM      4  C   UNL     1       4.014   3.172  18.152  0.00  0.00    +0.000 C 
ATOM      5  C   UNL     1       2.605   3.452  17.578  0.00  0.00    +0.000 C 
ATOM      6  O   UNL     1       1.864   2.220  17.552  0.00  0.00    +0.000 OA
ATOM      7  C   UNL     1       1.024   2.172  18.718  0.00  0.00    +0.000 C 
ATOM      8  C   UNL     1       1.265   3.445  19.512  0.00  0.00    +0.000 C 
ATOM      9  C   UNL     1       1.777   4.398  18.448  0.00  0.00    +0.000 C 
ENDROOT
BRANCH   1  11
ATOM     10  O   UNL     1       1.801   6.192  21.076  0.00  0.00    +0.000 OA
ATOM     11  C   UNL     1       1.949   6.530  19.903  0.00  0.00    +0.000 C 
ATOM     12  N   UNL     1       1.743   7.823  19.464  0.00  0.00    +0.000 N 
ATOM     13  C   UNL     1       1.207   8.897  20.285  0.00  0.00    +0.000 C 
ATOM     14  C   UNL     1       1.798  10.213  19.778  0.00  0.00    +0.000 C 
ATOM     15  C   UNL     1       1.572  10.360  18.275  0.00  0.00    +0.000 C 
ATOM     16  C   UNL     1       1.994   9.087  17.545  0.00  0.00    +0.000 C 
ATOM     17  O   UNL     1       1.322   7.959  18.115  0.00  0.00    +0.000 OA
ENDBRANCH   1  11
BRANCH   3  18
ATOM     18  C   UNL     1       5.388   5.056  17.419  0.00  0.00    +0.000 C 
BRANCH  18  19
ATOM     19  C   UNL     1       6.482   6.036  17.802  0.00  0.00    +0.000 A 
ATOM     20  C   UNL     1       7.430   5.743  18.788  0.00  0.00    +0.000 A 
ATOM     21  C   UNL     1       8.363   6.707  19.137  0.00  0.00    +0.000 A 
ATOM     22  N   UNL     1       8.444   7.916  18.544  0.00  0.00    +0.000 NA
ATOM     23  C   UNL     1       7.566   8.159  17.549  0.00  0.00    +0.000 A 
ATOM     24  C   UNL     1       6.582   7.269  17.146  0.00  0.00    +0.000 A 
ENDBRANCH  18  19
ENDBRANCH   3  18
TORSDOF 3
ENDMDL
MODEL 6
REMARK VINA RESULT:      -6.9      2.562      6.072
REMARK  Name = 
REMARK  3 active torsions:
REMARK  status: ('A' for Active; 'I' for Inactive)
REMARK    1  A    between atoms: C_2  and  C_3
REMARK    2  A    between atoms: N_5  and  C_6
REMARK    3  A    between atoms: C_6  and  C_7
REMARK                            x       y       z     vdW  Elec       q    Type
REMARK                         _______ _______ _______ _____ _____    ______ ____
ROOT
ATOM      1  C   UNL     1       5.478   4.962  16.818  0.00  0.00    +0.000 C 
ATOM      2  C   UNL     1       6.164   4.746  18.175  0.00  0.00    +0.000 C 
ATOM      3  N   UNL     1       5.268   4.325  19.266  0.00  0.00    +0.000 NA
ATOM      4  C   UNL     1       4.135   5.254  19.382  0.00  0.00    +0.000 C 
ATOM      5  C   UNL     1       3.379   5.564  18.068  0.00  0.00    +0.000 C 
ATOM      6  O   UNL     1       2.550   6.720  18.274  0.00  0.00    +0.000 OA
ATOM      7  C   UNL     1       3.244   7.871  17.763  0.00  0.00    +0.000 C 
ATOM      8  C   UNL     1       4.581   7.399  17.217  0.00  0.00    +0.000 C 
ATOM      9  C   UNL     1       4.308   5.937  16.912  0.00  0.00    +0.000 C 
ENDROOT
BRANCH   1  11
ATOM     10  O   UNL     1       7.605   5.927  16.185  0.00  0.00    +0.000 OA
ATOM     11  C   UNL     1       6.582   5.346  15.830  0.00  0.00    +0.000 C 
ATOM     12  N   UNL     1       6.428   4.801  14.571  0.00  0.00    +0.000 N 
ATOM     13  C   UNL     1       7.379   4.959  13.483  0.00  0.00    +0.000 C 
ATOM     14  C   UNL     1       7.292   3.712  12.601  0.00  0.00    +0.000 C 
ATOM     15  C   UNL     1       5.849   3.453  12.178  0.00  0.00    +0.000 C 
ATOM     16  C   UNL     1       4.919   3.509  13.388  0.00  0.00    +0.000 C 
ATOM     17  O   UNL     1       5.098   4.751  14.076  0.00  0.00    +0.000 OA
ENDBRANCH   1  11
BRANCH   3  18
ATOM     18  C   UNL     1       4.835   2.922  19.183  0.00  0.00    +0.000 C 
BRANCH  18  19
ATOM     19  C   UNL     1       3.355   2.716  19.455  0.00  0.00    +0.000 A 
ATOM     20  C   UNL     1       2.455   2.371  18.441  0.00  0.00    +0.000 A 
ATOM     21  C   UNL     1       1.106   2.262  18.743  0.00  0.00    +0.000 A 
ATOM     22  N   UNL     1       0.604   2.426  19.984  0.00  0.00    +0.000 NA
ATOM     23  C   UNL     1       1.492   2.691  20.964  0.00  0.00    +0.000 A 
ATOM     24  C   UNL     1       2.855   2.843  20.756  0.00  0.00    +0.000 A 
ENDBRANCH  18  19
ENDBRANCH   3  18
TORSDOF 3
ENDMDL
MODEL 7
REMARK VINA RESULT:      -6.8      2.716      5.642
REMARK  Name = 
REMARK  3 active torsions:
REMARK  status: ('A' for Active; 'I' for Inactive)
REMARK    1  A    between atoms: C_2  and  C_3
REMARK    2  A    between atoms: N_5  and  C_6
REMARK    3  A    between atoms: C_6  and  C_7
REMARK                            x       y       z     vdW  Elec       q    Type
REMARK                         _______ _______ _______ _____ _____    ______ ____
ROOT
ATOM      1  C   UNL     1       4.579   5.072  18.092  0.00  0.00    +0.000 C 
ATOM      2  C   UNL     1       4.665   6.010  16.879  0.00  0.00    +0.000 C 
ATOM      3  N   UNL     1       5.600   5.582  15.825  0.00  0.00    +0.000 NA
ATOM      4  C   UNL     1       6.930   5.327  16.398  0.00  0.00    +0.000 C 
ATOM      5  C   UNL     1       6.964   4.408  17.642  0.00  0.00    +0.000 C 
ATOM      6  O   UNL     1       8.248   4.535  18.275  0.00  0.00    +0.000 OA
ATOM      7  C   UNL     1       8.125   5.462  19.367  0.00  0.00    +0.000 C 
ATOM      8  C   UNL     1       6.683   5.939  19.406  0.00  0.00    +0.000 C 
ATOM      9  C   UNL     1       5.948   4.807  18.713  0.00  0.00    +0.000 C 
ENDROOT
BRANCH   1  11
ATOM     10  O   UNL     1       3.276   6.876  19.045  0.00  0.00    +0.000 OA
ATOM     11  C   UNL     1       3.532   5.673  19.032  0.00  0.00    +0.000 C 
ATOM     12  N   UNL     1       2.763   4.736  19.694  0.00  0.00    +0.000 N 
ATOM     13  C   UNL     1       1.658   5.056  20.583  0.00  0.00    +0.000 C 
ATOM     14  C   UNL     1       0.652   3.906  20.511  0.00  0.00    +0.000 C 
ATOM     15  C   UNL     1       1.343   2.571  20.778  0.00  0.00    +0.000 C 
ATOM     16  C   UNL     1       2.601   2.441  19.923  0.00  0.00    +0.000 C 
ATOM     17  O   UNL     1       3.449   3.575  20.138  0.00  0.00    +0.000 OA
ENDBRANCH   1  11
BRANCH   3  18
ATOM     18  C   UNL     1       5.117   4.458  15.009  0.00  0.00    +0.000 C 
BRANCH  18  19
ATOM     19  C   UNL     1       5.921   4.224  13.743  0.00  0.00    +0.000 A 
ATOM     20  C   UNL     1       7.055   4.982  13.433  0.00  0.00    +0.000 A 
ATOM     21  C   UNL     1       7.707   4.762  12.229  0.00  0.00    +0.000 A 
ATOM     22  N   UNL     1       7.336   3.816  11.342  0.00  0.00    +0.000 NA
ATOM     23  C   UNL     1       6.282   3.047  11.685  0.00  0.00    +0.000 A 
ATOM     24  C   UNL     1       5.552   3.207  12.854  0.00  0.00    +0.000 A 
ENDBRANCH  18  19
ENDBRANCH   3  18
TORSDOF 3
ENDMDL
MODEL 8
REMARK VINA RESULT:      -6.7      3.194      5.971
REMARK  Name = 
REMARK  3 active torsions:
REMARK  status: ('A' for Active; 'I' for Inactive)
REMARK    1  A    between atoms: C_2  and  C_3
REMARK    2  A    between atoms: N_5  and  C_6
REMARK    3  A    between atoms: C_6  and  C_7
REMARK                            x       y       z     vdW  Elec       q    Type
REMARK                         _______ _______ _______ _____ _____    ______ ____
ROOT
ATOM      1  C   UNL     1       5.934   5.041  15.989  0.00  0.00    +0.000 C 
ATOM      2  C   UNL     1       5.590   3.555  16.168  0.00  0.00    +0.000 C 
ATOM      3  N   UNL     1       4.643   3.262  17.257  0.00  0.00    +0.000 NA
ATOM      4  C   UNL     1       5.114   3.857  18.516  0.00  0.00    +0.000 C 
ATOM      5  C   UNL     1       5.511   5.351  18.449  0.00  0.00    +0.000 C 
ATOM      6  O   UNL     1       6.260   5.683  19.631  0.00  0.00    +0.000 OA
ATOM      7  C   UNL     1       7.660   5.633  19.308  0.00  0.00    +0.000 C 
ATOM      8  C   UNL     1       7.782   5.241  17.845  0.00  0.00    +0.000 C 
ATOM      9  C   UNL     1       6.442   5.675  17.281  0.00  0.00    +0.000 C 
ENDROOT
BRANCH   1  11
ATOM     10  O   UNL     1       8.018   5.591  14.888  0.00  0.00    +0.000 OA
ATOM     11  C   UNL     1       6.884   5.125  14.792  0.00  0.00    +0.000 C 
ATOM     12  N   UNL     1       6.445   4.447  13.672  0.00  0.00    +0.000 N 
ATOM     13  C   UNL     1       7.201   4.318  12.437  0.00  0.00    +0.000 C 
ATOM     14  C   UNL     1       6.808   2.992  11.785  0.00  0.00    +0.000 C 
ATOM     15  C   UNL     1       5.291   2.894  11.638  0.00  0.00    +0.000 C 
ATOM     16  C   UNL     1       4.604   3.245  12.956  0.00  0.00    +0.000 C 
ATOM     17  O   UNL     1       5.053   4.528  13.406  0.00  0.00    +0.000 OA
ENDBRANCH   1  11
BRANCH   3  18
ATOM     18  C   UNL     1       3.248   3.620  16.957  0.00  0.00    +0.000 C 
BRANCH  18  19
ATOM     19  C   UNL     1       2.316   3.527  18.152  0.00  0.00    +0.000 A 
ATOM     20  C   UNL     1       1.884   4.662  18.847  0.00  0.00    +0.000 A 
ATOM     21  C   UNL     1       1.086   4.504  19.969  0.00  0.00    +0.000 A 
ATOM     22  N   UNL     1       0.654   3.307  20.415  0.00  0.00    +0.000 NA
ATOM     23  C   UNL     1       1.023   2.227  19.696  0.00  0.00    +0.000 A 
ATOM     24  C   UNL     1       1.838   2.281  18.576  0.00  0.00    +0.000 A 
ENDBRANCH  18  19
ENDBRANCH   3  18
TORSDOF 3
ENDMDL
MODEL 9
REMARK VINA RESULT:      -6.6      1.641      4.307
REMARK  Name = 
REMARK  3 active torsions:
REMARK  status: ('A' for Active; 'I' for Inactive)
REMARK    1  A    between atoms: C_2  and  C_3
REMARK    2  A    between atoms: N_5  and  C_6
REMARK    3  A    between atoms: C_6  and  C_7
REMARK                            x       y       z     vdW  Elec       q    Type
REMARK                         _______ _______ _______ _____ _____    ______ ____
ROOT
ATOM      1  C   UNL     1       4.556   4.974  19.640  0.00  0.00    +0.000 C 
ATOM      2  C   UNL     1       3.647   5.962  18.894  0.00  0.00    +0.000 C 
ATOM      3  N   UNL     1       2.226   5.912  19.277  0.00  0.00    +0.000 NA
ATOM      4  C   UNL     1       1.718   4.537  19.175  0.00  0.00    +0.000 C 
ATOM      5  C   UNL     1       2.569   3.450  19.875  0.00  0.00    +0.000 C 
ATOM      6  O   UNL     1       2.148   2.159  19.402  0.00  0.00    +0.000 OA
ATOM      7  C   UNL     1       3.053   1.739  18.367  0.00  0.00    +0.000 C 
ATOM      8  C   UNL     1       4.088   2.836  18.187  0.00  0.00    +0.000 C 
ATOM      9  C   UNL     1       4.056   3.536  19.533  0.00  0.00    +0.000 C 
ENDROOT
BRANCH   1  11
ATOM     10  O   UNL     1       6.950   5.237  19.880  0.00  0.00    +0.000 OA
ATOM     11  C   UNL     1       5.977   5.221  19.129  0.00  0.00    +0.000 C 
ATOM     12  N   UNL     1       6.093   5.207  17.753  0.00  0.00    +0.000 N 
ATOM     13  C   UNL     1       7.347   5.344  17.029  0.00  0.00    +0.000 C 
ATOM     14  C   UNL     1       7.216   4.572  15.716  0.00  0.00    +0.000 C 
ATOM     15  C   UNL     1       5.968   5.014  14.955  0.00  0.00    +0.000 C 
ATOM     16  C   UNL     1       4.752   5.015  15.879  0.00  0.00    +0.000 C 
ATOM     17  O   UNL     1       5.027   5.812  17.036  0.00  0.00    +0.000 OA
ENDBRANCH   1  11
BRANCH   3  18
ATOM     18  C   UNL     1       1.932   6.522  20.584  0.00  0.00    +0.000 C 
BRANCH  18  19
ATOM     19  C   UNL     1       1.524   7.982  20.506  0.00  0.00    +0.000 A 
ATOM     20  C   UNL     1       1.184   8.719  21.646  0.00  0.00    +0.000 A 
ATOM     21  C   UNL     1       0.757  10.030  21.500  0.00  0.00    +0.000 A 
ATOM     22  N   UNL     1       0.692  10.665  20.311  0.00  0.00    +0.000 NA
ATOM     23  C   UNL     1       1.087   9.964  19.229  0.00  0.00    +0.000 A 
ATOM     24  C   UNL     1       1.505   8.642  19.272  0.00  0.00    +0.000 A 
ENDBRANCH  18  19
ENDBRANCH   3  18
TORSDOF 3
ENDMDL
