MODEL 1
REMARK VINA RESULT:      -4.6      0.000      0.000
REMARK  Name = 
REMARK  2 active torsions:
REMARK  status: ('A' for Active; 'I' for Inactive)
REMARK    1  A    between atoms: C_2  and  O_4
REMARK    2  A    between atoms: O_4  and  P_5
REMARK                            x       y       z     vdW  Elec       q    Type
REMARK                         _______ _______ _______ _____ _____    ______ ____
ROOT
ATOM      1  N   UNL     1       6.338   4.042  18.176  0.00  0.00    +0.000 N 
ATOM      2  C   UNL     1       7.546   4.636  17.967  0.00  0.00    +0.000 C 
ATOM      3  O   UNL     1       8.082   5.242  18.914  0.00  0.00    +0.000 OA
ATOM      4  H   UNL     1       6.162   3.706  19.125  0.00  0.00    +0.000 HD
ATOM      5  H   UNL     1       6.064   3.414  17.415  0.00  0.00    +0.000 HD
ENDROOT
BRANCH   2   6
ATOM      6  O   UNL     1       7.876   4.482  16.712  0.00  0.00    +0.000 OA
BRANCH   6   7
ATOM      7  P   UNL     1       6.881   4.901  15.533  0.00  0.00    +0.000 P 
ATOM      8  O   UNL     1       6.183   6.161  16.048  0.00  0.00    +0.000 OA
ATOM      9  O   UNL     1       7.782   5.400  14.413  0.00  0.00    +0.000 OA
ATOM     10  O   UNL     1       6.010   3.661  15.283  0.00  0.00    +0.000 OA
ENDBRANCH   6   7
ENDBRANCH   2   6
TORSDOF 2
ENDMDL
MODEL 2
REMARK VINA RESULT:      -4.4      0.342      1.640
REMARK  Name = 
REMARK  2 active torsions:
REMARK  status: ('A' for Active; 'I' for Inactive)
REMARK    1  A    between atoms: C_2  and  O_4
REMARK    2  A    between atoms: O_4  and  P_5
REMARK                            x       y       z     vdW  Elec       q    Type
REMARK                         _______ _______ _______ _____ _____    ______ ____
ROOT
ATOM      1  N   UNL     1       6.434   4.105  18.446  0.00  0.00    +0.000 N 
ATOM      2  C   UNL     1       7.455   4.908  18.033  0.00  0.00    +0.000 C 
ATOM      3  O   UNL     1       7.860   5.799  18.804  0.00  0.00    +0.000 OA
ATOM      4  H   UNL     1       6.378   3.935  19.453  0.00  0.00    +0.000 HD
ATOM      5  H   UNL     1       6.296   3.291  17.841  0.00  0.00    +0.000 HD
ENDROOT
BRANCH   2   6
ATOM      6  O   UNL     1       7.770   4.586  16.807  0.00  0.00    +0.000 OA
BRANCH   6   7
ATOM      7  P   UNL     1       6.778   4.880  15.588  0.00  0.00    +0.000 P 
ATOM      8  O   UNL     1       6.016   3.569  15.389  0.00  0.00    +0.000 OA
ATOM      9  O   UNL     1       5.738   5.839  16.147  0.00  0.00    +0.000 OA
ATOM     10  O   UNL     1       7.680   5.355  14.440  0.00  0.00    +0.000 OA
ENDBRANCH   6   7
ENDBRANCH   2   6
TORSDOF 2
ENDMDL
MODEL 3
REMARK VINA RESULT:      -4.3      2.666      3.620
REMARK  Name = 
REMARK  2 active torsions:
REMARK  status: ('A' for Active; 'I' for Inactive)
REMARK    1  A    between atoms: C_2  and  O_4
REMARK    2  A    between atoms: O_4  and  P_5
REMARK                            x       y       z     vdW  Elec       q    Type
REMARK                         _______ _______ _______ _____ _____    ______ ____
ROOT
ATOM      1  N   UNL     1       5.456   3.635  19.107  0.00  0.00    +0.000 N 
ATOM      2  C   UNL     1       5.050   4.935  19.153  0.00  0.00    +0.000 C 
ATOM      3  O   UNL     1       4.004   5.208  19.773  0.00  0.00    +0.000 OA
ATOM      4  H   UNL     1       5.208   3.059  19.914  0.00  0.00    +0.000 HD
ATOM      5  H   UNL     1       6.410   3.527  18.749  0.00  0.00    +0.000 HD
ENDROOT
BRANCH   2   6
ATOM      6  O   UNL     1       5.871   5.656  18.437  0.00  0.00    +0.000 OA
BRANCH   6   7
ATOM      7  P   UNL     1       7.441   5.677  18.740  0.00  0.00    +0.000 P 
ATOM      8  O   UNL     1       7.546   5.396  20.240  0.00  0.00    +0.000 OA
ATOM      9  O   UNL     1       7.987   4.419  18.082  0.00  0.00    +0.000 OA
ATOM     10  O   UNL     1       7.928   7.044  18.240  0.00  0.00    +0.000 OA
ENDBRANCH   6   7
ENDBRANCH   2   6
TORSDOF 2
ENDMDL
MODEL 4
REMARK VINA RESULT:      -4.2      2.581      3.532
REMARK  Name = 
REMARK  2 active torsions:
REMARK  status: ('A' for Active; 'I' for Inactive)
REMARK    1  A    between atoms: C_2  and  O_4
REMARK    2  A    between atoms: O_4  and  P_5
REMARK                            x       y       z     vdW  Elec       q    Type
REMARK                         _______ _______ _______ _____ _____    ______ ____
ROOT
ATOM      1  N   UNL     1       5.409   3.507  19.169  0.00  0.00    +0.000 N 
ATOM      2  C   UNL     1       5.028   4.815  19.121  0.00  0.00    +0.000 C 
ATOM      3  O   UNL     1       3.998   5.156  19.732  0.00  0.00    +0.000 OA
ATOM      4  H   UNL     1       5.163   3.000  20.022  0.00  0.00    +0.000 HD
ATOM      5  H   UNL     1       6.354   3.352  18.807  0.00  0.00    +0.000 HD
ENDROOT
BRANCH   2   6
ATOM      6  O   UNL     1       5.851   5.462  18.340  0.00  0.00    +0.000 OA
BRANCH   6   7
ATOM      7  P   UNL     1       7.411   5.562  18.676  0.00  0.00    +0.000 P 
ATOM      8  O   UNL     1       8.058   4.465  17.830  0.00  0.00    +0.000 OA
ATOM      9  O   UNL     1       7.872   6.859  18.027  0.00  0.00    +0.000 OA
ATOM     10  O   UNL     1       7.504   5.426  20.202  0.00  0.00    +0.000 OA
ENDBRANCH   6   7
ENDBRANCH   2   6
TORSDOF 2
ENDMDL
MODEL 5
REMARK VINA RESULT:      -4.2      1.679      1.992
REMARK  Name = 
REMARK  2 active torsions:
REMARK  status: ('A' for Active; 'I' for Inactive)
REMARK    1  A    between atoms: C_2  and  O_4
REMARK    2  A    between atoms: O_4  and  P_5
REMARK                            x       y       z     vdW  Elec       q    Type
REMARK                         _______ _______ _______ _____ _____    ______ ____
ROOT
ATOM      1  N   UNL     1       7.920   6.808  18.461  0.00  0.00    +0.000 N 
ATOM      2  C   UNL     1       7.102   5.811  18.904  0.00  0.00    +0.000 C 
ATOM      3  O   UNL     1       7.260   5.386  20.065  0.00  0.00    +0.000 OA
ATOM      4  H   UNL     1       8.257   7.460  19.173  0.00  0.00    +0.000 HD
ATOM      5  H   UNL     1       7.602   7.224  17.581  0.00  0.00    +0.000 HD
ENDROOT
BRANCH   2   6
ATOM      6  O   UNL     1       6.315   5.450  17.927  0.00  0.00    +0.000 OA
BRANCH   6   7
ATOM      7  P   UNL     1       6.890   4.745  16.612  0.00  0.00    +0.000 P 
ATOM      8  O   UNL     1       7.307   5.903  15.705  0.00  0.00    +0.000 OA
ATOM      9  O   UNL     1       8.205   4.113  17.045  0.00  0.00    +0.000 OA
ATOM     10  O   UNL     1       5.759   3.831  16.119  0.00  0.00    +0.000 OA
ENDBRANCH   6   7
ENDBRANCH   2   6
TORSDOF 2
ENDMDL
MODEL 6
REMARK VINA RESULT:      -4.2      1.864      3.333
REMARK  Name = 
REMARK  2 active torsions:
REMARK  status: ('A' for Active; 'I' for Inactive)
REMARK    1  A    between atoms: C_2  and  O_4
REMARK    2  A    between atoms: O_4  and  P_5
REMARK                            x       y       z     vdW  Elec       q    Type
REMARK                         _______ _______ _______ _____ _____    ______ ____
ROOT
ATOM      1  N   UNL     1       6.182   3.831  15.908  0.00  0.00    +0.000 N 
ATOM      2  C   UNL     1       6.861   5.002  15.751  0.00  0.00    +0.000 C 
ATOM      3  O   UNL     1       7.492   5.185  14.693  0.00  0.00    +0.000 OA
ATOM      4  H   UNL     1       5.824   3.402  15.051  0.00  0.00    +0.000 HD
ATOM      5  H   UNL     1       5.544   3.843  16.709  0.00  0.00    +0.000 HD
ENDROOT
BRANCH   2   6
ATOM      6  O   UNL     1       6.744   5.703  16.847  0.00  0.00    +0.000 OA
BRANCH   6   7
ATOM      7  P   UNL     1       7.430   5.234  18.212  0.00  0.00    +0.000 P 
ATOM      8  O   UNL     1       6.315   4.520  18.978  0.00  0.00    +0.000 OA
ATOM      9  O   UNL     1       8.386   4.120  17.812  0.00  0.00    +0.000 OA
ATOM     10  O   UNL     1       8.007   6.515  18.833  0.00  0.00    +0.000 OA
ENDBRANCH   6   7
ENDBRANCH   2   6
TORSDOF 2
ENDMDL
MODEL 7
REMARK VINA RESULT:      -4.2      1.409      1.778
REMARK  Name = 
REMARK  2 active torsions:
REMARK  status: ('A' for Active; 'I' for Inactive)
REMARK    1  A    between atoms: C_2  and  O_4
REMARK    2  A    between atoms: O_4  and  P_5
REMARK                            x       y       z     vdW  Elec       q    Type
REMARK                         _______ _______ _______ _____ _____    ______ ____
ROOT
ATOM      1  N   UNL     1       5.731   3.776  18.956  0.00  0.00    +0.000 N 
ATOM      2  C   UNL     1       6.295   5.016  18.909  0.00  0.00    +0.000 C 
ATOM      3  O   UNL     1       6.970   5.397  19.884  0.00  0.00    +0.000 OA
ATOM      4  H   UNL     1       6.238   3.073  19.497  0.00  0.00    +0.000 HD
ATOM      5  H   UNL     1       5.361   3.471  18.051  0.00  0.00    +0.000 HD
ENDROOT
BRANCH   2   6
ATOM      6  O   UNL     1       5.930   5.600  17.799  0.00  0.00    +0.000 OA
BRANCH   6   7
ATOM      7  P   UNL     1       6.827   5.512  16.479  0.00  0.00    +0.000 P 
ATOM      8  O   UNL     1       7.642   6.806  16.481  0.00  0.00    +0.000 OA
ATOM      9  O   UNL     1       7.849   4.422  16.767  0.00  0.00    +0.000 OA
ATOM     10  O   UNL     1       5.830   5.304  15.329  0.00  0.00    +0.000 OA
ENDBRANCH   6   7
ENDBRANCH   2   6
TORSDOF 2
ENDMDL
MODEL 8
REMARK VINA RESULT:      -4.2      2.477      3.563
REMARK  Name = 
REMARK  2 active torsions:
REMARK  status: ('A' for Active; 'I' for Inactive)
REMARK    1  A    between atoms: C_2  and  O_4
REMARK    2  A    between atoms: O_4  and  P_5
REMARK                            x       y       z     vdW  Elec       q    Type
REMARK                         _______ _______ _______ _____ _____    ______ ____
ROOT
ATOM      1  N   UNL     1       7.869   5.500  13.959  0.00  0.00    +0.000 N 
ATOM      2  C   UNL     1       6.756   4.854  14.409  0.00  0.00    +0.000 C 
ATOM      3  O   UNL     1       6.385   3.825  13.814  0.00  0.00    +0.000 OA
ATOM      4  H   UNL     1       8.581   4.912  13.521  0.00  0.00    +0.000 HD
ATOM      5  H   UNL     1       8.208   6.213  14.611  0.00  0.00    +0.000 HD
ENDROOT
BRANCH   2   6
ATOM      6  O   UNL     1       6.249   5.537  15.401  0.00  0.00    +0.000 OA
BRANCH   6   7
ATOM      7  P   UNL     1       7.023   5.683  16.792  0.00  0.00    +0.000 P 
ATOM      8  O   UNL     1       5.942   5.479  17.856  0.00  0.00    +0.000 OA
ATOM      9  O   UNL     1       7.892   4.439  16.894  0.00  0.00    +0.000 OA
ATOM     10  O   UNL     1       7.704   7.057  16.731  0.00  0.00    +0.000 OA
ENDBRANCH   6   7
ENDBRANCH   2   6
TORSDOF 2
ENDMDL
MODEL 9
REMARK VINA RESULT:      -4.1      2.364      3.457
REMARK  Name = 
REMARK  2 active torsions:
REMARK  status: ('A' for Active; 'I' for Inactive)
REMARK    1  A    between atoms: C_2  and  O_4
REMARK    2  A    between atoms: O_4  and  P_5
REMARK                            x       y       z     vdW  Elec       q    Type
REMARK                         _______ _______ _______ _____ _____    ______ ____
ROOT
ATOM      1  N   UNL     1       7.665   5.346  14.326  0.00  0.00    +0.000 N 
ATOM      2  C   UNL     1       6.578   4.617  14.709  0.00  0.00    +0.000 C 
ATOM      3  O   UNL     1       6.194   3.692  13.969  0.00  0.00    +0.000 OA
ATOM      4  H   UNL     1       8.364   4.848  13.770  0.00  0.00    +0.000 HD
ATOM      5  H   UNL     1       8.024   5.949  15.071  0.00  0.00    +0.000 HD
ENDROOT
BRANCH   2   6
ATOM      6  O   UNL     1       6.106   5.121  15.817  0.00  0.00    +0.000 OA
BRANCH   6   7
ATOM      7  P   UNL     1       7.060   5.431  17.063  0.00  0.00    +0.000 P 
ATOM      8  O   UNL     1       7.637   6.816  16.770  0.00  0.00    +0.000 OA
ATOM      9  O   UNL     1       6.117   5.656  18.236  0.00  0.00    +0.000 OA
ATOM     10  O   UNL     1       8.042   4.252  17.120  0.00  0.00    +0.000 OA
ENDBRANCH   6   7
ENDBRANCH   2   6
TORSDOF 2
ENDMDL
