MODEL 1
REMARK VINA RESULT:      -7.3      0.000      0.000
REMARK  Name = 
REMARK  5 active torsions:
REMARK  status: ('A' for Active; 'I' for Inactive)
REMARK    1  A    between atoms: C_1  and  C_2
REMARK    2  A    between atoms: C_2  and  C_3
REMARK    3  A    between atoms: C_2  and  C_4
REMARK    4  A    between atoms: C_2  and  C_5
REMARK    5  A    between atoms: C_8  and  C_9
REMARK                            x       y       z     vdW  Elec       q    Type
REMARK                         _______ _______ _______ _____ _____    ______ ____
ROOT
ATOM      1  C   UNL     1       1.296   8.513  20.980  0.00  0.00    +0.000 C 
ATOM      2  O   UNL     1       1.673   8.527  22.150  0.00  0.00    +0.000 OA
ATOM      3  N   UNL     1       0.392   9.413  20.424  0.00  0.00    +0.000 N 
ATOM      4  C   UNL     1      -0.163  10.397  21.237  0.00  0.00    +0.000 A 
ATOM      5  N   UNL     1       0.099  10.619  22.508  0.00  0.00    +0.000 NA
ATOM      6  N   UNL     1      -0.696  11.636  22.968  0.00  0.00    +0.000 NA
ATOM      7  C   UNL     1      -1.440  12.021  21.967  0.00  0.00    +0.000 A 
ATOM      8  N   UNL     1      -1.118  11.314  20.839  0.00  0.00    +0.000 N 
ATOM      9  C   UNL     1      -1.721  11.465  19.538  0.00  0.00    +0.000 C 
ATOM     10  C   UNL     1      -2.636  12.685  19.378  0.00  0.00    +0.000 C 
ATOM     11  C   UNL     1      -3.597  12.845  20.548  0.00  0.00    +0.000 C 
ATOM     12  S   UNL     1      -2.661  13.235  22.041  0.00  0.00    +0.000 S 
ATOM     13  H   UNL     1       0.099   9.337  19.466  0.00  0.00    +0.000 HD
ENDROOT
BRANCH   1  17
ATOM     14  C   UNL     1       2.897   5.172  18.675  0.00  0.00    +0.000 A 
ATOM     15  C   UNL     1       2.342   5.027  19.952  0.00  0.00    +0.000 A 
ATOM     16  C   UNL     1       1.829   6.125  20.652  0.00  0.00    +0.000 A 
ATOM     17  C   UNL     1       1.861   7.421  20.117  0.00  0.00    +0.000 A 
ATOM     18  C   UNL     1       2.429   7.592  18.855  0.00  0.00    +0.000 A 
ATOM     19  C   UNL     1       2.941   6.480  18.150  0.00  0.00    +0.000 A 
BRANCH  14  21
ATOM     20  C   UNL     1       2.392   3.023  17.355  0.00  0.00    +0.000 C 
ATOM     21  C   UNL     1       3.487   3.958  17.929  0.00  0.00    +0.000 C 
ATOM     22  C   UNL     1       4.346   3.144  18.918  0.00  0.00    +0.000 C 
ATOM     23  C   UNL     1       4.372   4.365  16.731  0.00  0.00    +0.000 C 
ENDBRANCH  14  21
ENDBRANCH   1  17
TORSDOF 2
ENDMDL
MODEL 2
REMARK VINA RESULT:      -7.3      1.797      2.800
REMARK  Name = 
REMARK  5 active torsions:
REMARK  status: ('A' for Active; 'I' for Inactive)
REMARK    1  A    between atoms: C_1  and  C_2
REMARK    2  A    between atoms: C_2  and  C_3
REMARK    3  A    between atoms: C_2  and  C_4
REMARK    4  A    between atoms: C_2  and  C_5
REMARK    5  A    between atoms: C_8  and  C_9
REMARK                            x       y       z     vdW  Elec       q    Type
REMARK                         _______ _______ _______ _____ _____    ______ ____
ROOT
ATOM      1  C   UNL     1       1.588   9.194  18.594  0.00  0.00    +0.000 C 
ATOM      2  O   UNL     1       1.599   9.833  17.544  0.00  0.00    +0.000 OA
ATOM      3  N   UNL     1       0.901   9.566  19.745  0.00  0.00    +0.000 N 
ATOM      4  C   UNL     1       0.185  10.758  19.744  0.00  0.00    +0.000 A 
ATOM      5  N   UNL     1       0.037  11.596  18.739  0.00  0.00    +0.000 NA
ATOM      6  N   UNL     1      -0.685  12.685  19.154  0.00  0.00    +0.000 NA
ATOM      7  C   UNL     1      -0.966  12.499  20.415  0.00  0.00    +0.000 A 
ATOM      8  N   UNL     1      -0.489  11.284  20.831  0.00  0.00    +0.000 N 
ATOM      9  C   UNL     1      -0.614  10.728  22.156  0.00  0.00    +0.000 C 
ATOM     10  C   UNL     1      -1.564  11.481  23.095  0.00  0.00    +0.000 C 
ATOM     11  C   UNL     1      -1.347  12.987  23.053  0.00  0.00    +0.000 C 
ATOM     12  S   UNL     1      -1.807  13.613  21.424  0.00  0.00    +0.000 S 
ATOM     13  H   UNL     1       0.949   9.016  20.585  0.00  0.00    +0.000 HD
ENDROOT
BRANCH   1  17
ATOM     14  C   UNL     1       4.041   5.590  18.391  0.00  0.00    +0.000 A 
ATOM     15  C   UNL     1       4.078   6.599  17.421  0.00  0.00    +0.000 A 
ATOM     16  C   UNL     1       3.282   7.745  17.531  0.00  0.00    +0.000 A 
ATOM     17  C   UNL     1       2.400   7.930  18.606  0.00  0.00    +0.000 A 
ATOM     18  C   UNL     1       2.332   6.927  19.574  0.00  0.00    +0.000 A 
ATOM     19  C   UNL     1       3.141   5.774  19.461  0.00  0.00    +0.000 A 
BRANCH  14  21
ATOM     20  C   UNL     1       6.421   4.623  18.255  0.00  0.00    +0.000 C 
ATOM     21  C   UNL     1       4.902   4.319  18.241  0.00  0.00    +0.000 C 
ATOM     22  C   UNL     1       4.557   3.650  16.895  0.00  0.00    +0.000 C 
ATOM     23  C   UNL     1       4.659   3.297  19.372  0.00  0.00    +0.000 C 
ENDBRANCH  14  21
ENDBRANCH   1  17
TORSDOF 2
ENDMDL
MODEL 3
REMARK VINA RESULT:      -7.2      2.007      2.707
REMARK  Name = 
REMARK  5 active torsions:
REMARK  status: ('A' for Active; 'I' for Inactive)
REMARK    1  A    between atoms: C_1  and  C_2
REMARK    2  A    between atoms: C_2  and  C_3
REMARK    3  A    between atoms: C_2  and  C_4
REMARK    4  A    between atoms: C_2  and  C_5
REMARK    5  A    between atoms: C_8  and  C_9
REMARK                            x       y       z     vdW  Elec       q    Type
REMARK                         _______ _______ _______ _____ _____    ______ ____
ROOT
ATOM      1  C   UNL     1       1.837   8.698  18.887  0.00  0.00    +0.000 C 
ATOM      2  O   UNL     1       2.366   9.199  17.898  0.00  0.00    +0.000 OA
ATOM      3  N   UNL     1       1.072   9.393  19.818  0.00  0.00    +0.000 N 
ATOM      4  C   UNL     1       0.896  10.763  19.656  0.00  0.00    +0.000 A 
ATOM      5  N   UNL     1       1.348  11.511  18.671  0.00  0.00    +0.000 NA
ATOM      6  N   UNL     1       1.019  12.821  18.904  0.00  0.00    +0.000 NA
ATOM      7  C   UNL     1       0.370  12.857  20.035  0.00  0.00    +0.000 A 
ATOM      8  N   UNL     1       0.218  11.589  20.532  0.00  0.00    +0.000 N 
ATOM      9  C   UNL     1      -0.451  11.230  21.759  0.00  0.00    +0.000 C 
ATOM     10  C   UNL     1      -1.248  12.358  22.425  0.00  0.00    +0.000 C 
ATOM     11  C   UNL     1      -0.466  13.663  22.483  0.00  0.00    +0.000 C 
ATOM     12  S   UNL     1      -0.209  14.283  20.808  0.00  0.00    +0.000 S 
ATOM     13  H   UNL     1       0.685   8.935  20.625  0.00  0.00    +0.000 HD
ENDROOT
BRANCH   1  17
ATOM     14  C   UNL     1       2.440   4.456  19.719  0.00  0.00    +0.000 A 
ATOM     15  C   UNL     1       1.947   5.362  20.666  0.00  0.00    +0.000 A 
ATOM     16  C   UNL     1       1.758   6.713  20.353  0.00  0.00    +0.000 A 
ATOM     17  C   UNL     1       2.067   7.227  19.086  0.00  0.00    +0.000 A 
ATOM     18  C   UNL     1       2.581   6.347  18.133  0.00  0.00    +0.000 A 
ATOM     19  C   UNL     1       2.765   4.983  18.451  0.00  0.00    +0.000 A 
BRANCH  14  21
ATOM     20  C   UNL     1       1.822   2.009  19.226  0.00  0.00    +0.000 C 
ATOM     21  C   UNL     1       2.672   2.977  20.087  0.00  0.00    +0.000 C 
ATOM     22  C   UNL     1       2.285   2.774  21.566  0.00  0.00    +0.000 C 
ATOM     23  C   UNL     1       4.141   2.539  19.900  0.00  0.00    +0.000 C 
ENDBRANCH  14  21
ENDBRANCH   1  17
TORSDOF 2
ENDMDL
MODEL 4
REMARK VINA RESULT:      -7.2      1.514      1.608
REMARK  Name = 
REMARK  5 active torsions:
REMARK  status: ('A' for Active; 'I' for Inactive)
REMARK    1  A    between atoms: C_1  and  C_2
REMARK    2  A    between atoms: C_2  and  C_3
REMARK    3  A    between atoms: C_2  and  C_4
REMARK    4  A    between atoms: C_2  and  C_5
REMARK    5  A    between atoms: C_8  and  C_9
REMARK                            x       y       z     vdW  Elec       q    Type
REMARK                         _______ _______ _______ _____ _____    ______ ____
ROOT
ATOM      1  C   UNL     1       1.352   8.488  20.712  0.00  0.00    +0.000 C 
ATOM      2  O   UNL     1       0.956   8.267  21.854  0.00  0.00    +0.000 OA
ATOM      3  N   UNL     1       1.317   9.729  20.084  0.00  0.00    +0.000 N 
ATOM      4  C   UNL     1       0.777  10.813  20.767  0.00  0.00    +0.000 A 
ATOM      5  N   UNL     1       0.309  10.824  21.998  0.00  0.00    +0.000 NA
ATOM      6  N   UNL     1      -0.193  12.067  22.285  0.00  0.00    +0.000 NA
ATOM      7  C   UNL     1      -0.029  12.800  21.219  0.00  0.00    +0.000 A 
ATOM      8  N   UNL     1       0.619  12.084  20.247  0.00  0.00    +0.000 N 
ATOM      9  C   UNL     1       0.981  12.562  18.935  0.00  0.00    +0.000 C 
ATOM     10  C   UNL     1       0.819  14.072  18.721  0.00  0.00    +0.000 C 
ATOM     11  C   UNL     1      -0.513  14.592  19.244  0.00  0.00    +0.000 C 
ATOM     12  S   UNL     1      -0.554  14.432  21.040  0.00  0.00    +0.000 S 
ATOM     13  H   UNL     1       1.631   9.845  19.136  0.00  0.00    +0.000 HD
ENDROOT
BRANCH   1  17
ATOM     14  C   UNL     1       2.867   4.902  18.739  0.00  0.00    +0.000 A 
ATOM     15  C   UNL     1       2.263   4.886  20.002  0.00  0.00    +0.000 A 
ATOM     16  C   UNL     1       1.780   6.059  20.594  0.00  0.00    +0.000 A 
ATOM     17  C   UNL     1       1.892   7.305  19.960  0.00  0.00    +0.000 A 
ATOM     18  C   UNL     1       2.510   7.348  18.710  0.00  0.00    +0.000 A 
ATOM     19  C   UNL     1       2.992   6.160  18.115  0.00  0.00    +0.000 A 
BRANCH  14  21
ATOM     20  C   UNL     1       2.302   2.632  17.671  0.00  0.00    +0.000 C 
ATOM     21  C   UNL     1       3.422   3.606  18.114  0.00  0.00    +0.000 C 
ATOM     22  C   UNL     1       4.297   2.891  19.163  0.00  0.00    +0.000 C 
ATOM     23  C   UNL     1       4.281   3.870  16.858  0.00  0.00    +0.000 C 
ENDBRANCH  14  21
ENDBRANCH   1  17
TORSDOF 2
ENDMDL
MODEL 5
REMARK VINA RESULT:      -7.2      3.593      8.590
REMARK  Name = 
REMARK  5 active torsions:
REMARK  status: ('A' for Active; 'I' for Inactive)
REMARK    1  A    between atoms: C_1  and  C_2
REMARK    2  A    between atoms: C_2  and  C_3
REMARK    3  A    between atoms: C_2  and  C_4
REMARK    4  A    between atoms: C_2  and  C_5
REMARK    5  A    between atoms: C_8  and  C_9
REMARK                            x       y       z     vdW  Elec       q    Type
REMARK                         _______ _______ _______ _____ _____    ______ ____
ROOT
ATOM      1  C   UNL     1       1.446   8.629  20.014  0.00  0.00    +0.000 C 
ATOM      2  O   UNL     1       1.974   9.066  18.994  0.00  0.00    +0.000 OA
ATOM      3  N   UNL     1       1.603   7.334  20.498  0.00  0.00    +0.000 N 
ATOM      4  C   UNL     1       2.390   6.438  19.782  0.00  0.00    +0.000 A 
ATOM      5  N   UNL     1       3.066   6.681  18.678  0.00  0.00    +0.000 NA
ATOM      6  N   UNL     1       3.664   5.526  18.245  0.00  0.00    +0.000 NA
ATOM      7  C   UNL     1       3.341   4.588  19.092  0.00  0.00    +0.000 A 
ATOM      8  N   UNL     1       2.582   5.109  20.107  0.00  0.00    +0.000 N 
ATOM      9  C   UNL     1       2.045   4.379  21.230  0.00  0.00    +0.000 C 
ATOM     10  C   UNL     1       2.576   2.950  21.397  0.00  0.00    +0.000 C 
ATOM     11  C   UNL     1       2.589   2.180  20.083  0.00  0.00    +0.000 C 
ATOM     12  S   UNL     1       3.789   2.929  18.962  0.00  0.00    +0.000 S 
ATOM     13  H   UNL     1       1.124   7.023  21.326  0.00  0.00    +0.000 HD
ENDROOT
BRANCH   1  17
ATOM     14  C   UNL     1      -1.152  11.546  21.959  0.00  0.00    +0.000 A 
ATOM     15  C   UNL     1      -0.846  11.580  20.593  0.00  0.00    +0.000 A 
ATOM     16  C   UNL     1      -0.016  10.618  20.007  0.00  0.00    +0.000 A 
ATOM     17  C   UNL     1       0.559   9.584  20.760  0.00  0.00    +0.000 A 
ATOM     18  C   UNL     1       0.286   9.542  22.127  0.00  0.00    +0.000 A 
ATOM     19  C   UNL     1      -0.556  10.514  22.713  0.00  0.00    +0.000 A 
BRANCH  14  21
ATOM     20  C   UNL     1      -2.877  13.409  21.547  0.00  0.00    +0.000 C 
ATOM     21  C   UNL     1      -2.042  12.632  22.596  0.00  0.00    +0.000 C 
ATOM     22  C   UNL     1      -1.136  13.639  23.332  0.00  0.00    +0.000 C 
ATOM     23  C   UNL     1      -3.055  12.054  23.608  0.00  0.00    +0.000 C 
ENDBRANCH  14  21
ENDBRANCH   1  17
TORSDOF 2
ENDMDL
MODEL 6
REMARK VINA RESULT:      -7.1      1.620      2.006
REMARK  Name = 
REMARK  5 active torsions:
REMARK  status: ('A' for Active; 'I' for Inactive)
REMARK    1  A    between atoms: C_1  and  C_2
REMARK    2  A    between atoms: C_2  and  C_3
REMARK    3  A    between atoms: C_2  and  C_4
REMARK    4  A    between atoms: C_2  and  C_5
REMARK    5  A    between atoms: C_8  and  C_9
REMARK                            x       y       z     vdW  Elec       q    Type
REMARK                         _______ _______ _______ _____ _____    ______ ____
ROOT
ATOM      1  C   UNL     1       1.252   8.581  20.868  0.00  0.00    +0.000 C 
ATOM      2  O   UNL     1       0.749   8.415  21.978  0.00  0.00    +0.000 OA
ATOM      3  N   UNL     1       1.324   9.800  20.202  0.00  0.00    +0.000 N 
ATOM      4  C   UNL     1       0.773  10.928  20.802  0.00  0.00    +0.000 A 
ATOM      5  N   UNL     1       0.201  10.999  21.986  0.00  0.00    +0.000 NA
ATOM      6  N   UNL     1      -0.272  12.270  22.190  0.00  0.00    +0.000 NA
ATOM      7  C   UNL     1       0.015  12.960  21.120  0.00  0.00    +0.000 A 
ATOM      8  N   UNL     1       0.715  12.186  20.232  0.00  0.00    +0.000 N 
ATOM      9  C   UNL     1       1.209  12.604  18.943  0.00  0.00    +0.000 C 
ATOM     10  C   UNL     1       1.130  14.111  18.669  0.00  0.00    +0.000 C 
ATOM     11  C   UNL     1      -0.219  14.700  19.056  0.00  0.00    +0.000 C 
ATOM     12  S   UNL     1      -0.422  14.604  20.847  0.00  0.00    +0.000 S 
ATOM     13  H   UNL     1       1.724   9.872  19.283  0.00  0.00    +0.000 HD
ENDROOT
BRANCH   1  17
ATOM     14  C   UNL     1       2.914   5.163  18.723  0.00  0.00    +0.000 A 
ATOM     15  C   UNL     1       2.939   6.471  18.222  0.00  0.00    +0.000 A 
ATOM     16  C   UNL     1       2.403   7.540  18.949  0.00  0.00    +0.000 A 
ATOM     17  C   UNL     1       1.805   7.353  20.203  0.00  0.00    +0.000 A 
ATOM     18  C   UNL     1       1.750   6.056  20.713  0.00  0.00    +0.000 A 
ATOM     19  C   UNL     1       2.295   4.980  19.977  0.00  0.00    +0.000 A 
BRANCH  14  21
ATOM     20  C   UNL     1       2.371   3.172  17.189  0.00  0.00    +0.000 C 
ATOM     21  C   UNL     1       3.480   3.990  17.898  0.00  0.00    +0.000 C 
ATOM     22  C   UNL     1       4.243   3.046  18.848  0.00  0.00    +0.000 C 
ATOM     23  C   UNL     1       4.446   4.454  16.787  0.00  0.00    +0.000 C 
ENDBRANCH  14  21
ENDBRANCH   1  17
TORSDOF 2
ENDMDL
MODEL 7
REMARK VINA RESULT:      -7.0      1.921      2.344
REMARK  Name = 
REMARK  5 active torsions:
REMARK  status: ('A' for Active; 'I' for Inactive)
REMARK    1  A    between atoms: C_1  and  C_2
REMARK    2  A    between atoms: C_2  and  C_3
REMARK    3  A    between atoms: C_2  and  C_4
REMARK    4  A    between atoms: C_2  and  C_5
REMARK    5  A    between atoms: C_8  and  C_9
REMARK                            x       y       z     vdW  Elec       q    Type
REMARK                         _______ _______ _______ _____ _____    ______ ____
ROOT
ATOM      1  C   UNL     1       0.566   9.990  19.609  0.00  0.00    +0.000 C 
ATOM      2  O   UNL     1       0.941  10.569  20.626  0.00  0.00    +0.000 OA
ATOM      3  N   UNL     1      -0.632  10.239  18.948  0.00  0.00    +0.000 N 
ATOM      4  C   UNL     1      -1.502  11.191  19.469  0.00  0.00    +0.000 A 
ATOM      5  N   UNL     1      -1.311  11.946  20.531  0.00  0.00    +0.000 NA
ATOM      6  N   UNL     1      -2.427  12.711  20.754  0.00  0.00    +0.000 NA
ATOM      7  C   UNL     1      -3.290  12.408  19.824  0.00  0.00    +0.000 A 
ATOM      8  N   UNL     1      -2.750  11.495  18.957  0.00  0.00    +0.000 N 
ATOM      9  C   UNL     1      -3.402  10.930  17.801  0.00  0.00    +0.000 C 
ATOM     10  C   UNL     1      -4.724  11.596  17.403  0.00  0.00    +0.000 C 
ATOM     11  C   UNL     1      -5.637  11.831  18.599  0.00  0.00    +0.000 C 
ATOM     12  S   UNL     1      -4.884  13.049  19.696  0.00  0.00    +0.000 S 
ATOM     13  H   UNL     1      -0.900   9.715  18.133  0.00  0.00    +0.000 HD
ENDROOT
BRANCH   1  17
ATOM     14  C   UNL     1       3.228   6.791  18.295  0.00  0.00    +0.000 A 
ATOM     15  C   UNL     1       2.606   6.806  19.550  0.00  0.00    +0.000 A 
ATOM     16  C   UNL     1       1.750   7.847  19.926  0.00  0.00    +0.000 A 
ATOM     17  C   UNL     1       1.487   8.930  19.075  0.00  0.00    +0.000 A 
ATOM     18  C   UNL     1       2.112   8.947  17.829  0.00  0.00    +0.000 A 
ATOM     19  C   UNL     1       2.972   7.891  17.451  0.00  0.00    +0.000 A 
BRANCH  14  21
ATOM     20  C   UNL     1       3.450   4.386  17.411  0.00  0.00    +0.000 C 
ATOM     21  C   UNL     1       4.193   5.653  17.906  0.00  0.00    +0.000 C 
ATOM     22  C   UNL     1       5.024   5.270  19.147  0.00  0.00    +0.000 C 
ATOM     23  C   UNL     1       5.161   6.053  16.772  0.00  0.00    +0.000 C 
ENDBRANCH  14  21
ENDBRANCH   1  17
TORSDOF 2
ENDMDL
MODEL 8
REMARK VINA RESULT:      -7.0      0.325      1.425
REMARK  Name = 
REMARK  5 active torsions:
REMARK  status: ('A' for Active; 'I' for Inactive)
REMARK    1  A    between atoms: C_1  and  C_2
REMARK    2  A    between atoms: C_2  and  C_3
REMARK    3  A    between atoms: C_2  and  C_4
REMARK    4  A    between atoms: C_2  and  C_5
REMARK    5  A    between atoms: C_8  and  C_9
REMARK                            x       y       z     vdW  Elec       q    Type
REMARK                         _______ _______ _______ _____ _____    ______ ____
ROOT
ATOM      1  C   UNL     1       1.324   8.501  20.992  0.00  0.00    +0.000 C 
ATOM      2  O   UNL     1       1.763   8.712  22.120  0.00  0.00    +0.000 OA
ATOM      3  N   UNL     1       0.382   9.293  20.344  0.00  0.00    +0.000 N 
ATOM      4  C   UNL     1      -0.138  10.400  21.008  0.00  0.00    +0.000 A 
ATOM      5  N   UNL     1       0.190  10.833  22.208  0.00  0.00    +0.000 NA
ATOM      6  N   UNL     1      -0.590  11.912  22.533  0.00  0.00    +0.000 NA
ATOM      7  C   UNL     1      -1.391  12.122  21.524  0.00  0.00    +0.000 A 
ATOM      8  N   UNL     1      -1.122  11.235  20.515  0.00  0.00    +0.000 N 
ATOM      9  C   UNL     1      -1.796  11.165  19.242  0.00  0.00    +0.000 C 
ATOM     10  C   UNL     1      -2.731  12.339  18.930  0.00  0.00    +0.000 C 
ATOM     11  C   UNL     1      -3.629  12.694  20.107  0.00  0.00    +0.000 C 
ATOM     12  S   UNL     1      -2.618  13.330  21.460  0.00  0.00    +0.000 S 
ATOM     13  H   UNL     1       0.039   9.057  19.429  0.00  0.00    +0.000 HD
ENDROOT
BRANCH   1  17
ATOM     14  C   UNL     1       2.926   5.109  18.763  0.00  0.00    +0.000 A 
ATOM     15  C   UNL     1       3.011   6.432  18.313  0.00  0.00    +0.000 A 
ATOM     16  C   UNL     1       2.493   7.492  19.066  0.00  0.00    +0.000 A 
ATOM     17  C   UNL     1       1.853   7.280  20.295  0.00  0.00    +0.000 A 
ATOM     18  C   UNL     1       1.738   5.967  20.753  0.00  0.00    +0.000 A 
ATOM     19  C   UNL     1       2.266   4.901  19.992  0.00  0.00    +0.000 A 
BRANCH  14  21
ATOM     20  C   UNL     1       4.437   4.431  16.795  0.00  0.00    +0.000 C 
ATOM     21  C   UNL     1       3.474   3.948  17.908  0.00  0.00    +0.000 C 
ATOM     22  C   UNL     1       2.285   3.229  17.239  0.00  0.00    +0.000 C 
ATOM     23  C   UNL     1       4.265   2.916  18.740  0.00  0.00    +0.000 C 
ENDBRANCH  14  21
ENDBRANCH   1  17
TORSDOF 2
ENDMDL
MODEL 9
REMARK VINA RESULT:      -7.0      1.866      2.728
REMARK  Name = 
REMARK  5 active torsions:
REMARK  status: ('A' for Active; 'I' for Inactive)
REMARK    1  A    between atoms: C_1  and  C_2
REMARK    2  A    between atoms: C_2  and  C_3
REMARK    3  A    between atoms: C_2  and  C_4
REMARK    4  A    between atoms: C_2  and  C_5
REMARK    5  A    between atoms: C_8  and  C_9
REMARK                            x       y       z     vdW  Elec       q    Type
REMARK                         _______ _______ _______ _____ _____    ______ ____
ROOT
ATOM      1  C   UNL     1       1.812   8.650  18.995  0.00  0.00    +0.000 C 
ATOM      2  O   UNL     1       2.320   9.224  18.034  0.00  0.00    +0.000 OA
ATOM      3  N   UNL     1       1.004   9.259  19.950  0.00  0.00    +0.000 N 
ATOM      4  C   UNL     1       0.756  10.625  19.849  0.00  0.00    +0.000 A 
ATOM      5  N   UNL     1       1.174  11.441  18.903  0.00  0.00    +0.000 NA
ATOM      6  N   UNL     1       0.773  12.719  19.193  0.00  0.00    +0.000 NA
ATOM      7  C   UNL     1       0.116  12.667  20.319  0.00  0.00    +0.000 A 
ATOM      8  N   UNL     1       0.029  11.372  20.756  0.00  0.00    +0.000 N 
ATOM      9  C   UNL     1      -0.628  10.921  21.959  0.00  0.00    +0.000 C 
ATOM     10  C   UNL     1      -1.489  11.973  22.668  0.00  0.00    +0.000 C 
ATOM     11  C   UNL     1      -0.778  13.314  22.794  0.00  0.00    +0.000 C 
ATOM     12  S   UNL     1      -0.544  14.023  21.152  0.00  0.00    +0.000 S 
ATOM     13  H   UNL     1       0.637   8.744  20.731  0.00  0.00    +0.000 HD
ENDROOT
BRANCH   1  17
ATOM     14  C   UNL     1       2.744   4.389  19.116  0.00  0.00    +0.000 A 
ATOM     15  C   UNL     1       2.831   5.161  17.952  0.00  0.00    +0.000 A 
ATOM     16  C   UNL     1       2.534   6.528  17.960  0.00  0.00    +0.000 A 
ATOM     17  C   UNL     1       2.120   7.186  19.127  0.00  0.00    +0.000 A 
ATOM     18  C   UNL     1       2.005   6.432  20.295  0.00  0.00    +0.000 A 
ATOM     19  C   UNL     1       2.311   5.053  20.283  0.00  0.00    +0.000 A 
BRANCH  14  21
ATOM     20  C   UNL     1       4.085   2.455  20.154  0.00  0.00    +0.000 C 
ATOM     21  C   UNL     1       3.045   2.877  19.086  0.00  0.00    +0.000 C 
ATOM     22  C   UNL     1       3.609   2.518  17.696  0.00  0.00    +0.000 C 
ATOM     23  C   UNL     1       1.791   2.013  19.344  0.00  0.00    +0.000 C 
ENDBRANCH  14  21
ENDBRANCH   1  17
TORSDOF 2
ENDMDL
