MODEL 1
REMARK VINA RESULT:      -7.5      0.000      0.000
REMARK  Name = 
REMARK  5 active torsions:
REMARK  status: ('A' for Active; 'I' for Inactive)
REMARK    1  A    between atoms: C_5  and  C_6
REMARK    2  A    between atoms: C_6  and  N_7
REMARK    3  A    between atoms: N_7  and  C_8
REMARK    4  A    between atoms: C_8  and  C_9
REMARK    5  A    between atoms: C_9  and  N_10
REMARK                            x       y       z     vdW  Elec       q    Type
REMARK                         _______ _______ _______ _____ _____    ______ ____
ROOT
ATOM      1  C   UNL     1       8.232   7.571  18.575  0.00  0.00    +0.000 C 
ENDROOT
BRANCH   1   2
ATOM      2  N   UNL     1       8.947   8.759  19.071  0.00  0.00    +0.000 NA
ATOM      3  H   UNL     1       8.643   8.947  20.026  0.00  0.00    +0.000 HD
BRANCH   2   4
ATOM      4  C   UNL     1       8.663   9.945  18.251  0.00  0.00    +0.000 C 
BRANCH   4   9
ATOM      5 CL   UNL     1      11.749  14.866  19.906  0.00  0.00    +0.000 Cl
ATOM      6  C   UNL     1      10.869  13.466  19.438  0.00  0.00    +0.000 A 
ATOM      7  C   UNL     1      11.252  12.216  19.914  0.00  0.00    +0.000 A 
ATOM      8  C   UNL     1      10.531  11.081  19.538  0.00  0.00    +0.000 A 
ATOM      9  C   UNL     1       9.404  11.185  18.699  0.00  0.00    +0.000 A 
ATOM     10  C   UNL     1       9.065  12.455  18.198  0.00  0.00    +0.000 A 
ATOM     11 CL   UNL     1       7.766  12.682  17.078  0.00  0.00    +0.000 Cl
ATOM     12  C   UNL     1       9.786  13.592  18.575  0.00  0.00    +0.000 A 
ENDBRANCH   4   9
ENDBRANCH   2   4
ENDBRANCH   1   2
BRANCH   1  13
ATOM     13  C   UNL     1       7.421   7.821  17.289  0.00  0.00    +0.000 C 
BRANCH  13  14
ATOM     14  N   UNL     1       7.244   6.600  16.511  0.00  0.00    +0.000 N 
ATOM     15  C   UNL     1       6.096   5.919  16.764  0.00  0.00    +0.000 A 
ATOM     16  N   UNL     1       4.995   6.472  17.211  0.00  0.00    +0.000 NA
ATOM     17  C   UNL     1       4.022   5.514  17.420  0.00  0.00    +0.000 A 
ATOM     18  C   UNL     1       2.717   5.757  17.892  0.00  0.00    +0.000 A 
ATOM     19  C   UNL     1       1.834   4.691  18.067  0.00  0.00    +0.000 A 
ATOM     20  C   UNL     1       2.239   3.388  17.783  0.00  0.00    +0.000 A 
ATOM     21  C   UNL     1       3.530   3.124  17.312  0.00  0.00    +0.000 A 
ATOM     22  C   UNL     1       4.406   4.206  17.132  0.00  0.00    +0.000 A 
ATOM     23  S   UNL     1       6.029   4.214  16.565  0.00  0.00    +0.000 S 
ATOM     24  H   UNL     1       8.072   6.018  16.444  0.00  0.00    +0.000 HD
ENDBRANCH  13  14
ENDBRANCH   1  13
TORSDOF 5
ENDMDL
MODEL 2
REMARK VINA RESULT:      -7.3      5.974      7.656
REMARK  Name = 
REMARK  5 active torsions:
REMARK  status: ('A' for Active; 'I' for Inactive)
REMARK    1  A    between atoms: C_5  and  C_6
REMARK    2  A    between atoms: C_6  and  N_7
REMARK    3  A    between atoms: N_7  and  C_8
REMARK    4  A    between atoms: C_8  and  C_9
REMARK    5  A    between atoms: C_9  and  N_10
REMARK                            x       y       z     vdW  Elec       q    Type
REMARK                         _______ _______ _______ _____ _____    ______ ____
ROOT
ATOM      1  C   UNL     1       1.544   5.542  20.644  0.00  0.00    +0.000 C 
ENDROOT
BRANCH   1   2
ATOM      2  N   UNL     1       2.504   6.648  20.480  0.00  0.00    +0.000 NA
ATOM      3  H   UNL     1       2.762   6.994  21.404  0.00  0.00    +0.000 HD
BRANCH   2   4
ATOM      4  C   UNL     1       1.926   7.759  19.712  0.00  0.00    +0.000 C 
BRANCH   4   9
ATOM      5 CL   UNL     1      -1.288  11.630  23.052  0.00  0.00    +0.000 Cl
ATOM      6  C   UNL     1      -0.376  10.526  22.101  0.00  0.00    +0.000 A 
ATOM      7  C   UNL     1       0.426   9.575  22.724  0.00  0.00    +0.000 A 
ATOM      8  C   UNL     1       1.161   8.676  21.950  0.00  0.00    +0.000 A 
ATOM      9  C   UNL     1       1.085   8.700  20.544  0.00  0.00    +0.000 A 
ATOM     10  C   UNL     1       0.300   9.700  19.939  0.00  0.00    +0.000 A 
ATOM     11 CL   UNL     1       0.218   9.889  18.221  0.00  0.00    +0.000 Cl
ATOM     12  C   UNL     1      -0.437  10.601  20.714  0.00  0.00    +0.000 A 
ENDBRANCH   4   9
ENDBRANCH   2   4
ENDBRANCH   1   2
BRANCH   1  13
ATOM     13  C   UNL     1       2.202   4.186  20.961  0.00  0.00    +0.000 C 
BRANCH  13  14
ATOM     14  N   UNL     1       2.274   3.328  19.783  0.00  0.00    +0.000 N 
ATOM     15  C   UNL     1       3.319   3.578  18.952  0.00  0.00    +0.000 A 
ATOM     16  N   UNL     1       4.454   4.109  19.337  0.00  0.00    +0.000 NA
ATOM     17  C   UNL     1       5.296   4.287  18.257  0.00  0.00    +0.000 A 
ATOM     18  C   UNL     1       6.595   4.829  18.308  0.00  0.00    +0.000 A 
ATOM     19  C   UNL     1       7.337   4.961  17.133  0.00  0.00    +0.000 A 
ATOM     20  C   UNL     1       6.797   4.566  15.911  0.00  0.00    +0.000 A 
ATOM     21  C   UNL     1       5.509   4.023  15.837  0.00  0.00    +0.000 A 
ATOM     22  C   UNL     1       4.776   3.887  17.027  0.00  0.00    +0.000 A 
ATOM     23  S   UNL     1       3.196   3.256  17.270  0.00  0.00    +0.000 S 
ATOM     24  H   UNL     1       1.387   3.184  19.311  0.00  0.00    +0.000 HD
ENDBRANCH  13  14
ENDBRANCH   1  13
TORSDOF 5
ENDMDL
MODEL 3
REMARK VINA RESULT:      -7.2      4.921      7.503
REMARK  Name = 
REMARK  5 active torsions:
REMARK  status: ('A' for Active; 'I' for Inactive)
REMARK    1  A    between atoms: C_5  and  C_6
REMARK    2  A    between atoms: C_6  and  N_7
REMARK    3  A    between atoms: N_7  and  C_8
REMARK    4  A    between atoms: C_8  and  C_9
REMARK    5  A    between atoms: C_9  and  N_10
REMARK                            x       y       z     vdW  Elec       q    Type
REMARK                         _______ _______ _______ _____ _____    ______ ____
ROOT
ATOM      1  C   UNL     1       1.846   3.253  20.455  0.00  0.00    +0.000 C 
ENDROOT
BRANCH   1   2
ATOM      2  N   UNL     1       1.688   4.516  19.713  0.00  0.00    +0.000 NA
ATOM      3  H   UNL     1       2.007   4.372  18.754  0.00  0.00    +0.000 HD
BRANCH   2   4
ATOM      4  C   UNL     1       2.482   5.599  20.309  0.00  0.00    +0.000 C 
BRANCH   4   9
ATOM      5 CL   UNL     1      -0.032  11.086  20.081  0.00  0.00    +0.000 Cl
ATOM      6  C   UNL     1       0.681   9.523  20.145  0.00  0.00    +0.000 A 
ATOM      7  C   UNL     1       0.461   8.706  21.249  0.00  0.00    +0.000 A 
ATOM      8  C   UNL     1       1.036   7.435  21.295  0.00  0.00    +0.000 A 
ATOM      9  C   UNL     1       1.818   6.955  20.227  0.00  0.00    +0.000 A 
ATOM     10  C   UNL     1       2.059   7.818  19.141  0.00  0.00    +0.000 A 
ATOM     11 CL   UNL     1       3.090   7.370  17.825  0.00  0.00    +0.000 Cl
ATOM     12  C   UNL     1       1.483   9.091  19.094  0.00  0.00    +0.000 A 
ENDBRANCH   4   9
ENDBRANCH   2   4
ENDBRANCH   1   2
BRANCH   1  13
ATOM     13  C   UNL     1       3.201   2.558  20.224  0.00  0.00    +0.000 C 
BRANCH  13  14
ATOM     14  N   UNL     1       3.571   2.544  18.812  0.00  0.00    +0.000 N 
ATOM     15  C   UNL     1       4.494   3.473  18.451  0.00  0.00    +0.000 A 
ATOM     16  N   UNL     1       5.387   3.980  19.266  0.00  0.00    +0.000 NA
ATOM     17  C   UNL     1       6.146   4.935  18.620  0.00  0.00    +0.000 A 
ATOM     18  C   UNL     1       7.196   5.677  19.194  0.00  0.00    +0.000 A 
ATOM     19  C   UNL     1       7.877   6.623  18.426  0.00  0.00    +0.000 A 
ATOM     20  C   UNL     1       7.519   6.840  17.097  0.00  0.00    +0.000 A 
ATOM     21  C   UNL     1       6.479   6.113  16.506  0.00  0.00    +0.000 A 
ATOM     22  C   UNL     1       5.808   5.159  17.286  0.00  0.00    +0.000 A 
ATOM     23  S   UNL     1       4.515   4.111  16.856  0.00  0.00    +0.000 S 
ATOM     24  H   UNL     1       2.789   2.457  18.172  0.00  0.00    +0.000 HD
ENDBRANCH  13  14
ENDBRANCH   1  13
TORSDOF 5
ENDMDL
MODEL 4
REMARK VINA RESULT:      -7.2      1.429      1.572
REMARK  Name = 
REMARK  5 active torsions:
REMARK  status: ('A' for Active; 'I' for Inactive)
REMARK    1  A    between atoms: C_5  and  C_6
REMARK    2  A    between atoms: C_6  and  N_7
REMARK    3  A    between atoms: N_7  and  C_8
REMARK    4  A    between atoms: C_8  and  C_9
REMARK    5  A    between atoms: C_9  and  N_10
REMARK                            x       y       z     vdW  Elec       q    Type
REMARK                         _______ _______ _______ _____ _____    ______ ____
ROOT
ATOM      1  C   UNL     1       7.878   7.894  17.821  0.00  0.00    +0.000 C 
ENDROOT
BRANCH   1   2
ATOM      2  N   UNL     1       8.380   9.278  17.794  0.00  0.00    +0.000 NA
ATOM      3  H   UNL     1       9.133   9.338  17.107  0.00  0.00    +0.000 HD
BRANCH   2   4
ATOM      4  C   UNL     1       8.911   9.690  19.101  0.00  0.00    +0.000 C 
BRANCH   4   9
ATOM      5 CL   UNL     1      12.330  14.657  18.778  0.00  0.00    +0.000 Cl
ATOM      6  C   UNL     1      11.360  13.242  18.871  0.00  0.00    +0.000 A 
ATOM      7  C   UNL     1      11.226  12.419  17.756  0.00  0.00    +0.000 A 
ATOM      8  C   UNL     1      10.442  11.267  17.836  0.00  0.00    +0.000 A 
ATOM      9  C   UNL     1       9.802  10.909  19.038  0.00  0.00    +0.000 A 
ATOM     10  C   UNL     1       9.919  11.781  20.137  0.00  0.00    +0.000 A 
ATOM     11 CL   UNL     1       9.090  11.493  21.629  0.00  0.00    +0.000 Cl
ATOM     12  C   UNL     1      10.705  12.935  20.058  0.00  0.00    +0.000 A 
ENDBRANCH   4   9
ENDBRANCH   2   4
ENDBRANCH   1   2
BRANCH   1  13
ATOM     13  C   UNL     1       6.450   7.736  17.265  0.00  0.00    +0.000 C 
BRANCH  13  14
ATOM     14  N   UNL     1       6.319   6.546  16.431  0.00  0.00    +0.000 N 
ATOM     15  C   UNL     1       5.303   5.713  16.775  0.00  0.00    +0.000 A 
ATOM     16  N   UNL     1       4.212   6.097  17.391  0.00  0.00    +0.000 NA
ATOM     17  C   UNL     1       3.395   5.015  17.651  0.00  0.00    +0.000 A 
ATOM     18  C   UNL     1       2.143   5.065  18.295  0.00  0.00    +0.000 A 
ATOM     19  C   UNL     1       1.423   3.887  18.502  0.00  0.00    +0.000 A 
ATOM     20  C   UNL     1       1.939   2.663  18.081  0.00  0.00    +0.000 A 
ATOM     21  C   UNL     1       3.180   2.590  17.437  0.00  0.00    +0.000 A 
ATOM     22  C   UNL     1       3.891   3.783  17.227  0.00  0.00    +0.000 A 
ATOM     23  S   UNL     1       5.413   4.027  16.467  0.00  0.00    +0.000 S 
ATOM     24  H   UNL     1       7.195   6.079  16.223  0.00  0.00    +0.000 HD
ENDBRANCH  13  14
ENDBRANCH   1  13
TORSDOF 5
ENDMDL
MODEL 5
REMARK VINA RESULT:      -7.2      5.854      7.914
REMARK  Name = 
REMARK  5 active torsions:
REMARK  status: ('A' for Active; 'I' for Inactive)
REMARK    1  A    between atoms: C_5  and  C_6
REMARK    2  A    between atoms: C_6  and  N_7
REMARK    3  A    between atoms: N_7  and  C_8
REMARK    4  A    between atoms: C_8  and  C_9
REMARK    5  A    between atoms: C_9  and  N_10
REMARK                            x       y       z     vdW  Elec       q    Type
REMARK                         _______ _______ _______ _____ _____    ______ ____
ROOT
ATOM      1  C   UNL     1       3.381   2.699  20.911  0.00  0.00    +0.000 C 
ENDROOT
BRANCH   1   2
ATOM      2  N   UNL     1       2.012   2.354  20.491  0.00  0.00    +0.000 NA
ATOM      3  H   UNL     1       2.027   2.109  19.501  0.00  0.00    +0.000 HD
BRANCH   2   4
ATOM      4  C   UNL     1       1.086   3.480  20.677  0.00  0.00    +0.000 C 
BRANCH   4   9
ATOM      5 CL   UNL     1       2.940   8.466  17.817  0.00  0.00    +0.000 Cl
ATOM      6  C   UNL     1       2.409   7.048  18.630  0.00  0.00    +0.000 A 
ATOM      7  C   UNL     1       2.200   7.076  20.006  0.00  0.00    +0.000 A 
ATOM      8  C   UNL     1       1.763   5.925  20.663  0.00  0.00    +0.000 A 
ATOM      9  C   UNL     1       1.506   4.738  19.950  0.00  0.00    +0.000 A 
ATOM     10  C   UNL     1       1.766   4.725  18.567  0.00  0.00    +0.000 A 
ATOM     11 CL   UNL     1       1.586   3.292  17.613  0.00  0.00    +0.000 Cl
ATOM     12  C   UNL     1       2.203   5.878  17.908  0.00  0.00    +0.000 A 
ENDBRANCH   4   9
ENDBRANCH   2   4
ENDBRANCH   1   2
BRANCH   1  13
ATOM     13  C   UNL     1       4.428   2.575  19.788  0.00  0.00    +0.000 C 
BRANCH  13  14
ATOM     14  N   UNL     1       5.173   3.815  19.599  0.00  0.00    +0.000 N 
ATOM     15  C   UNL     1       5.556   4.066  18.320  0.00  0.00    +0.000 A 
ATOM     16  N   UNL     1       4.929   3.614  17.261  0.00  0.00    +0.000 NA
ATOM     17  C   UNL     1       5.588   3.993  16.109  0.00  0.00    +0.000 A 
ATOM     18  C   UNL     1       5.191   3.683  14.794  0.00  0.00    +0.000 A 
ATOM     19  C   UNL     1       5.959   4.124  13.716  0.00  0.00    +0.000 A 
ATOM     20  C   UNL     1       7.120   4.864  13.934  0.00  0.00    +0.000 A 
ATOM     21  C   UNL     1       7.533   5.185  15.232  0.00  0.00    +0.000 A 
ATOM     22  C   UNL     1       6.747   4.743  16.308  0.00  0.00    +0.000 A 
ATOM     23  S   UNL     1       6.974   4.979  17.996  0.00  0.00    +0.000 S 
ATOM     24  H   UNL     1       5.890   3.987  20.295  0.00  0.00    +0.000 HD
ENDBRANCH  13  14
ENDBRANCH   1  13
TORSDOF 5
ENDMDL
MODEL 6
REMARK VINA RESULT:      -7.1      4.407      8.003
REMARK  Name = 
REMARK  5 active torsions:
REMARK  status: ('A' for Active; 'I' for Inactive)
REMARK    1  A    between atoms: C_5  and  C_6
REMARK    2  A    between atoms: C_6  and  N_7
REMARK    3  A    between atoms: N_7  and  C_8
REMARK    4  A    between atoms: C_8  and  C_9
REMARK    5  A    between atoms: C_9  and  N_10
REMARK                            x       y       z     vdW  Elec       q    Type
REMARK                         _______ _______ _______ _____ _____    ______ ____
ROOT
ATOM      1  C   UNL     1       3.295   2.757  20.916  0.00  0.00    +0.000 C 
ENDROOT
BRANCH   1   2
ATOM      2  N   UNL     1       2.007   2.472  20.260  0.00  0.00    +0.000 NA
ATOM      3  H   UNL     1       2.163   2.397  19.255  0.00  0.00    +0.000 HD
BRANCH   2   4
ATOM      4  C   UNL     1       1.027   3.541  20.500  0.00  0.00    +0.000 C 
BRANCH   4   9
ATOM      5 CL   UNL     1       2.728   8.786  18.035  0.00  0.00    +0.000 Cl
ATOM      6  C   UNL     1       2.241   7.294  18.737  0.00  0.00    +0.000 A 
ATOM      7  C   UNL     1       2.128   7.183  20.119  0.00  0.00    +0.000 A 
ATOM      8  C   UNL     1       1.726   5.972  20.685  0.00  0.00    +0.000 A 
ATOM      9  C   UNL     1       1.408   4.865  19.876  0.00  0.00    +0.000 A 
ATOM     10  C   UNL     1       1.572   4.992  18.484  0.00  0.00    +0.000 A 
ATOM     11 CL   UNL     1       1.312   3.664  17.405  0.00  0.00    +0.000 Cl
ATOM     12  C   UNL     1       1.974   6.204  17.915  0.00  0.00    +0.000 A 
ENDBRANCH   4   9
ENDBRANCH   2   4
ENDBRANCH   1   2
BRANCH   1  13
ATOM     13  C   UNL     1       4.519   2.229  20.143  0.00  0.00    +0.000 C 
BRANCH  13  14
ATOM     14  N   UNL     1       4.493   2.633  18.742  0.00  0.00    +0.000 N 
ATOM     15  C   UNL     1       5.209   3.751  18.453  0.00  0.00    +0.000 A 
ATOM     16  N   UNL     1       6.247   4.159  19.143  0.00  0.00    +0.000 NA
ATOM     17  C   UNL     1       6.727   5.351  18.637  0.00  0.00    +0.000 A 
ATOM     18  C   UNL     1       7.832   6.069  19.133  0.00  0.00    +0.000 A 
ATOM     19  C   UNL     1       8.205   7.271  18.530  0.00  0.00    +0.000 A 
ATOM     20  C   UNL     1       7.485   7.766  17.444  0.00  0.00    +0.000 A 
ATOM     21  C   UNL     1       6.384   7.069  16.934  0.00  0.00    +0.000 A 
ATOM     22  C   UNL     1       6.025   5.857  17.544  0.00  0.00    +0.000 A 
ATOM     23  S   UNL     1       4.749   4.773  17.152  0.00  0.00    +0.000 S 
ATOM     24  H   UNL     1       3.577   2.598  18.309  0.00  0.00    +0.000 HD
ENDBRANCH  13  14
ENDBRANCH   1  13
TORSDOF 5
ENDMDL
MODEL 7
REMARK VINA RESULT:      -6.9      4.763      7.468
REMARK  Name = 
REMARK  5 active torsions:
REMARK  status: ('A' for Active; 'I' for Inactive)
REMARK    1  A    between atoms: C_5  and  C_6
REMARK    2  A    between atoms: C_6  and  N_7
REMARK    3  A    between atoms: N_7  and  C_8
REMARK    4  A    between atoms: C_8  and  C_9
REMARK    5  A    between atoms: C_9  and  N_10
REMARK                            x       y       z     vdW  Elec       q    Type
REMARK                         _______ _______ _______ _____ _____    ______ ____
ROOT
ATOM      1  C   UNL     1       1.401   4.690  19.891  0.00  0.00    +0.000 C 
ENDROOT
BRANCH   1   2
ATOM      2  N   UNL     1       2.185   5.742  20.561  0.00  0.00    +0.000 NA
ATOM      3  H   UNL     1       1.730   5.975  21.444  0.00  0.00    +0.000 HD
BRANCH   2   4
ATOM      4  C   UNL     1       2.269   6.960  19.745  0.00  0.00    +0.000 C 
BRANCH   4   9
ATOM      5 CL   UNL     1      -0.526  11.746  22.145  0.00  0.00    +0.000 Cl
ATOM      6  C   UNL     1       0.267  10.383  21.462  0.00  0.00    +0.000 A 
ATOM      7  C   UNL     1       0.690   9.344  22.284  0.00  0.00    +0.000 A 
ATOM      8  C   UNL     1       1.328   8.235  21.726  0.00  0.00    +0.000 A 
ATOM      9  C   UNL     1       1.528   8.139  20.336  0.00  0.00    +0.000 A 
ATOM     10  C   UNL     1       1.129   9.223  19.532  0.00  0.00    +0.000 A 
ATOM     11 CL   UNL     1       1.422   9.257  17.826  0.00  0.00    +0.000 Cl
ATOM     12  C   UNL     1       0.489  10.334  20.090  0.00  0.00    +0.000 A 
ENDBRANCH   4   9
ENDBRANCH   2   4
ENDBRANCH   1   2
BRANCH   1  13
ATOM     13  C   UNL     1       2.254   3.531  19.339  0.00  0.00    +0.000 C 
BRANCH  13  14
ATOM     14  N   UNL     1       2.799   3.838  18.021  0.00  0.00    +0.000 N 
ATOM     15  C   UNL     1       3.981   4.506  18.029  0.00  0.00    +0.000 A 
ATOM     16  N   UNL     1       4.855   4.444  19.003  0.00  0.00    +0.000 NA
ATOM     17  C   UNL     1       5.929   5.273  18.746  0.00  0.00    +0.000 A 
ATOM     18  C   UNL     1       7.051   5.449  19.578  0.00  0.00    +0.000 A 
ATOM     19  C   UNL     1       8.065   6.330  19.199  0.00  0.00    +0.000 A 
ATOM     20  C   UNL     1       7.968   7.041  18.004  0.00  0.00    +0.000 A 
ATOM     21  C   UNL     1       6.863   6.881  17.160  0.00  0.00    +0.000 A 
ATOM     22  C   UNL     1       5.854   5.985  17.549  0.00  0.00    +0.000 A 
ATOM     23  S   UNL     1       4.397   5.563  16.740  0.00  0.00    +0.000 S 
ATOM     24  H   UNL     1       2.120   4.192  17.355  0.00  0.00    +0.000 HD
ENDBRANCH  13  14
ENDBRANCH   1  13
TORSDOF 5
ENDMDL
MODEL 8
REMARK VINA RESULT:      -6.9      5.938      7.635
REMARK  Name = 
REMARK  5 active torsions:
REMARK  status: ('A' for Active; 'I' for Inactive)
REMARK    1  A    between atoms: C_5  and  C_6
REMARK    2  A    between atoms: C_6  and  N_7
REMARK    3  A    between atoms: N_7  and  C_8
REMARK    4  A    between atoms: C_8  and  C_9
REMARK    5  A    between atoms: C_9  and  N_10
REMARK                            x       y       z     vdW  Elec       q    Type
REMARK                         _______ _______ _______ _____ _____    ______ ____
ROOT
ATOM      1  C   UNL     1       1.561   5.755  20.426  0.00  0.00    +0.000 C 
ENDROOT
BRANCH   1   2
ATOM      2  N   UNL     1       1.987   7.064  20.950  0.00  0.00    +0.000 NA
ATOM      3  H   UNL     1       1.595   7.183  21.885  0.00  0.00    +0.000 HD
BRANCH   2   4
ATOM      4  C   UNL     1       1.514   8.169  20.105  0.00  0.00    +0.000 C 
BRANCH   4   9
ATOM      5 CL   UNL     1      -1.588  12.349  23.167  0.00  0.00    +0.000 Cl
ATOM      6  C   UNL     1      -0.708  11.158  22.295  0.00  0.00    +0.000 A 
ATOM      7  C   UNL     1      -0.397   9.945  22.900  0.00  0.00    +0.000 A 
ATOM      8  C   UNL     1       0.312   8.977  22.188  0.00  0.00    +0.000 A 
ATOM      9  C   UNL     1       0.698   9.200  20.852  0.00  0.00    +0.000 A 
ATOM     10  C   UNL     1       0.407  10.451  20.277  0.00  0.00    +0.000 A 
ATOM     11 CL   UNL     1       0.927  10.871  18.681  0.00  0.00    +0.000 Cl
ATOM     12  C   UNL     1      -0.304  11.421  20.991  0.00  0.00    +0.000 A 
ENDBRANCH   4   9
ENDBRANCH   2   4
ENDBRANCH   1   2
BRANCH   1  13
ATOM     13  C   UNL     1       2.721   4.769  20.193  0.00  0.00    +0.000 C 
BRANCH  13  14
ATOM     14  N   UNL     1       4.004   5.455  20.081  0.00  0.00    +0.000 N 
ATOM     15  C   UNL     1       4.651   5.273  18.901  0.00  0.00    +0.000 A 
ATOM     16  N   UNL     1       4.053   5.001  17.767  0.00  0.00    +0.000 NA
ATOM     17  C   UNL     1       4.981   4.820  16.760  0.00  0.00    +0.000 A 
ATOM     18  C   UNL     1       4.688   4.518  15.416  0.00  0.00    +0.000 A 
ATOM     19  C   UNL     1       5.728   4.352  14.501  0.00  0.00    +0.000 A 
ATOM     20  C   UNL     1       7.054   4.477  14.912  0.00  0.00    +0.000 A 
ATOM     21  C   UNL     1       7.368   4.778  16.242  0.00  0.00    +0.000 A 
ATOM     22  C   UNL     1       6.313   4.951  17.151  0.00  0.00    +0.000 A 
ATOM     23  S   UNL     1       6.366   5.333  18.827  0.00  0.00    +0.000 S 
ATOM     24  H   UNL     1       4.595   5.380  20.901  0.00  0.00    +0.000 HD
ENDBRANCH  13  14
ENDBRANCH   1  13
TORSDOF 5
ENDMDL
MODEL 9
REMARK VINA RESULT:      -6.9      5.679      6.554
REMARK  Name = 
REMARK  5 active torsions:
REMARK  status: ('A' for Active; 'I' for Inactive)
REMARK    1  A    between atoms: C_5  and  C_6
REMARK    2  A    between atoms: C_6  and  N_7
REMARK    3  A    between atoms: N_7  and  C_8
REMARK    4  A    between atoms: C_8  and  C_9
REMARK    5  A    between atoms: C_9  and  N_10
REMARK                            x       y       z     vdW  Elec       q    Type
REMARK                         _______ _______ _______ _____ _____    ______ ____
ROOT
ATOM      1  C   UNL     1       5.018   7.015  16.457  0.00  0.00    +0.000 C 
ENDROOT
BRANCH   1   2
ATOM      2  N   UNL     1       4.255   7.152  17.709  0.00  0.00    +0.000 NA
ATOM      3  H   UNL     1       4.372   6.298  18.257  0.00  0.00    +0.000 HD
BRANCH   2   4
ATOM      4  C   UNL     1       2.821   7.347  17.454  0.00  0.00    +0.000 C 
BRANCH   4   9
ATOM      5 CL   UNL     1       0.081  11.397  20.997  0.00  0.00    +0.000 Cl
ATOM      6  C   UNL     1       0.863  10.246  19.989  0.00  0.00    +0.000 A 
ATOM      7  C   UNL     1       1.230  10.595  18.694  0.00  0.00    +0.000 A 
ATOM      8  C   UNL     1       1.872   9.660  17.880  0.00  0.00    +0.000 A 
ATOM      9  C   UNL     1       2.176   8.371  18.359  0.00  0.00    +0.000 A 
ATOM     10  C   UNL     1       1.756   8.031  19.659  0.00  0.00    +0.000 A 
ATOM     11 CL   UNL     1       1.984   6.444  20.309  0.00  0.00    +0.000 Cl
ATOM     12  C   UNL     1       1.114   8.967  20.475  0.00  0.00    +0.000 A 
ENDBRANCH   4   9
ENDBRANCH   2   4
ENDBRANCH   1   2
BRANCH   1  13
ATOM     13  C   UNL     1       5.109   5.567  15.936  0.00  0.00    +0.000 C 
BRANCH  13  14
ATOM     14  N   UNL     1       5.596   4.651  16.962  0.00  0.00    +0.000 N 
ATOM     15  C   UNL     1       4.639   4.150  17.786  0.00  0.00    +0.000 A 
ATOM     16  N   UNL     1       3.379   4.011  17.452  0.00  0.00    +0.000 NA
ATOM     17  C   UNL     1       2.646   3.527  18.518  0.00  0.00    +0.000 A 
ATOM     18  C   UNL     1       1.264   3.256  18.510  0.00  0.00    +0.000 A 
ATOM     19  C   UNL     1       0.645   2.777  19.665  0.00  0.00    +0.000 A 
ATOM     20  C   UNL     1       1.386   2.572  20.827  0.00  0.00    +0.000 A 
ATOM     21  C   UNL     1       2.761   2.833  20.857  0.00  0.00    +0.000 A 
ATOM     22  C   UNL     1       3.373   3.307  19.686  0.00  0.00    +0.000 A 
ATOM     23  S   UNL     1       5.021   3.705  19.400  0.00  0.00    +0.000 S 
ATOM     24  H   UNL     1       6.440   4.955  17.434  0.00  0.00    +0.000 HD
ENDBRANCH  13  14
ENDBRANCH   1  13
TORSDOF 5
ENDMDL
