MODEL 1
REMARK VINA RESULT:      -8.7      0.000      0.000
REMARK  Name = 
REMARK  7 active torsions:
REMARK  status: ('A' for Active; 'I' for Inactive)
REMARK    1  A    between atoms: C_1  and  C_2
REMARK    2  A    between atoms: C_2  and  N_3
REMARK    3  A    between atoms: N_3  and  C_4
REMARK    4  A    between atoms: N_3  and  S_10
REMARK    5  A    between atoms: S_10  and  C_13
REMARK    6  A    between atoms: N_20  and  C_21
REMARK    7  A    between atoms: C_26  and  O_27
REMARK                            x       y       z     vdW  Elec       q    Type
REMARK                         _______ _______ _______ _____ _____    ______ ____
ROOT
ATOM      1  C   UNL     1       2.836   5.585  18.690  0.00  0.00    +0.000 A 
ATOM      2  C   UNL     1       2.335   5.476  19.976  0.00  0.00    +0.000 A 
ATOM      3  C   UNL     1       1.844   6.622  20.609  0.00  0.00    +0.000 A 
ATOM      4  C   UNL     1       1.849   7.856  19.956  0.00  0.00    +0.000 A 
ATOM      5  N   UNL     1       1.322   8.971  20.552  0.00  0.00    +0.000 N 
ATOM      6  C   UNL     1       0.684  10.041  19.771  0.00  0.00    +0.000 C 
ATOM      7  C   UNL     1      -0.751  10.278  20.312  0.00  0.00    +0.000 C 
ATOM      8  N   UNL     1      -0.783  10.472  21.780  0.00  0.00    +0.000 N 
ATOM      9  C   UNL     1      -0.029   9.473  22.566  0.00  0.00    +0.000 C 
ATOM     10  C   UNL     1       1.389   9.246  21.991  0.00  0.00    +0.000 C 
ATOM     11  N   UNL     1       2.362   7.955  18.705  0.00  0.00    +0.000 NA
ATOM     12  C   UNL     1       2.882   6.840  18.118  0.00  0.00    +0.000 A 
ENDROOT
BRANCH   8  13
ATOM     13  C   UNL     1      -1.140  11.676  22.370  0.00  0.00    +0.000 A 
ATOM     14  C   UNL     1      -2.353  11.757  23.084  0.00  0.00    +0.000 A 
ATOM     15  C   UNL     1      -2.792  12.942  23.686  0.00  0.00    +0.000 A 
ATOM     16  C   UNL     1      -2.024  14.095  23.583  0.00  0.00    +0.000 A 
ATOM     17  C   UNL     1      -0.821  14.058  22.885  0.00  0.00    +0.000 A 
ATOM     18  C   UNL     1      -0.388  12.865  22.289  0.00  0.00    +0.000 A 
BRANCH  18  19
ATOM     19  O   UNL     1       0.831  12.868  21.656  0.00  0.00    +0.000 OA
ATOM     20  H   UNL     1       0.834  12.165  20.986  0.00  0.00    +0.000 HD
ENDBRANCH  18  19
ENDBRANCH   8  13
BRANCH   1  21
ATOM     21  S   UNL     1       3.534   4.189  17.860  0.00  0.00    +0.000 S 
ATOM     22  O   UNL     1       2.482   3.628  17.033  0.00  0.00    +0.000 OA
ATOM     23  O   UNL     1       4.171   3.379  18.874  0.00  0.00    +0.000 OA
BRANCH  21  24
ATOM     24  N   UNL     1       4.741   4.839  16.860  0.00  0.00    +0.000 N 
BRANCH  24  25
ATOM     25  C   UNL     1       5.864   5.491  17.469  0.00  0.00    +0.000 A 
ATOM     26  C   UNL     1       6.581   4.926  18.525  0.00  0.00    +0.000 A 
ATOM     27  C   UNL     1       7.644   5.625  19.108  0.00  0.00    +0.000 A 
ATOM     28  C   UNL     1       8.010   6.880  18.617  0.00  0.00    +0.000 A 
ATOM     29  C   UNL     1       7.318   7.435  17.542  0.00  0.00    +0.000 A 
ATOM     30  C   UNL     1       6.244   6.743  16.975  0.00  0.00    +0.000 A 
ENDBRANCH  24  25
BRANCH  24  32
ATOM     31  C   UNL     1       6.185   3.693  15.242  0.00  0.00    +0.000 C 
ATOM     32  C   UNL     1       4.841   4.376  15.463  0.00  0.00    +0.000 C 
ENDBRANCH  24  32
ENDBRANCH  21  24
ENDBRANCH   1  21
TORSDOF 6
ENDMDL
MODEL 2
REMARK VINA RESULT:      -8.4      1.022      2.078
REMARK  Name = 
REMARK  7 active torsions:
REMARK  status: ('A' for Active; 'I' for Inactive)
REMARK    1  A    between atoms: C_1  and  C_2
REMARK    2  A    between atoms: C_2  and  N_3
REMARK    3  A    between atoms: N_3  and  C_4
REMARK    4  A    between atoms: N_3  and  S_10
REMARK    5  A    between atoms: S_10  and  C_13
REMARK    6  A    between atoms: N_20  and  C_21
REMARK    7  A    between atoms: C_26  and  O_27
REMARK                            x       y       z     vdW  Elec       q    Type
REMARK                         _______ _______ _______ _____ _____    ______ ____
ROOT
ATOM      1  C   UNL     1       2.382   5.278  19.111  0.00  0.00    +0.000 A 
ATOM      2  C   UNL     1       1.833   5.296  20.382  0.00  0.00    +0.000 A 
ATOM      3  C   UNL     1       1.453   6.522  20.935  0.00  0.00    +0.000 A 
ATOM      4  C   UNL     1       1.616   7.710  20.220  0.00  0.00    +0.000 A 
ATOM      5  N   UNL     1       1.198   8.908  20.737  0.00  0.00    +0.000 N 
ATOM      6  C   UNL     1       0.707   9.996  19.879  0.00  0.00    +0.000 C 
ATOM      7  C   UNL     1      -0.708  10.418  20.354  0.00  0.00    +0.000 C 
ATOM      8  N   UNL     1      -0.763  10.696  21.808  0.00  0.00    +0.000 N 
ATOM      9  C   UNL     1      -0.149   9.666  22.671  0.00  0.00    +0.000 C 
ATOM     10  C   UNL     1       1.251   9.253  22.161  0.00  0.00    +0.000 C 
ATOM     11  N   UNL     1       2.174   7.682  18.985  0.00  0.00    +0.000 NA
ATOM     12  C   UNL     1       2.585   6.486  18.476  0.00  0.00    +0.000 A 
ENDROOT
BRANCH   8  13
ATOM     13  C   UNL     1      -1.001  11.963  22.321  0.00  0.00    +0.000 A 
ATOM     14  C   UNL     1      -2.187  12.197  23.048  0.00  0.00    +0.000 A 
ATOM     15  C   UNL     1      -2.509  13.453  23.576  0.00  0.00    +0.000 A 
ATOM     16  C   UNL     1      -1.646  14.524  23.382  0.00  0.00    +0.000 A 
ATOM     17  C   UNL     1      -0.467  14.337  22.669  0.00  0.00    +0.000 A 
ATOM     18  C   UNL     1      -0.152  13.074  22.147  0.00  0.00    +0.000 A 
BRANCH  18  19
ATOM     19  O   UNL     1       1.049  12.928  21.495  0.00  0.00    +0.000 OA
ATOM     20  H   UNL     1       1.362  13.807  21.226  0.00  0.00    +0.000 HD
ENDBRANCH  18  19
ENDBRANCH   8  13
BRANCH   1  21
ATOM     21  S   UNL     1       2.945   3.770  18.380  0.00  0.00    +0.000 S 
ATOM     22  O   UNL     1       2.308   3.674  17.079  0.00  0.00    +0.000 OA
ATOM     23  O   UNL     1       2.743   2.731  19.365  0.00  0.00    +0.000 OA
BRANCH  21  24
ATOM     24  N   UNL     1       4.614   3.987  18.169  0.00  0.00    +0.000 N 
BRANCH  24  25
ATOM     25  C   UNL     1       5.099   4.399  16.884  0.00  0.00    +0.000 A 
ATOM     26  C   UNL     1       4.963   5.706  16.412  0.00  0.00    +0.000 A 
ATOM     27  C   UNL     1       5.419   6.044  15.133  0.00  0.00    +0.000 A 
ATOM     28  C   UNL     1       6.039   5.081  14.333  0.00  0.00    +0.000 A 
ATOM     29  C   UNL     1       6.205   3.782  14.812  0.00  0.00    +0.000 A 
ATOM     30  C   UNL     1       5.731   3.443  16.082  0.00  0.00    +0.000 A 
ENDBRANCH  24  25
BRANCH  24  32
ATOM     31  C   UNL     1       6.349   5.393  19.183  0.00  0.00    +0.000 C 
ATOM     32  C   UNL     1       5.471   4.160  19.357  0.00  0.00    +0.000 C 
ENDBRANCH  24  32
ENDBRANCH  21  24
ENDBRANCH   1  21
TORSDOF 6
ENDMDL
MODEL 3
REMARK VINA RESULT:      -8.4      5.634      8.648
REMARK  Name = 
REMARK  7 active torsions:
REMARK  status: ('A' for Active; 'I' for Inactive)
REMARK    1  A    between atoms: C_1  and  C_2
REMARK    2  A    between atoms: C_2  and  N_3
REMARK    3  A    between atoms: N_3  and  C_4
REMARK    4  A    between atoms: N_3  and  S_10
REMARK    5  A    between atoms: S_10  and  C_13
REMARK    6  A    between atoms: N_20  and  C_21
REMARK    7  A    between atoms: C_26  and  O_27
REMARK                            x       y       z     vdW  Elec       q    Type
REMARK                         _______ _______ _______ _____ _____    ______ ____
ROOT
ATOM      1  C   UNL     1       7.603   6.612  17.979  0.00  0.00    +0.000 A 
ATOM      2  C   UNL     1       7.157   7.614  17.134  0.00  0.00    +0.000 A 
ATOM      3  C   UNL     1       7.593   8.924  17.353  0.00  0.00    +0.000 A 
ATOM      4  C   UNL     1       8.469   9.221  18.399  0.00  0.00    +0.000 A 
ATOM      5  N   UNL     1       8.938  10.494  18.586  0.00  0.00    +0.000 N 
ATOM      6  C   UNL     1      10.276  10.755  19.138  0.00  0.00    +0.000 C 
ATOM      7  C   UNL     1      11.063  11.664  18.157  0.00  0.00    +0.000 C 
ATOM      8  N   UNL     1      10.302  12.872  17.763  0.00  0.00    +0.000 N 
ATOM      9  C   UNL     1       8.909  12.630  17.334  0.00  0.00    +0.000 C 
ATOM     10  C   UNL     1       8.158  11.707  18.322  0.00  0.00    +0.000 C 
ATOM     11  N   UNL     1       8.881   8.235  19.232  0.00  0.00    +0.000 NA
ATOM     12  C   UNL     1       8.411   6.970  19.038  0.00  0.00    +0.000 A 
ENDROOT
BRANCH   8  13
ATOM     13  C   UNL     1      10.691  14.154  18.125  0.00  0.00    +0.000 A 
ATOM     14  C   UNL     1      10.750  14.492  19.493  0.00  0.00    +0.000 A 
ATOM     15  C   UNL     1      11.111  15.770  19.935  0.00  0.00    +0.000 A 
ATOM     16  C   UNL     1      11.418  16.760  19.010  0.00  0.00    +0.000 A 
ATOM     17  C   UNL     1      11.369  16.469  17.650  0.00  0.00    +0.000 A 
ATOM     18  C   UNL     1      11.011  15.183  17.217  0.00  0.00    +0.000 A 
BRANCH  18  19
ATOM     19  O   UNL     1      11.028  14.932  15.867  0.00  0.00    +0.000 OA
ATOM     20  H   UNL     1      11.947  14.969  15.557  0.00  0.00    +0.000 HD
ENDBRANCH  18  19
ENDBRANCH   8  13
BRANCH   1  21
ATOM     21  S   UNL     1       7.038   4.947  17.799  0.00  0.00    +0.000 S 
ATOM     22  O   UNL     1       6.511   4.543  19.090  0.00  0.00    +0.000 OA
ATOM     23  O   UNL     1       8.120   4.204  17.192  0.00  0.00    +0.000 OA
BRANCH  21  24
ATOM     24  N   UNL     1       5.764   5.039  16.683  0.00  0.00    +0.000 N 
BRANCH  24  25
ATOM     25  C   UNL     1       4.418   5.104  17.175  0.00  0.00    +0.000 A 
ATOM     26  C   UNL     1       3.854   6.281  17.668  0.00  0.00    +0.000 A 
ATOM     27  C   UNL     1       2.548   6.278  18.173  0.00  0.00    +0.000 A 
ATOM     28  C   UNL     1       1.795   5.102  18.161  0.00  0.00    +0.000 A 
ATOM     29  C   UNL     1       2.344   3.931  17.641  0.00  0.00    +0.000 A 
ATOM     30  C   UNL     1       3.654   3.933  17.155  0.00  0.00    +0.000 A 
ENDBRANCH  24  25
BRANCH  24  32
ATOM     31  C   UNL     1       5.996   4.260  14.369  0.00  0.00    +0.000 C 
ATOM     32  C   UNL     1       6.051   5.465  15.300  0.00  0.00    +0.000 C 
ENDBRANCH  24  32
ENDBRANCH  21  24
ENDBRANCH   1  21
TORSDOF 6
ENDMDL
MODEL 4
REMARK VINA RESULT:      -8.3      1.318      2.392
REMARK  Name = 
REMARK  7 active torsions:
REMARK  status: ('A' for Active; 'I' for Inactive)
REMARK    1  A    between atoms: C_1  and  C_2
REMARK    2  A    between atoms: C_2  and  N_3
REMARK    3  A    between atoms: N_3  and  C_4
REMARK    4  A    between atoms: N_3  and  S_10
REMARK    5  A    between atoms: S_10  and  C_13
REMARK    6  A    between atoms: N_20  and  C_21
REMARK    7  A    between atoms: C_26  and  O_27
REMARK                            x       y       z     vdW  Elec       q    Type
REMARK                         _______ _______ _______ _____ _____    ______ ____
ROOT
ATOM      1  C   UNL     1       2.332   5.388  19.111  0.00  0.00    +0.000 A 
ATOM      2  C   UNL     1       1.790   5.426  20.384  0.00  0.00    +0.000 A 
ATOM      3  C   UNL     1       1.433   6.663  20.928  0.00  0.00    +0.000 A 
ATOM      4  C   UNL     1       1.610   7.842  20.201  0.00  0.00    +0.000 A 
ATOM      5  N   UNL     1       1.214   9.051  20.709  0.00  0.00    +0.000 N 
ATOM      6  C   UNL     1       0.736  10.138  19.843  0.00  0.00    +0.000 C 
ATOM      7  C   UNL     1      -0.671  10.588  20.322  0.00  0.00    +0.000 C 
ATOM      8  N   UNL     1      -0.713  10.880  21.773  0.00  0.00    +0.000 N 
ATOM      9  C   UNL     1      -0.111   9.848  22.643  0.00  0.00    +0.000 C 
ATOM     10  C   UNL     1       1.280   9.408  22.129  0.00  0.00    +0.000 C 
ATOM     11  N   UNL     1       2.161   7.794  18.963  0.00  0.00    +0.000 NA
ATOM     12  C   UNL     1       2.550   6.586  18.464  0.00  0.00    +0.000 A 
ENDROOT
BRANCH   8  13
ATOM     13  C   UNL     1      -0.929  12.155  22.276  0.00  0.00    +0.000 A 
ATOM     14  C   UNL     1      -0.030  13.187  21.935  0.00  0.00    +0.000 A 
ATOM     15  C   UNL     1      -0.166  14.492  22.420  0.00  0.00    +0.000 A 
ATOM     16  C   UNL     1      -1.214  14.804  23.277  0.00  0.00    +0.000 A 
ATOM     17  C   UNL     1      -2.122  13.814  23.642  0.00  0.00    +0.000 A 
ATOM     18  C   UNL     1      -1.978  12.510  23.146  0.00  0.00    +0.000 A 
BRANCH  18  19
ATOM     19  O   UNL     1      -2.930  11.582  23.493  0.00  0.00    +0.000 OA
ATOM     20  H   UNL     1      -2.729  10.748  23.039  0.00  0.00    +0.000 HD
ENDBRANCH  18  19
ENDBRANCH   8  13
BRANCH   1  21
ATOM     21  S   UNL     1       2.867   3.864  18.391  0.00  0.00    +0.000 S 
ATOM     22  O   UNL     1       2.240   3.778  17.085  0.00  0.00    +0.000 OA
ATOM     23  O   UNL     1       2.632   2.834  19.379  0.00  0.00    +0.000 OA
BRANCH  21  24
ATOM     24  N   UNL     1       4.542   4.043  18.195  0.00  0.00    +0.000 N 
BRANCH  24  25
ATOM     25  C   UNL     1       5.048   4.454  16.917  0.00  0.00    +0.000 A 
ATOM     26  C   UNL     1       4.953   5.769  16.459  0.00  0.00    +0.000 A 
ATOM     27  C   UNL     1       5.427   6.107  15.186  0.00  0.00    +0.000 A 
ATOM     28  C   UNL     1       6.022   5.135  14.379  0.00  0.00    +0.000 A 
ATOM     29  C   UNL     1       6.147   3.827  14.845  0.00  0.00    +0.000 A 
ATOM     30  C   UNL     1       5.655   3.488  16.109  0.00  0.00    +0.000 A 
ENDBRANCH  24  25
BRANCH  24  32
ATOM     31  C   UNL     1       6.359   5.348  19.200  0.00  0.00    +0.000 C 
ATOM     32  C   UNL     1       5.394   4.184  19.391  0.00  0.00    +0.000 C 
ENDBRANCH  24  32
ENDBRANCH  21  24
ENDBRANCH   1  21
TORSDOF 6
ENDMDL
MODEL 5
REMARK VINA RESULT:      -8.1      5.617      8.580
REMARK  Name = 
REMARK  7 active torsions:
REMARK  status: ('A' for Active; 'I' for Inactive)
REMARK    1  A    between atoms: C_1  and  C_2
REMARK    2  A    between atoms: C_2  and  N_3
REMARK    3  A    between atoms: N_3  and  C_4
REMARK    4  A    between atoms: N_3  and  S_10
REMARK    5  A    between atoms: S_10  and  C_13
REMARK    6  A    between atoms: N_20  and  C_21
REMARK    7  A    between atoms: C_26  and  O_27
REMARK                            x       y       z     vdW  Elec       q    Type
REMARK                         _______ _______ _______ _____ _____    ______ ____
ROOT
ATOM      1  C   UNL     1       7.587   6.608  17.979  0.00  0.00    +0.000 A 
ATOM      2  C   UNL     1       7.091   7.599  17.148  0.00  0.00    +0.000 A 
ATOM      3  C   UNL     1       7.516   8.917  17.342  0.00  0.00    +0.000 A 
ATOM      4  C   UNL     1       8.429   9.233  18.349  0.00  0.00    +0.000 A 
ATOM      5  N   UNL     1       8.887  10.514  18.510  0.00  0.00    +0.000 N 
ATOM      6  C   UNL     1      10.242  10.798  19.005  0.00  0.00    +0.000 C 
ATOM      7  C   UNL     1      10.974  11.713  17.987  0.00  0.00    +0.000 C 
ATOM      8  N   UNL     1      10.179  12.908  17.619  0.00  0.00    +0.000 N 
ATOM      9  C   UNL     1       8.773  12.642  17.249  0.00  0.00    +0.000 C 
ATOM     10  C   UNL     1       8.078  11.713  18.272  0.00  0.00    +0.000 C 
ATOM     11  N   UNL     1       8.891   8.258  19.170  0.00  0.00    +0.000 NA
ATOM     12  C   UNL     1       8.433   6.985  19.002  0.00  0.00    +0.000 A 
ENDROOT
BRANCH   8  13
ATOM     13  C   UNL     1      10.563  14.197  17.958  0.00  0.00    +0.000 A 
ATOM     14  C   UNL     1      11.159  15.015  16.976  0.00  0.00    +0.000 A 
ATOM     15  C   UNL     1      11.594  16.318  17.246  0.00  0.00    +0.000 A 
ATOM     16  C   UNL     1      11.451  16.841  18.525  0.00  0.00    +0.000 A 
ATOM     17  C   UNL     1      10.871  16.066  19.524  0.00  0.00    +0.000 A 
ATOM     18  C   UNL     1      10.435  14.764  19.241  0.00  0.00    +0.000 A 
BRANCH  18  19
ATOM     19  O   UNL     1       9.822  14.058  20.248  0.00  0.00    +0.000 OA
ATOM     20  H   UNL     1       8.909  14.378  20.339  0.00  0.00    +0.000 HD
ENDBRANCH  18  19
ENDBRANCH   8  13
BRANCH   1  21
ATOM     21  S   UNL     1       7.040   4.934  17.831  0.00  0.00    +0.000 S 
ATOM     22  O   UNL     1       6.501   4.556  19.124  0.00  0.00    +0.000 OA
ATOM     23  O   UNL     1       8.138   4.188  17.256  0.00  0.00    +0.000 OA
BRANCH  21  24
ATOM     24  N   UNL     1       5.780   4.988  16.696  0.00  0.00    +0.000 N 
BRANCH  24  25
ATOM     25  C   UNL     1       4.426   5.011  17.169  0.00  0.00    +0.000 A 
ATOM     26  C   UNL     1       3.826   6.165  17.676  0.00  0.00    +0.000 A 
ATOM     27  C   UNL     1       2.514   6.121  18.161  0.00  0.00    +0.000 A 
ATOM     28  C   UNL     1       1.790   4.928  18.115  0.00  0.00    +0.000 A 
ATOM     29  C   UNL     1       2.374   3.780  17.581  0.00  0.00    +0.000 A 
ATOM     30  C   UNL     1       3.692   3.822  17.115  0.00  0.00    +0.000 A 
ENDBRANCH  24  25
BRANCH  24  32
ATOM     31  C   UNL     1       6.120   4.210  14.395  0.00  0.00    +0.000 C 
ATOM     32  C   UNL     1       6.075   5.422  15.318  0.00  0.00    +0.000 C 
ENDBRANCH  24  32
ENDBRANCH  21  24
ENDBRANCH   1  21
TORSDOF 6
ENDMDL
MODEL 6
REMARK VINA RESULT:      -8.1      1.328      1.827
REMARK  Name = 
REMARK  7 active torsions:
REMARK  status: ('A' for Active; 'I' for Inactive)
REMARK    1  A    between atoms: C_1  and  C_2
REMARK    2  A    between atoms: C_2  and  N_3
REMARK    3  A    between atoms: N_3  and  C_4
REMARK    4  A    between atoms: N_3  and  S_10
REMARK    5  A    between atoms: S_10  and  C_13
REMARK    6  A    between atoms: N_20  and  C_21
REMARK    7  A    between atoms: C_26  and  O_27
REMARK                            x       y       z     vdW  Elec       q    Type
REMARK                         _______ _______ _______ _____ _____    ______ ____
ROOT
ATOM      1  C   UNL     1       3.588   5.523  18.583  0.00  0.00    +0.000 A 
ATOM      2  C   UNL     1       3.575   6.671  17.808  0.00  0.00    +0.000 A 
ATOM      3  C   UNL     1       2.769   7.743  18.203  0.00  0.00    +0.000 A 
ATOM      4  C   UNL     1       1.995   7.666  19.363  0.00  0.00    +0.000 A 
ATOM      5  N   UNL     1       1.244   8.732  19.781  0.00  0.00    +0.000 N 
ATOM      6  C   UNL     1       0.993   8.993  21.206  0.00  0.00    +0.000 C 
ATOM      7  C   UNL     1       1.445  10.438  21.546  0.00  0.00    +0.000 C 
ATOM      8  N   UNL     1       0.882  11.445  20.617  0.00  0.00    +0.000 N 
ATOM      9  C   UNL     1       1.013  11.122  19.181  0.00  0.00    +0.000 C 
ATOM     10  C   UNL     1       0.573   9.671  18.878  0.00  0.00    +0.000 C 
ATOM     11  N   UNL     1       2.000   6.529  20.102  0.00  0.00    +0.000 NA
ATOM     12  C   UNL     1       2.752   5.474  19.680  0.00  0.00    +0.000 A 
ENDROOT
BRANCH   8  13
ATOM     13  C   UNL     1      -0.031  12.409  21.020  0.00  0.00    +0.000 A 
ATOM     14  C   UNL     1      -1.406  12.187  20.794  0.00  0.00    +0.000 A 
ATOM     15  C   UNL     1      -2.385  13.121  21.150  0.00  0.00    +0.000 A 
ATOM     16  C   UNL     1      -2.011  14.322  21.741  0.00  0.00    +0.000 A 
ATOM     17  C   UNL     1      -0.665  14.581  21.979  0.00  0.00    +0.000 A 
ATOM     18  C   UNL     1       0.308  13.637  21.622  0.00  0.00    +0.000 A 
BRANCH  18  19
ATOM     19  O   UNL     1       1.618  13.918  21.925  0.00  0.00    +0.000 OA
ATOM     20  H   UNL     1       2.190  13.365  21.368  0.00  0.00    +0.000 HD
ENDBRANCH  18  19
ENDBRANCH   8  13
BRANCH   1  21
ATOM     21  S   UNL     1       4.532   4.108  18.104  0.00  0.00    +0.000 S 
ATOM     22  O   UNL     1       3.646   3.259  17.330  0.00  0.00    +0.000 OA
ATOM     23  O   UNL     1       5.158   3.601  19.305  0.00  0.00    +0.000 OA
BRANCH  21  24
ATOM     24  N   UNL     1       5.746   4.720  17.088  0.00  0.00    +0.000 N 
BRANCH  24  25
ATOM     25  C   UNL     1       6.649   5.706  17.608  0.00  0.00    +0.000 A 
ATOM     26  C   UNL     1       7.435   5.483  18.739  0.00  0.00    +0.000 A 
ATOM     27  C   UNL     1       8.270   6.496  19.226  0.00  0.00    +0.000 A 
ATOM     28  C   UNL     1       8.340   7.724  18.566  0.00  0.00    +0.000 A 
ATOM     29  C   UNL     1       7.580   7.940  17.418  0.00  0.00    +0.000 A 
ATOM     30  C   UNL     1       6.732   6.934  16.945  0.00  0.00    +0.000 A 
ENDBRANCH  24  25
BRANCH  24  32
ATOM     31  C   UNL     1       5.511   4.630  14.649  0.00  0.00    +0.000 C 
ATOM     32  C   UNL     1       6.116   3.963  15.878  0.00  0.00    +0.000 C 
ENDBRANCH  24  32
ENDBRANCH  21  24
ENDBRANCH   1  21
TORSDOF 6
ENDMDL
MODEL 7
REMARK VINA RESULT:      -8.0      1.609      2.184
REMARK  Name = 
REMARK  7 active torsions:
REMARK  status: ('A' for Active; 'I' for Inactive)
REMARK    1  A    between atoms: C_1  and  C_2
REMARK    2  A    between atoms: C_2  and  N_3
REMARK    3  A    between atoms: N_3  and  C_4
REMARK    4  A    between atoms: N_3  and  S_10
REMARK    5  A    between atoms: S_10  and  C_13
REMARK    6  A    between atoms: N_20  and  C_21
REMARK    7  A    between atoms: C_26  and  O_27
REMARK                            x       y       z     vdW  Elec       q    Type
REMARK                         _______ _______ _______ _____ _____    ______ ____
ROOT
ATOM      1  C   UNL     1       2.232   5.116  19.037  0.00  0.00    +0.000 A 
ATOM      2  C   UNL     1       1.719   5.208  20.320  0.00  0.00    +0.000 A 
ATOM      3  C   UNL     1       1.434   6.473  20.843  0.00  0.00    +0.000 A 
ATOM      4  C   UNL     1       1.654   7.626  20.087  0.00  0.00    +0.000 A 
ATOM      5  N   UNL     1       1.329   8.863  20.577  0.00  0.00    +0.000 N 
ATOM      6  C   UNL     1       0.887   9.954  19.696  0.00  0.00    +0.000 C 
ATOM      7  C   UNL     1      -0.485  10.483  20.193  0.00  0.00    +0.000 C 
ATOM      8  N   UNL     1      -0.484  10.807  21.638  0.00  0.00    +0.000 N 
ATOM      9  C   UNL     1       0.086   9.765  22.518  0.00  0.00    +0.000 C 
ATOM     10  C   UNL     1       1.442   9.247  21.987  0.00  0.00    +0.000 C 
ATOM     11  N   UNL     1       2.177   7.524  18.840  0.00  0.00    +0.000 NA
ATOM     12  C   UNL     1       2.495   6.289  18.360  0.00  0.00    +0.000 A 
ENDROOT
BRANCH   8  13
ATOM     13  C   UNL     1      -0.625  12.102  22.117  0.00  0.00    +0.000 A 
ATOM     14  C   UNL     1       0.284  13.093  21.692  0.00  0.00    +0.000 A 
ATOM     15  C   UNL     1       0.221  14.415  22.148  0.00  0.00    +0.000 A 
ATOM     16  C   UNL     1      -0.761  14.784  23.059  0.00  0.00    +0.000 A 
ATOM     17  C   UNL     1      -1.676  13.836  23.506  0.00  0.00    +0.000 A 
ATOM     18  C   UNL     1      -1.606  12.515  23.039  0.00  0.00    +0.000 A 
BRANCH  18  19
ATOM     19  O   UNL     1      -2.564  11.630  23.471  0.00  0.00    +0.000 OA
ATOM     20  H   UNL     1      -3.429  11.928  23.145  0.00  0.00    +0.000 HD
ENDBRANCH  18  19
ENDBRANCH   8  13
BRANCH   1  21
ATOM     21  S   UNL     1       2.676   3.553  18.341  0.00  0.00    +0.000 S 
ATOM     22  O   UNL     1       2.687   3.727  16.900  0.00  0.00    +0.000 OA
ATOM     23  O   UNL     1       1.809   2.567  18.947  0.00  0.00    +0.000 OA
BRANCH  21  24
ATOM     24  N   UNL     1       4.260   3.273  18.880  0.00  0.00    +0.000 N 
BRANCH  24  25
ATOM     25  C   UNL     1       5.312   4.125  18.407  0.00  0.00    +0.000 A 
ATOM     26  C   UNL     1       5.735   4.129  17.076  0.00  0.00    +0.000 A 
ATOM     27  C   UNL     1       6.794   4.953  16.677  0.00  0.00    +0.000 A 
ATOM     28  C   UNL     1       7.413   5.796  17.602  0.00  0.00    +0.000 A 
ATOM     29  C   UNL     1       6.974   5.818  18.925  0.00  0.00    +0.000 A 
ATOM     30  C   UNL     1       5.929   4.980  19.325  0.00  0.00    +0.000 A 
ENDBRANCH  24  25
BRANCH  24  32
ATOM     31  C   UNL     1       4.831   1.040  19.719  0.00  0.00    +0.000 C 
ATOM     32  C   UNL     1       4.471   2.471  20.100  0.00  0.00    +0.000 C 
ENDBRANCH  24  32
ENDBRANCH  21  24
ENDBRANCH   1  21
TORSDOF 6
ENDMDL
MODEL 8
REMARK VINA RESULT:      -8.0      0.861      1.677
REMARK  Name = 
REMARK  7 active torsions:
REMARK  status: ('A' for Active; 'I' for Inactive)
REMARK    1  A    between atoms: C_1  and  C_2
REMARK    2  A    between atoms: C_2  and  N_3
REMARK    3  A    between atoms: N_3  and  C_4
REMARK    4  A    between atoms: N_3  and  S_10
REMARK    5  A    between atoms: S_10  and  C_13
REMARK    6  A    between atoms: N_20  and  C_21
REMARK    7  A    between atoms: C_26  and  O_27
REMARK                            x       y       z     vdW  Elec       q    Type
REMARK                         _______ _______ _______ _____ _____    ______ ____
ROOT
ATOM      1  C   UNL     1       3.121   5.736  18.636  0.00  0.00    +0.000 A 
ATOM      2  C   UNL     1       2.956   6.955  18.002  0.00  0.00    +0.000 A 
ATOM      3  C   UNL     1       2.154   7.927  18.607  0.00  0.00    +0.000 A 
ATOM      4  C   UNL     1       1.533   7.680  19.833  0.00  0.00    +0.000 A 
ATOM      5  N   UNL     1       0.788   8.647  20.454  0.00  0.00    +0.000 N 
ATOM      6  C   UNL     1       0.702   8.739  21.919  0.00  0.00    +0.000 C 
ATOM      7  C   UNL     1       1.120  10.166  22.363  0.00  0.00    +0.000 C 
ATOM      8  N   UNL     1       0.399  11.229  21.626  0.00  0.00    +0.000 N 
ATOM      9  C   UNL     1       0.367  11.068  20.157  0.00  0.00    +0.000 C 
ATOM     10  C   UNL     1      -0.035   9.633  19.747  0.00  0.00    +0.000 C 
ATOM     11  N   UNL     1       1.685   6.474  20.434  0.00  0.00    +0.000 NA
ATOM     12  C   UNL     1       2.430   5.518  19.810  0.00  0.00    +0.000 A 
ENDROOT
BRANCH   8  13
ATOM     13  C   UNL     1      -0.505  12.085  22.239  0.00  0.00    +0.000 A 
ATOM     14  C   UNL     1      -1.750  11.578  22.664  0.00  0.00    +0.000 A 
ATOM     15  C   UNL     1      -2.722  12.384  23.268  0.00  0.00    +0.000 A 
ATOM     16  C   UNL     1      -2.475  13.738  23.458  0.00  0.00    +0.000 A 
ATOM     17  C   UNL     1      -1.260  14.279  23.050  0.00  0.00    +0.000 A 
ATOM     18  C   UNL     1      -0.291  13.462  22.450  0.00  0.00    +0.000 A 
BRANCH  18  19
ATOM     19  O   UNL     1       0.912  14.033  22.112  0.00  0.00    +0.000 OA
ATOM     20  H   UNL     1       0.745  14.930  21.779  0.00  0.00    +0.000 HD
ENDBRANCH  18  19
ENDBRANCH   8  13
BRANCH   1  21
ATOM     21  S   UNL     1       4.068   4.441  17.893  0.00  0.00    +0.000 S 
ATOM     22  O   UNL     1       3.146   3.658  17.091  0.00  0.00    +0.000 OA
ATOM     23  O   UNL     1       4.818   3.812  18.958  0.00  0.00    +0.000 OA
BRANCH  21  24
ATOM     24  N   UNL     1       5.161   5.236  16.868  0.00  0.00    +0.000 N 
BRANCH  24  25
ATOM     25  C   UNL     1       6.223   6.003  17.453  0.00  0.00    +0.000 A 
ATOM     26  C   UNL     1       6.545   7.291  17.023  0.00  0.00    +0.000 A 
ATOM     27  C   UNL     1       7.618   7.978  17.602  0.00  0.00    +0.000 A 
ATOM     28  C   UNL     1       8.354   7.389  18.632  0.00  0.00    +0.000 A 
ATOM     29  C   UNL     1       8.016   6.114  19.086  0.00  0.00    +0.000 A 
ATOM     30  C   UNL     1       6.957   5.422  18.492  0.00  0.00    +0.000 A 
ENDBRANCH  24  25
BRANCH  24  32
ATOM     31  C   UNL     1       6.465   3.882  15.293  0.00  0.00    +0.000 C 
ATOM     32  C   UNL     1       5.266   4.807  15.461  0.00  0.00    +0.000 C 
ENDBRANCH  24  32
ENDBRANCH  21  24
ENDBRANCH   1  21
TORSDOF 6
ENDMDL
MODEL 9
REMARK VINA RESULT:      -8.0      1.389      1.817
REMARK  Name = 
REMARK  7 active torsions:
REMARK  status: ('A' for Active; 'I' for Inactive)
REMARK    1  A    between atoms: C_1  and  C_2
REMARK    2  A    between atoms: C_2  and  N_3
REMARK    3  A    between atoms: N_3  and  C_4
REMARK    4  A    between atoms: N_3  and  S_10
REMARK    5  A    between atoms: S_10  and  C_13
REMARK    6  A    between atoms: N_20  and  C_21
REMARK    7  A    between atoms: C_26  and  O_27
REMARK                            x       y       z     vdW  Elec       q    Type
REMARK                         _______ _______ _______ _____ _____    ______ ____
ROOT
ATOM      1  C   UNL     1       2.274   5.137  19.015  0.00  0.00    +0.000 A 
ATOM      2  C   UNL     1       1.762   5.190  20.301  0.00  0.00    +0.000 A 
ATOM      3  C   UNL     1       1.435   6.435  20.846  0.00  0.00    +0.000 A 
ATOM      4  C   UNL     1       1.613   7.607  20.108  0.00  0.00    +0.000 A 
ATOM      5  N   UNL     1       1.247   8.824  20.619  0.00  0.00    +0.000 N 
ATOM      6  C   UNL     1       0.764   9.914  19.758  0.00  0.00    +0.000 C 
ATOM      7  C   UNL     1      -0.624  10.387  20.267  0.00  0.00    +0.000 C 
ATOM      8  N   UNL     1      -0.629  10.687  21.717  0.00  0.00    +0.000 N 
ATOM      9  C   UNL     1      -0.021   9.651  22.579  0.00  0.00    +0.000 C 
ATOM     10  C   UNL     1       1.351   9.188  22.036  0.00  0.00    +0.000 C 
ATOM     11  N   UNL     1       2.135   7.545  18.859  0.00  0.00    +0.000 NA
ATOM     12  C   UNL     1       2.495   6.329  18.357  0.00  0.00    +0.000 A 
ENDROOT
BRANCH   8  13
ATOM     13  C   UNL     1      -0.814  11.968  22.218  0.00  0.00    +0.000 A 
ATOM     14  C   UNL     1      -1.967  12.246  22.980  0.00  0.00    +0.000 A 
ATOM     15  C   UNL     1      -2.235  13.518  23.498  0.00  0.00    +0.000 A 
ATOM     16  C   UNL     1      -1.350  14.562  23.258  0.00  0.00    +0.000 A 
ATOM     17  C   UNL     1      -0.202  14.330  22.508  0.00  0.00    +0.000 A 
ATOM     18  C   UNL     1       0.060  13.051  21.997  0.00  0.00    +0.000 A 
BRANCH  18  19
ATOM     19  O   UNL     1       1.233  12.862  21.308  0.00  0.00    +0.000 OA
ATOM     20  H   UNL     1       1.019  12.671  20.380  0.00  0.00    +0.000 HD
ENDBRANCH  18  19
ENDBRANCH   8  13
BRANCH   1  21
ATOM     21  S   UNL     1       2.770   3.602  18.292  0.00  0.00    +0.000 S 
ATOM     22  O   UNL     1       2.850   3.823  16.860  0.00  0.00    +0.000 OA
ATOM     23  O   UNL     1       1.885   2.588  18.822  0.00  0.00    +0.000 OA
BRANCH  21  24
ATOM     24  N   UNL     1       4.328   3.320  18.900  0.00  0.00    +0.000 N 
BRANCH  24  25
ATOM     25  C   UNL     1       5.407   4.150  18.448  0.00  0.00    +0.000 A 
ATOM     26  C   UNL     1       5.912   4.085  17.149  0.00  0.00    +0.000 A 
ATOM     27  C   UNL     1       6.993   4.891  16.773  0.00  0.00    +0.000 A 
ATOM     28  C   UNL     1       7.553   5.784  17.689  0.00  0.00    +0.000 A 
ATOM     29  C   UNL     1       7.031   5.875  18.978  0.00  0.00    +0.000 A 
ATOM     30  C   UNL     1       5.964   5.055  19.357  0.00  0.00    +0.000 A 
ENDBRANCH  24  25
BRANCH  24  32
ATOM     31  C   UNL     1       4.816   1.097  19.814  0.00  0.00    +0.000 C 
ATOM     32  C   UNL     1       4.482   2.546  20.147  0.00  0.00    +0.000 C 
ENDBRANCH  24  32
ENDBRANCH  21  24
ENDBRANCH   1  21
TORSDOF 6
ENDMDL
