MODEL 1
REMARK VINA RESULT:      -7.4      0.000      0.000
REMARK  Name = 
REMARK  3 active torsions:
REMARK  status: ('A' for Active; 'I' for Inactive)
REMARK    1  A    between atoms: C_1  and  C_2
REMARK    2  A    between atoms: C_6  and  C_8
REMARK    3  A    between atoms: C_8  and  N_9
REMARK                            x       y       z     vdW  Elec       q    Type
REMARK                         _______ _______ _______ _____ _____    ______ ____
ROOT
ATOM      1  C   UNL     1       7.239   4.360  12.147  0.00  0.00    +0.000 C 
ATOM      2  C   UNL     1       6.916   4.429  13.582  0.00  0.00    +0.000 A 
ATOM      3  C   UNL     1       6.064   3.751  14.420  0.00  0.00    +0.000 A 
ATOM      4  C   UNL     1       6.259   4.345  15.693  0.00  0.00    +0.000 A 
ATOM      5  N   UNL     1       5.623   3.939  16.849  0.00  0.00    +0.000 N 
ATOM      6  C   UNL     1       5.694   4.615  18.056  0.00  0.00    +0.000 C 
ATOM      7  O   UNL     1       6.159   5.731  18.246  0.00  0.00    +0.000 OA
ATOM      8  N   UNL     1       7.167   5.327  15.610  0.00  0.00    +0.000 NA
ATOM      9  O   UNL     1       7.582   5.370  14.298  0.00  0.00    +0.000 OA
ATOM     10  H   UNL     1       5.134   3.055  16.834  0.00  0.00    +0.000 HD
ENDROOT
BRANCH   6  11
ATOM     11  C   UNL     1       5.057   3.827  19.208  0.00  0.00    +0.000 C 
BRANCH  11  12
ATOM     12  N   UNL     1       3.587   3.755  19.051  0.00  0.00    +0.000 NA
ATOM     13  C   UNL     1       3.140   2.345  18.982  0.00  0.00    +0.000 C 
ATOM     14  C   UNL     1       1.637   2.281  18.718  0.00  0.00    +0.000 C 
ATOM     15  C   UNL     1       0.851   3.037  19.781  0.00  0.00    +0.000 C 
ATOM     16  C   UNL     1       1.410   4.443  19.975  0.00  0.00    +0.000 C 
ATOM     17  C   UNL     1       2.925   4.419  20.188  0.00  0.00    +0.000 C 
ENDBRANCH  11  12
ENDBRANCH   6  11
TORSDOF 2
ENDMDL
MODEL 2
REMARK VINA RESULT:      -7.0      0.987      1.172
REMARK  Name = 
REMARK  3 active torsions:
REMARK  status: ('A' for Active; 'I' for Inactive)
REMARK    1  A    between atoms: C_1  and  C_2
REMARK    2  A    between atoms: C_6  and  C_8
REMARK    3  A    between atoms: C_8  and  N_9
REMARK                            x       y       z     vdW  Elec       q    Type
REMARK                         _______ _______ _______ _____ _____    ______ ____
ROOT
ATOM      1  C   UNL     1       7.605   5.019  12.409  0.00  0.00    +0.000 C 
ATOM      2  C   UNL     1       7.175   4.799  13.800  0.00  0.00    +0.000 A 
ATOM      3  C   UNL     1       6.247   3.993  14.414  0.00  0.00    +0.000 A 
ATOM      4  C   UNL     1       6.356   4.301  15.793  0.00  0.00    +0.000 A 
ATOM      5  N   UNL     1       5.625   3.686  16.790  0.00  0.00    +0.000 N 
ATOM      6  C   UNL     1       5.618   4.093  18.115  0.00  0.00    +0.000 C 
ATOM      7  O   UNL     1       6.091   5.127  18.568  0.00  0.00    +0.000 OA
ATOM      8  N   UNL     1       7.289   5.244  15.983  0.00  0.00    +0.000 NA
ATOM      9  O   UNL     1       7.803   5.545  14.742  0.00  0.00    +0.000 OA
ATOM     10  H   UNL     1       5.120   2.844  16.556  0.00  0.00    +0.000 HD
ENDROOT
BRANCH   6  11
ATOM     11  C   UNL     1       4.878   3.106  19.027  0.00  0.00    +0.000 C 
BRANCH  11  12
ATOM     12  N   UNL     1       3.725   3.759  19.687  0.00  0.00    +0.000 NA
ATOM     13  C   UNL     1       2.724   4.184  18.682  0.00  0.00    +0.000 C 
ATOM     14  C   UNL     1       1.587   4.946  19.360  0.00  0.00    +0.000 C 
ATOM     15  C   UNL     1       0.926   4.111  20.448  0.00  0.00    +0.000 C 
ATOM     16  C   UNL     1       1.969   3.531  21.399  0.00  0.00    +0.000 C 
ATOM     17  C   UNL     1       3.092   2.826  20.636  0.00  0.00    +0.000 C 
ENDBRANCH  11  12
ENDBRANCH   6  11
TORSDOF 2
ENDMDL
MODEL 3
REMARK VINA RESULT:      -6.7      2.456      3.220
REMARK  Name = 
REMARK  3 active torsions:
REMARK  status: ('A' for Active; 'I' for Inactive)
REMARK    1  A    between atoms: C_1  and  C_2
REMARK    2  A    between atoms: C_6  and  C_8
REMARK    3  A    between atoms: C_8  and  N_9
REMARK                            x       y       z     vdW  Elec       q    Type
REMARK                         _______ _______ _______ _____ _____    ______ ____
ROOT
ATOM      1  C   UNL     1       8.492   8.591  18.115  0.00  0.00    +0.000 C 
ATOM      2  C   UNL     1       7.554   7.490  17.841  0.00  0.00    +0.000 A 
ATOM      3  C   UNL     1       7.192   6.337  18.494  0.00  0.00    +0.000 A 
ATOM      4  C   UNL     1       6.230   5.729  17.649  0.00  0.00    +0.000 A 
ATOM      5  N   UNL     1       5.565   4.554  17.942  0.00  0.00    +0.000 N 
ATOM      6  C   UNL     1       4.744   3.881  17.052  0.00  0.00    +0.000 C 
ATOM      7  O   UNL     1       4.621   4.102  15.854  0.00  0.00    +0.000 OA
ATOM      8  N   UNL     1       6.042   6.474  16.552  0.00  0.00    +0.000 NA
ATOM      9  O   UNL     1       6.860   7.575  16.679  0.00  0.00    +0.000 OA
ATOM     10  H   UNL     1       5.622   4.201  18.887  0.00  0.00    +0.000 HD
ENDROOT
BRANCH   6  11
ATOM     11  C   UNL     1       3.985   2.723  17.714  0.00  0.00    +0.000 C 
BRANCH  11  12
ATOM     12  N   UNL     1       3.196   3.202  18.872  0.00  0.00    +0.000 NA
ATOM     13  C   UNL     1       1.746   3.099  18.589  0.00  0.00    +0.000 C 
ATOM     14  C   UNL     1       0.941   3.688  19.746  0.00  0.00    +0.000 C 
ATOM     15  C   UNL     1       1.276   3.004  21.065  0.00  0.00    +0.000 C 
ATOM     16  C   UNL     1       2.785   2.960  21.288  0.00  0.00    +0.000 C 
ATOM     17  C   UNL     1       3.515   2.400  20.066  0.00  0.00    +0.000 C 
ENDBRANCH  11  12
ENDBRANCH   6  11
TORSDOF 2
ENDMDL
MODEL 4
REMARK VINA RESULT:      -6.5      1.493      1.705
REMARK  Name = 
REMARK  3 active torsions:
REMARK  status: ('A' for Active; 'I' for Inactive)
REMARK    1  A    between atoms: C_1  and  C_2
REMARK    2  A    between atoms: C_6  and  C_8
REMARK    3  A    between atoms: C_8  and  N_9
REMARK                            x       y       z     vdW  Elec       q    Type
REMARK                         _______ _______ _______ _____ _____    ______ ____
ROOT
ATOM      1  C   UNL     1       6.763   3.085  11.685  0.00  0.00    +0.000 C 
ATOM      2  C   UNL     1       6.480   3.823  12.927  0.00  0.00    +0.000 A 
ATOM      3  C   UNL     1       5.453   3.832  13.839  0.00  0.00    +0.000 A 
ATOM      4  C   UNL     1       5.831   4.804  14.800  0.00  0.00    +0.000 A 
ATOM      5  N   UNL     1       5.096   5.112  15.928  0.00  0.00    +0.000 N 
ATOM      6  C   UNL     1       5.384   6.165  16.781  0.00  0.00    +0.000 C 
ATOM      7  O   UNL     1       6.187   7.069  16.588  0.00  0.00    +0.000 OA
ATOM      8  N   UNL     1       7.009   5.347  14.468  0.00  0.00    +0.000 NA
ATOM      9  O   UNL     1       7.416   4.728  13.308  0.00  0.00    +0.000 OA
ATOM     10  H   UNL     1       4.346   4.489  16.189  0.00  0.00    +0.000 HD
ENDROOT
BRANCH   6  11
ATOM     11  C   UNL     1       4.524   6.143  18.051  0.00  0.00    +0.000 C 
BRANCH  11  12
ATOM     12  N   UNL     1       3.722   4.900  18.126  0.00  0.00    +0.000 NA
ATOM     13  C   UNL     1       3.999   4.179  19.389  0.00  0.00    +0.000 C 
ATOM     14  C   UNL     1       3.247   2.850  19.412  0.00  0.00    +0.000 C 
ATOM     15  C   UNL     1       1.748   3.054  19.234  0.00  0.00    +0.000 C 
ATOM     16  C   UNL     1       1.459   3.936  18.023  0.00  0.00    +0.000 C 
ATOM     17  C   UNL     1       2.286   5.222  18.056  0.00  0.00    +0.000 C 
ENDBRANCH  11  12
ENDBRANCH   6  11
TORSDOF 2
ENDMDL
MODEL 5
REMARK VINA RESULT:      -6.5      0.875      1.377
REMARK  Name = 
REMARK  3 active torsions:
REMARK  status: ('A' for Active; 'I' for Inactive)
REMARK    1  A    between atoms: C_1  and  C_2
REMARK    2  A    between atoms: C_6  and  C_8
REMARK    3  A    between atoms: C_8  and  N_9
REMARK                            x       y       z     vdW  Elec       q    Type
REMARK                         _______ _______ _______ _____ _____    ______ ____
ROOT
ATOM      1  C   UNL     1       7.395   4.621  12.116  0.00  0.00    +0.000 C 
ATOM      2  C   UNL     1       7.105   4.653  13.559  0.00  0.00    +0.000 A 
ATOM      3  C   UNL     1       6.284   3.943  14.401  0.00  0.00    +0.000 A 
ATOM      4  C   UNL     1       6.499   4.513  15.681  0.00  0.00    +0.000 A 
ATOM      5  N   UNL     1       5.896   4.071  16.842  0.00  0.00    +0.000 N 
ATOM      6  C   UNL     1       5.985   4.722  18.062  0.00  0.00    +0.000 C 
ATOM      7  O   UNL     1       6.435   5.842  18.266  0.00  0.00    +0.000 OA
ATOM      8  N   UNL     1       7.387   5.511  15.599  0.00  0.00    +0.000 NA
ATOM      9  O   UNL     1       7.770   5.590  14.279  0.00  0.00    +0.000 OA
ATOM     10  H   UNL     1       5.423   3.179  16.820  0.00  0.00    +0.000 HD
ENDROOT
BRANCH   6  11
ATOM     11  C   UNL     1       5.388   3.898  19.211  0.00  0.00    +0.000 C 
BRANCH  11  12
ATOM     12  N   UNL     1       3.909   3.923  19.167  0.00  0.00    +0.000 NA
ATOM     13  C   UNL     1       3.436   4.911  18.171  0.00  0.00    +0.000 C 
ATOM     14  C   UNL     1       1.911   5.004  18.203  0.00  0.00    +0.000 C 
ATOM     15  C   UNL     1       1.264   3.647  17.956  0.00  0.00    +0.000 C 
ATOM     16  C   UNL     1       1.864   2.583  18.871  0.00  0.00    +0.000 C 
ATOM     17  C   UNL     1       3.392   2.590  18.811  0.00  0.00    +0.000 C 
ENDBRANCH  11  12
ENDBRANCH   6  11
TORSDOF 2
ENDMDL
MODEL 6
REMARK VINA RESULT:      -6.4      1.255      1.670
REMARK  Name = 
REMARK  3 active torsions:
REMARK  status: ('A' for Active; 'I' for Inactive)
REMARK    1  A    between atoms: C_1  and  C_2
REMARK    2  A    between atoms: C_6  and  C_8
REMARK    3  A    between atoms: C_8  and  N_9
REMARK                            x       y       z     vdW  Elec       q    Type
REMARK                         _______ _______ _______ _____ _____    ______ ____
ROOT
ATOM      1  C   UNL     1       7.054   4.414  13.030  0.00  0.00    +0.000 C 
ATOM      2  C   UNL     1       6.581   4.640  14.405  0.00  0.00    +0.000 A 
ATOM      3  C   UNL     1       5.420   5.112  14.968  0.00  0.00    +0.000 A 
ATOM      4  C   UNL     1       5.652   5.071  16.366  0.00  0.00    +0.000 A 
ATOM      5  N   UNL     1       4.721   5.425  17.322  0.00  0.00    +0.000 N 
ATOM      6  C   UNL     1       4.997   5.533  18.676  0.00  0.00    +0.000 C 
ATOM      7  O   UNL     1       6.101   5.514  19.204  0.00  0.00    +0.000 OA
ATOM      8  N   UNL     1       6.885   4.611  16.616  0.00  0.00    +0.000 NA
ATOM      9  O   UNL     1       7.457   4.334  15.394  0.00  0.00    +0.000 OA
ATOM     10  H   UNL     1       3.762   5.541  17.028  0.00  0.00    +0.000 HD
ENDROOT
BRANCH   6  11
ATOM     11  C   UNL     1       3.732   5.743  19.517  0.00  0.00    +0.000 C 
BRANCH  11  12
ATOM     12  N   UNL     1       2.972   4.480  19.656  0.00  0.00    +0.000 NA
ATOM     13  C   UNL     1       2.402   4.364  21.017  0.00  0.00    +0.000 C 
ATOM     14  C   UNL     1       1.707   3.014  21.184  0.00  0.00    +0.000 C 
ATOM     15  C   UNL     1       0.623   2.810  20.134  0.00  0.00    +0.000 C 
ATOM     16  C   UNL     1       1.162   3.088  18.734  0.00  0.00    +0.000 C 
ATOM     17  C   UNL     1       1.880   4.437  18.667  0.00  0.00    +0.000 C 
ENDBRANCH  11  12
ENDBRANCH   6  11
TORSDOF 2
ENDMDL
MODEL 7
REMARK VINA RESULT:      -6.4      2.628      3.174
REMARK  Name = 
REMARK  3 active torsions:
REMARK  status: ('A' for Active; 'I' for Inactive)
REMARK    1  A    between atoms: C_1  and  C_2
REMARK    2  A    between atoms: C_6  and  C_8
REMARK    3  A    between atoms: C_8  and  N_9
REMARK                            x       y       z     vdW  Elec       q    Type
REMARK                         _______ _______ _______ _____ _____    ______ ____
ROOT
ATOM      1  C   UNL     1       7.910   8.009  17.650  0.00  0.00    +0.000 C 
ATOM      2  C   UNL     1       6.962   6.883  17.606  0.00  0.00    +0.000 A 
ATOM      3  C   UNL     1       6.967   5.590  18.069  0.00  0.00    +0.000 A 
ATOM      4  C   UNL     1       5.717   5.055  17.664  0.00  0.00    +0.000 A 
ATOM      5  N   UNL     1       5.284   3.778  17.958  0.00  0.00    +0.000 N 
ATOM      6  C   UNL     1       4.137   3.205  17.433  0.00  0.00    +0.000 C 
ATOM      7  O   UNL     1       3.447   3.644  16.522  0.00  0.00    +0.000 OA
ATOM      8  N   UNL     1       5.018   5.977  16.989  0.00  0.00    +0.000 NA
ATOM      9  O   UNL     1       5.791   7.117  16.964  0.00  0.00    +0.000 OA
ATOM     10  H   UNL     1       5.793   3.254  18.655  0.00  0.00    +0.000 HD
ENDROOT
BRANCH   6  11
ATOM     11  C   UNL     1       3.799   1.860  18.089  0.00  0.00    +0.000 C 
BRANCH  11  12
ATOM     12  N   UNL     1       2.817   2.037  19.183  0.00  0.00    +0.000 NA
ATOM     13  C   UNL     1       3.481   2.571  20.395  0.00  0.00    +0.000 C 
ATOM     14  C   UNL     1       2.483   2.655  21.548  0.00  0.00    +0.000 C 
ATOM     15  C   UNL     1       1.277   3.510  21.183  0.00  0.00    +0.000 C 
ATOM     16  C   UNL     1       0.683   3.070  19.848  0.00  0.00    +0.000 C 
ATOM     17  C   UNL     1       1.755   2.968  18.763  0.00  0.00    +0.000 C 
ENDBRANCH  11  12
ENDBRANCH   6  11
TORSDOF 2
ENDMDL
MODEL 8
REMARK VINA RESULT:      -6.3      1.189      1.367
REMARK  Name = 
REMARK  3 active torsions:
REMARK  status: ('A' for Active; 'I' for Inactive)
REMARK    1  A    between atoms: C_1  and  C_2
REMARK    2  A    between atoms: C_6  and  C_8
REMARK    3  A    between atoms: C_8  and  N_9
REMARK                            x       y       z     vdW  Elec       q    Type
REMARK                         _______ _______ _______ _____ _____    ______ ____
ROOT
ATOM      1  C   UNL     1       6.943   3.676  12.651  0.00  0.00    +0.000 C 
ATOM      2  C   UNL     1       6.478   4.214  13.940  0.00  0.00    +0.000 A 
ATOM      3  C   UNL     1       5.738   3.723  14.988  0.00  0.00    +0.000 A 
ATOM      4  C   UNL     1       5.663   4.796  15.912  0.00  0.00    +0.000 A 
ATOM      5  N   UNL     1       5.035   4.724  17.140  0.00  0.00    +0.000 N 
ATOM      6  C   UNL     1       4.827   5.812  17.973  0.00  0.00    +0.000 C 
ATOM      7  O   UNL     1       4.990   6.992  17.694  0.00  0.00    +0.000 OA
ATOM      8  N   UNL     1       6.312   5.864  15.433  0.00  0.00    +0.000 NA
ATOM      9  O   UNL     1       6.827   5.497  14.210  0.00  0.00    +0.000 OA
ATOM     10  H   UNL     1       4.776   3.811  17.487  0.00  0.00    +0.000 HD
ENDROOT
BRANCH   6  11
ATOM     11  C   UNL     1       4.291   5.402  19.350  0.00  0.00    +0.000 C 
BRANCH  11  12
ATOM     12  N   UNL     1       3.333   4.279  19.232  0.00  0.00    +0.000 NA
ATOM     13  C   UNL     1       2.857   3.860  20.571  0.00  0.00    +0.000 C 
ATOM     14  C   UNL     1       1.950   2.637  20.448  0.00  0.00    +0.000 C 
ATOM     15  C   UNL     1       0.769   2.908  19.525  0.00  0.00    +0.000 C 
ATOM     16  C   UNL     1       1.240   3.496  18.198  0.00  0.00    +0.000 C 
ATOM     17  C   UNL     1       2.178   4.685  18.413  0.00  0.00    +0.000 C 
ENDBRANCH  11  12
ENDBRANCH   6  11
TORSDOF 2
ENDMDL
MODEL 9
REMARK VINA RESULT:      -6.3      1.901      2.436
REMARK  Name = 
REMARK  3 active torsions:
REMARK  status: ('A' for Active; 'I' for Inactive)
REMARK    1  A    between atoms: C_1  and  C_2
REMARK    2  A    between atoms: C_6  and  C_8
REMARK    3  A    between atoms: C_8  and  N_9
REMARK                            x       y       z     vdW  Elec       q    Type
REMARK                         _______ _______ _______ _____ _____    ______ ____
ROOT
ATOM      1  C   UNL     1       6.827   4.282  13.816  0.00  0.00    +0.000 C 
ATOM      2  C   UNL     1       6.011   4.882  14.884  0.00  0.00    +0.000 A 
ATOM      3  C   UNL     1       5.255   4.392  15.921  0.00  0.00    +0.000 A 
ATOM      4  C   UNL     1       4.729   5.542  16.561  0.00  0.00    +0.000 A 
ATOM      5  N   UNL     1       3.934   5.512  17.690  0.00  0.00    +0.000 N 
ATOM      6  C   UNL     1       3.294   6.619  18.222  0.00  0.00    +0.000 C 
ATOM      7  O   UNL     1       3.180   7.722  17.703  0.00  0.00    +0.000 OA
ATOM      8  N   UNL     1       5.141   6.650  15.931  0.00  0.00    +0.000 NA
ATOM      9  O   UNL     1       5.947   6.237  14.894  0.00  0.00    +0.000 OA
ATOM     10  H   UNL     1       3.873   4.643  18.203  0.00  0.00    +0.000 HD
ENDROOT
BRANCH   6  11
ATOM     11  C   UNL     1       2.650   6.327  19.584  0.00  0.00    +0.000 C 
BRANCH  11  12
ATOM     12  N   UNL     1       2.511   4.869  19.801  0.00  0.00    +0.000 NA
ATOM     13  C   UNL     1       2.403   4.568  21.247  0.00  0.00    +0.000 C 
ATOM     14  C   UNL     1       2.363   3.057  21.469  0.00  0.00    +0.000 C 
ATOM     15  C   UNL     1       1.215   2.411  20.704  0.00  0.00    +0.000 C 
ATOM     16  C   UNL     1       1.222   2.847  19.242  0.00  0.00    +0.000 C 
ATOM     17  C   UNL     1       1.310   4.368  19.111  0.00  0.00    +0.000 C 
ENDBRANCH  11  12
ENDBRANCH   6  11
TORSDOF 2
ENDMDL
