MODEL 1
REMARK VINA RESULT:      -8.9      0.000      0.000
REMARK  Name = 
REMARK  7 active torsions:
REMARK  status: ('A' for Active; 'I' for Inactive)
REMARK    1  A    between atoms: C_2  and  O_3
REMARK    2  A    between atoms: C_2  and  C_26
REMARK    3  A    between atoms: O_3  and  C_4
REMARK    4  A    between atoms: C_8  and  C_9
REMARK    5  A    between atoms: C_9  and  N_10
REMARK    6  A    between atoms: N_15  and  C_16
REMARK    7  A    between atoms: C_16  and  C_17
REMARK                            x       y       z     vdW  Elec       q    Type
REMARK                         _______ _______ _______ _____ _____    ______ ____
ROOT
ATOM      1  C   UNL     1       1.467   6.376  20.871  0.00  0.00    +0.000 C 
ENDROOT
BRANCH   1   2
ATOM      2  N   UNL     1       1.650   7.511  19.963  0.00  0.00    +0.000 N 
ATOM      3  C   UNL     1       2.459   7.371  18.860  0.00  0.00    +0.000 A 
ATOM      4  C   UNL     1       2.638   8.364  17.990  0.00  0.00    +0.000 A 
ATOM      5  C   UNL     1       1.937   9.642  18.198  0.00  0.00    +0.000 A 
ATOM      6  O   UNL     1       2.100  10.538  17.372  0.00  0.00    +0.000 OA
ATOM      7  N   UNL     1       1.170   9.740  19.344  0.00  0.00    +0.000 N 
ATOM      8  C   UNL     1       1.006   8.710  20.269  0.00  0.00    +0.000 A 
ATOM      9  O   UNL     1       0.363   8.853  21.311  0.00  0.00    +0.000 OA
BRANCH   7  10
ATOM     10  C   UNL     1       0.560  11.023  19.639  0.00  0.00    +0.000 C 
BRANCH  10  11
ATOM     11  C   UNL     1      -0.864  11.159  19.138  0.00  0.00    +0.000 A 
ATOM     12  C   UNL     1      -1.347  10.312  18.131  0.00  0.00    +0.000 A 
ATOM     13  C   UNL     1      -2.680  10.378  17.726  0.00  0.00    +0.000 A 
ATOM     14  C   UNL     1      -3.543  11.297  18.318  0.00  0.00    +0.000 A 
ATOM     15  C   UNL     1      -3.067  12.166  19.297  0.00  0.00    +0.000 A 
ATOM     16  C   UNL     1      -1.731  12.105  19.700  0.00  0.00    +0.000 A 
ENDBRANCH  10  11
ENDBRANCH   7  10
ENDBRANCH   1   2
BRANCH   1  21
ATOM     17  C   UNL     1       3.822   3.640  19.596  0.00  0.00    +0.000 A 
ATOM     18  C   UNL     1       2.917   2.666  19.180  0.00  0.00    +0.000 A 
ATOM     19  C   UNL     1       1.549   2.872  19.361  0.00  0.00    +0.000 A 
ATOM     20  C   UNL     1       1.084   4.063  19.923  0.00  0.00    +0.000 A 
ATOM     21  C   UNL     1       1.983   5.072  20.299  0.00  0.00    +0.000 A 
ATOM     22  C   UNL     1       3.362   4.845  20.137  0.00  0.00    +0.000 A 
BRANCH  17  23
ATOM     23  O   UNL     1       5.225   3.510  19.444  0.00  0.00    +0.000 OA
BRANCH  23  25
ATOM     24  O   UNL     1       6.778   5.233  19.755  0.00  0.00    +0.000 OA
ATOM     25  C   UNL     1       6.026   4.578  19.049  0.00  0.00    +0.000 C 
BRANCH  25  26
ATOM     26  C   UNL     1       5.845   4.873  17.598  0.00  0.00    +0.000 A 
ATOM     27  C   UNL     1       5.432   6.169  17.240  0.00  0.00    +0.000 A 
ATOM     28  C   UNL     1       5.210   6.502  15.902  0.00  0.00    +0.000 A 
ATOM     29  C   UNL     1       5.402   5.545  14.909  0.00  0.00    +0.000 A 
ATOM     30  C   UNL     1       5.827   4.260  15.251  0.00  0.00    +0.000 A 
ATOM     31  C   UNL     1       6.052   3.923  16.591  0.00  0.00    +0.000 A 
ENDBRANCH  25  26
ENDBRANCH  23  25
ENDBRANCH  17  23
ENDBRANCH   1  21
TORSDOF 7
ENDMDL
MODEL 2
REMARK VINA RESULT:      -8.8      2.514      7.941
REMARK  Name = 
REMARK  7 active torsions:
REMARK  status: ('A' for Active; 'I' for Inactive)
REMARK    1  A    between atoms: C_2  and  O_3
REMARK    2  A    between atoms: C_2  and  C_26
REMARK    3  A    between atoms: O_3  and  C_4
REMARK    4  A    between atoms: C_8  and  C_9
REMARK    5  A    between atoms: C_9  and  N_10
REMARK    6  A    between atoms: N_15  and  C_16
REMARK    7  A    between atoms: C_16  and  C_17
REMARK                            x       y       z     vdW  Elec       q    Type
REMARK                         _______ _______ _______ _____ _____    ______ ____
ROOT
ATOM      1  C   UNL     1       4.795   3.184  19.324  0.00  0.00    +0.000 C 
ENDROOT
BRANCH   1   2
ATOM      2  N   UNL     1       5.521   4.230  18.599  0.00  0.00    +0.000 N 
ATOM      3  C   UNL     1       6.567   4.877  19.214  0.00  0.00    +0.000 A 
ATOM      4  C   UNL     1       7.275   5.817  18.590  0.00  0.00    +0.000 A 
ATOM      5  C   UNL     1       6.947   6.163  17.196  0.00  0.00    +0.000 A 
ATOM      6  O   UNL     1       7.626   7.018  16.633  0.00  0.00    +0.000 OA
ATOM      7  N   UNL     1       5.862   5.510  16.643  0.00  0.00    +0.000 N 
ATOM      8  C   UNL     1       5.103   4.547  17.307  0.00  0.00    +0.000 A 
ATOM      9  O   UNL     1       4.104   4.029  16.803  0.00  0.00    +0.000 OA
BRANCH   7  10
ATOM     10  C   UNL     1       5.440   5.911  15.313  0.00  0.00    +0.000 C 
BRANCH  10  11
ATOM     11  C   UNL     1       6.022   5.063  14.200  0.00  0.00    +0.000 A 
ATOM     12  C   UNL     1       5.274   4.022  13.634  0.00  0.00    +0.000 A 
ATOM     13  C   UNL     1       5.773   3.294  12.554  0.00  0.00    +0.000 A 
ATOM     14  C   UNL     1       7.029   3.594  12.032  0.00  0.00    +0.000 A 
ATOM     15  C   UNL     1       7.796   4.606  12.607  0.00  0.00    +0.000 A 
ATOM     16  C   UNL     1       7.300   5.332  13.692  0.00  0.00    +0.000 A 
ENDBRANCH  10  11
ENDBRANCH   7  10
ENDBRANCH   1   2
BRANCH   1  21
ATOM     17  C   UNL     1       1.783   5.212  20.537  0.00  0.00    +0.000 A 
ATOM     18  C   UNL     1       0.749   4.290  20.391  0.00  0.00    +0.000 A 
ATOM     19  C   UNL     1       1.018   3.032  19.851  0.00  0.00    +0.000 A 
ATOM     20  C   UNL     1       2.322   2.684  19.491  0.00  0.00    +0.000 A 
ATOM     21  C   UNL     1       3.379   3.586  19.681  0.00  0.00    +0.000 A 
ATOM     22  C   UNL     1       3.095   4.861  20.201  0.00  0.00    +0.000 A 
BRANCH  17  23
ATOM     23  O   UNL     1       1.595   6.508  21.081  0.00  0.00    +0.000 OA
BRANCH  23  25
ATOM     24  O   UNL     1       2.309   7.799  19.265  0.00  0.00    +0.000 OA
ATOM     25  C   UNL     1       1.670   7.655  20.297  0.00  0.00    +0.000 C 
BRANCH  25  26
ATOM     26  C   UNL     1       0.864   8.761  20.890  0.00  0.00    +0.000 A 
ATOM     27  C   UNL     1       0.351   9.738  20.017  0.00  0.00    +0.000 A 
ATOM     28  C   UNL     1      -0.382  10.820  20.510  0.00  0.00    +0.000 A 
ATOM     29  C   UNL     1      -0.611  10.934  21.879  0.00  0.00    +0.000 A 
ATOM     30  C   UNL     1      -0.120   9.963  22.752  0.00  0.00    +0.000 A 
ATOM     31  C   UNL     1       0.613   8.876  22.261  0.00  0.00    +0.000 A 
ENDBRANCH  25  26
ENDBRANCH  23  25
ENDBRANCH  17  23
ENDBRANCH   1  21
TORSDOF 7
ENDMDL
MODEL 3
REMARK VINA RESULT:      -8.7      1.350      3.946
REMARK  Name = 
REMARK  7 active torsions:
REMARK  status: ('A' for Active; 'I' for Inactive)
REMARK    1  A    between atoms: C_2  and  O_3
REMARK    2  A    between atoms: C_2  and  C_26
REMARK    3  A    between atoms: O_3  and  C_4
REMARK    4  A    between atoms: C_8  and  C_9
REMARK    5  A    between atoms: C_9  and  N_10
REMARK    6  A    between atoms: N_15  and  C_16
REMARK    7  A    between atoms: C_16  and  C_17
REMARK                            x       y       z     vdW  Elec       q    Type
REMARK                         _______ _______ _______ _____ _____    ______ ____
ROOT
ATOM      1  C   UNL     1       3.352   7.365  17.151  0.00  0.00    +0.000 C 
ENDROOT
BRANCH   1   2
ATOM      2  N   UNL     1       2.579   7.834  18.303  0.00  0.00    +0.000 N 
ATOM      3  C   UNL     1       2.386   6.995  19.376  0.00  0.00    +0.000 A 
ATOM      4  C   UNL     1       1.713   7.381  20.458  0.00  0.00    +0.000 A 
ATOM      5  C   UNL     1       1.175   8.750  20.524  0.00  0.00    +0.000 A 
ATOM      6  O   UNL     1       0.575   9.093  21.540  0.00  0.00    +0.000 OA
ATOM      7  N   UNL     1       1.364   9.536  19.403  0.00  0.00    +0.000 N 
ATOM      8  C   UNL     1       2.044   9.121  18.258  0.00  0.00    +0.000 A 
ATOM      9  O   UNL     1       2.141   9.829  17.253  0.00  0.00    +0.000 OA
BRANCH   7  10
ATOM     10  C   UNL     1       0.747  10.850  19.389  0.00  0.00    +0.000 C 
BRANCH  10  11
ATOM     11  C   UNL     1      -0.691  10.851  18.912  0.00  0.00    +0.000 A 
ATOM     12  C   UNL     1      -1.622  11.743  19.464  0.00  0.00    +0.000 A 
ATOM     13  C   UNL     1      -2.926  11.804  18.970  0.00  0.00    +0.000 A 
ATOM     14  C   UNL     1      -3.315  10.971  17.925  0.00  0.00    +0.000 A 
ATOM     15  C   UNL     1      -2.408  10.058  17.390  0.00  0.00    +0.000 A 
ATOM     16  C   UNL     1      -1.105   9.991  17.886  0.00  0.00    +0.000 A 
ENDBRANCH  10  11
ENDBRANCH   7  10
ENDBRANCH   1   2
BRANCH   1  21
ATOM     17  C   UNL     1       5.337   4.249  18.155  0.00  0.00    +0.000 A 
ATOM     18  C   UNL     1       6.618   4.774  18.315  0.00  0.00    +0.000 A 
ATOM     19  C   UNL     1       6.849   6.124  18.047  0.00  0.00    +0.000 A 
ATOM     20  C   UNL     1       5.797   6.954  17.655  0.00  0.00    +0.000 A 
ATOM     21  C   UNL     1       4.494   6.448  17.539  0.00  0.00    +0.000 A 
ATOM     22  C   UNL     1       4.275   5.080  17.785  0.00  0.00    +0.000 A 
BRANCH  17  23
ATOM     23  O   UNL     1       5.019   2.891  18.410  0.00  0.00    +0.000 OA
BRANCH  23  25
ATOM     24  O   UNL     1       5.167   1.922  20.534  0.00  0.00    +0.000 OA
ATOM     25  C   UNL     1       4.533   2.468  19.643  0.00  0.00    +0.000 C 
BRANCH  25  26
ATOM     26  C   UNL     1       3.072   2.742  19.766  0.00  0.00    +0.000 A 
ATOM     27  C   UNL     1       2.220   2.208  18.782  0.00  0.00    +0.000 A 
ATOM     28  C   UNL     1       0.846   2.457  18.817  0.00  0.00    +0.000 A 
ATOM     29  C   UNL     1       0.311   3.239  19.837  0.00  0.00    +0.000 A 
ATOM     30  C   UNL     1       1.144   3.762  20.827  0.00  0.00    +0.000 A 
ATOM     31  C   UNL     1       2.521   3.513  20.796  0.00  0.00    +0.000 A 
ENDBRANCH  25  26
ENDBRANCH  23  25
ENDBRANCH  17  23
ENDBRANCH   1  21
TORSDOF 7
ENDMDL
MODEL 4
REMARK VINA RESULT:      -8.5      0.677      1.120
REMARK  Name = 
REMARK  7 active torsions:
REMARK  status: ('A' for Active; 'I' for Inactive)
REMARK    1  A    between atoms: C_2  and  O_3
REMARK    2  A    between atoms: C_2  and  C_26
REMARK    3  A    between atoms: O_3  and  C_4
REMARK    4  A    between atoms: C_8  and  C_9
REMARK    5  A    between atoms: C_9  and  N_10
REMARK    6  A    between atoms: N_15  and  C_16
REMARK    7  A    between atoms: C_16  and  C_17
REMARK                            x       y       z     vdW  Elec       q    Type
REMARK                         _______ _______ _______ _____ _____    ______ ____
ROOT
ATOM      1  C   UNL     1       1.738   6.143  20.439  0.00  0.00    +0.000 C 
ENDROOT
BRANCH   1   2
ATOM      2  N   UNL     1       1.824   7.391  19.678  0.00  0.00    +0.000 N 
ATOM      3  C   UNL     1       2.511   7.412  18.487  0.00  0.00    +0.000 A 
ATOM      4  C   UNL     1       2.598   8.515  17.745  0.00  0.00    +0.000 A 
ATOM      5  C   UNL     1       1.925   9.745  18.197  0.00  0.00    +0.000 A 
ATOM      6  O   UNL     1       2.000  10.745  17.487  0.00  0.00    +0.000 OA
ATOM      7  N   UNL     1       1.284   9.677  19.420  0.00  0.00    +0.000 N 
ATOM      8  C   UNL     1       1.219   8.530  20.210  0.00  0.00    +0.000 A 
ATOM      9  O   UNL     1       0.690   8.523  21.323  0.00  0.00    +0.000 OA
BRANCH   7  10
ATOM     10  C   UNL     1       0.710  10.901  19.949  0.00  0.00    +0.000 C 
BRANCH  10  11
ATOM     11  C   UNL     1      -0.731  11.132  19.542  0.00  0.00    +0.000 A 
ATOM     12  C   UNL     1      -1.515  12.083  20.212  0.00  0.00    +0.000 A 
ATOM     13  C   UNL     1      -2.815  12.358  19.787  0.00  0.00    +0.000 A 
ATOM     14  C   UNL     1      -3.348  11.682  18.693  0.00  0.00    +0.000 A 
ATOM     15  C   UNL     1      -2.591  10.712  18.039  0.00  0.00    +0.000 A 
ATOM     16  C   UNL     1      -1.291  10.431  18.466  0.00  0.00    +0.000 A 
ENDBRANCH  10  11
ENDBRANCH   7  10
ENDBRANCH   1   2
BRANCH   1  21
ATOM     17  C   UNL     1       4.696   4.006  19.279  0.00  0.00    +0.000 A 
ATOM     18  C   UNL     1       4.045   2.956  18.635  0.00  0.00    +0.000 A 
ATOM     19  C   UNL     1       2.650   2.912  18.623  0.00  0.00    +0.000 A 
ATOM     20  C   UNL     1       1.908   3.933  19.220  0.00  0.00    +0.000 A 
ATOM     21  C   UNL     1       2.552   5.021  19.827  0.00  0.00    +0.000 A 
ATOM     22  C   UNL     1       3.958   5.044  19.859  0.00  0.00    +0.000 A 
BRANCH  17  23
ATOM     23  O   UNL     1       6.107   4.127  19.333  0.00  0.00    +0.000 OA
BRANCH  23  25
ATOM     24  O   UNL     1       7.554   5.958  19.179  0.00  0.00    +0.000 OA
ATOM     25  C   UNL     1       6.785   5.151  18.679  0.00  0.00    +0.000 C 
BRANCH  25  26
ATOM     26  C   UNL     1       6.440   5.179  17.228  0.00  0.00    +0.000 A 
ATOM     27  C   UNL     1       5.612   6.220  16.772  0.00  0.00    +0.000 A 
ATOM     28  C   UNL     1       5.222   6.285  15.432  0.00  0.00    +0.000 A 
ATOM     29  C   UNL     1       5.658   5.313  14.536  0.00  0.00    +0.000 A 
ATOM     30  C   UNL     1       6.493   4.284  14.974  0.00  0.00    +0.000 A 
ATOM     31  C   UNL     1       6.887   4.217  16.316  0.00  0.00    +0.000 A 
ENDBRANCH  25  26
ENDBRANCH  23  25
ENDBRANCH  17  23
ENDBRANCH   1  21
TORSDOF 7
ENDMDL
MODEL 5
REMARK VINA RESULT:      -8.5      1.434      2.035
REMARK  Name = 
REMARK  7 active torsions:
REMARK  status: ('A' for Active; 'I' for Inactive)
REMARK    1  A    between atoms: C_2  and  O_3
REMARK    2  A    between atoms: C_2  and  C_26
REMARK    3  A    between atoms: O_3  and  C_4
REMARK    4  A    between atoms: C_8  and  C_9
REMARK    5  A    between atoms: C_9  and  N_10
REMARK    6  A    between atoms: N_15  and  C_16
REMARK    7  A    between atoms: C_16  and  C_17
REMARK                            x       y       z     vdW  Elec       q    Type
REMARK                         _______ _______ _______ _____ _____    ______ ____
ROOT
ATOM      1  C   UNL     1       2.209   5.658  20.376  0.00  0.00    +0.000 C 
ENDROOT
BRANCH   1   2
ATOM      2  N   UNL     1       2.192   6.928  19.647  0.00  0.00    +0.000 N 
ATOM      3  C   UNL     1       2.847   7.025  18.441  0.00  0.00    +0.000 A 
ATOM      4  C   UNL     1       2.841   8.149  17.727  0.00  0.00    +0.000 A 
ATOM      5  C   UNL     1       2.097   9.318  18.226  0.00  0.00    +0.000 A 
ATOM      6  O   UNL     1       2.087  10.339  17.541  0.00  0.00    +0.000 OA
ATOM      7  N   UNL     1       1.492   9.177  19.461  0.00  0.00    +0.000 N 
ATOM      8  C   UNL     1       1.524   8.009  20.222  0.00  0.00    +0.000 A 
ATOM      9  O   UNL     1       1.024   7.938  21.346  0.00  0.00    +0.000 OA
BRANCH   7  10
ATOM     10  C   UNL     1       0.849  10.345  20.034  0.00  0.00    +0.000 C 
BRANCH  10  11
ATOM     11  C   UNL     1      -0.401  10.785  19.299  0.00  0.00    +0.000 A 
ATOM     12  C   UNL     1      -0.663  12.147  19.095  0.00  0.00    +0.000 A 
ATOM     13  C   UNL     1      -1.769  12.552  18.347  0.00  0.00    +0.000 A 
ATOM     14  C   UNL     1      -2.628  11.602  17.801  0.00  0.00    +0.000 A 
ATOM     15  C   UNL     1      -2.395  10.246  18.024  0.00  0.00    +0.000 A 
ATOM     16  C   UNL     1      -1.292   9.838  18.777  0.00  0.00    +0.000 A 
ENDBRANCH  10  11
ENDBRANCH   7  10
ENDBRANCH   1   2
BRANCH   1  21
ATOM     17  C   UNL     1       3.649   3.154  17.863  0.00  0.00    +0.000 A 
ATOM     18  C   UNL     1       2.598   2.248  17.740  0.00  0.00    +0.000 A 
ATOM     19  C   UNL     1       1.446   2.418  18.509  0.00  0.00    +0.000 A 
ATOM     20  C   UNL     1       1.330   3.510  19.372  0.00  0.00    +0.000 A 
ATOM     21  C   UNL     1       2.361   4.456  19.466  0.00  0.00    +0.000 A 
ATOM     22  C   UNL     1       3.530   4.263  18.708  0.00  0.00    +0.000 A 
BRANCH  17  23
ATOM     23  O   UNL     1       4.850   3.056  17.116  0.00  0.00    +0.000 OA
BRANCH  23  25
ATOM     24  O   UNL     1       5.037   4.235  15.103  0.00  0.00    +0.000 OA
ATOM     25  C   UNL     1       5.291   4.085  16.290  0.00  0.00    +0.000 C 
BRANCH  25  26
ATOM     26  C   UNL     1       6.173   5.029  17.036  0.00  0.00    +0.000 A 
ATOM     27  C   UNL     1       6.102   6.393  16.703  0.00  0.00    +0.000 A 
ATOM     28  C   UNL     1       6.926   7.325  17.338  0.00  0.00    +0.000 A 
ATOM     29  C   UNL     1       7.825   6.903  18.313  0.00  0.00    +0.000 A 
ATOM     30  C   UNL     1       7.893   5.554  18.663  0.00  0.00    +0.000 A 
ATOM     31  C   UNL     1       7.068   4.617  18.030  0.00  0.00    +0.000 A 
ENDBRANCH  25  26
ENDBRANCH  23  25
ENDBRANCH  17  23
ENDBRANCH   1  21
TORSDOF 7
ENDMDL
MODEL 6
REMARK VINA RESULT:      -8.4      2.550      7.921
REMARK  Name = 
REMARK  7 active torsions:
REMARK  status: ('A' for Active; 'I' for Inactive)
REMARK    1  A    between atoms: C_2  and  O_3
REMARK    2  A    between atoms: C_2  and  C_26
REMARK    3  A    between atoms: O_3  and  C_4
REMARK    4  A    between atoms: C_8  and  C_9
REMARK    5  A    between atoms: C_9  and  N_10
REMARK    6  A    between atoms: N_15  and  C_16
REMARK    7  A    between atoms: C_16  and  C_17
REMARK                            x       y       z     vdW  Elec       q    Type
REMARK                         _______ _______ _______ _____ _____    ______ ____
ROOT
ATOM      1  C   UNL     1       4.806   3.148  19.253  0.00  0.00    +0.000 C 
ENDROOT
BRANCH   1   2
ATOM      2  N   UNL     1       5.520   4.202  18.529  0.00  0.00    +0.000 N 
ATOM      3  C   UNL     1       6.585   4.833  19.129  0.00  0.00    +0.000 A 
ATOM      4  C   UNL     1       7.283   5.780  18.504  0.00  0.00    +0.000 A 
ATOM      5  C   UNL     1       6.923   6.152  17.126  0.00  0.00    +0.000 A 
ATOM      6  O   UNL     1       7.594   7.013  16.560  0.00  0.00    +0.000 OA
ATOM      7  N   UNL     1       5.821   5.515  16.588  0.00  0.00    +0.000 N 
ATOM      8  C   UNL     1       5.072   4.545  17.253  0.00  0.00    +0.000 A 
ATOM      9  O   UNL     1       4.059   4.041  16.765  0.00  0.00    +0.000 OA
BRANCH   7  10
ATOM     10  C   UNL     1       5.370   5.941  15.276  0.00  0.00    +0.000 C 
BRANCH  10  11
ATOM     11  C   UNL     1       5.902   5.096  14.136  0.00  0.00    +0.000 A 
ATOM     12  C   UNL     1       7.203   5.295  13.651  0.00  0.00    +0.000 A 
ATOM     13  C   UNL     1       7.726   4.465  12.659  0.00  0.00    +0.000 A 
ATOM     14  C   UNL     1       6.953   3.432  12.137  0.00  0.00    +0.000 A 
ATOM     15  C   UNL     1       5.648   3.243  12.588  0.00  0.00    +0.000 A 
ATOM     16  C   UNL     1       5.120   4.077  13.577  0.00  0.00    +0.000 A 
ENDBRANCH  10  11
ENDBRANCH   7  10
ENDBRANCH   1   2
BRANCH   1  21
ATOM     17  C   UNL     1       1.792   5.171  20.471  0.00  0.00    +0.000 A 
ATOM     18  C   UNL     1       0.768   4.232  20.371  0.00  0.00    +0.000 A 
ATOM     19  C   UNL     1       1.042   2.963  19.860  0.00  0.00    +0.000 A 
ATOM     20  C   UNL     1       2.343   2.621  19.484  0.00  0.00    +0.000 A 
ATOM     21  C   UNL     1       3.391   3.542  19.627  0.00  0.00    +0.000 A 
ATOM     22  C   UNL     1       3.101   4.827  20.118  0.00  0.00    +0.000 A 
BRANCH  17  23
ATOM     23  O   UNL     1       1.598   6.478  20.983  0.00  0.00    +0.000 OA
BRANCH  23  25
ATOM     24  O   UNL     1       2.345   7.703  19.135  0.00  0.00    +0.000 OA
ATOM     25  C   UNL     1       1.723   7.610  20.183  0.00  0.00    +0.000 C 
BRANCH  25  26
ATOM     26  C   UNL     1       1.001   8.770  20.780  0.00  0.00    +0.000 A 
ATOM     27  C   UNL     1       0.819   8.782  22.175  0.00  0.00    +0.000 A 
ATOM     28  C   UNL     1       0.120   9.820  22.794  0.00  0.00    +0.000 A 
ATOM     29  C   UNL     1      -0.401  10.858  22.026  0.00  0.00    +0.000 A 
ATOM     30  C   UNL     1      -0.214  10.865  20.643  0.00  0.00    +0.000 A 
ATOM     31  C   UNL     1       0.487   9.826  20.020  0.00  0.00    +0.000 A 
ENDBRANCH  25  26
ENDBRANCH  23  25
ENDBRANCH  17  23
ENDBRANCH   1  21
TORSDOF 7
ENDMDL
MODEL 7
REMARK VINA RESULT:      -8.3      2.181      3.667
REMARK  Name = 
REMARK  7 active torsions:
REMARK  status: ('A' for Active; 'I' for Inactive)
REMARK    1  A    between atoms: C_2  and  O_3
REMARK    2  A    between atoms: C_2  and  C_26
REMARK    3  A    between atoms: O_3  and  C_4
REMARK    4  A    between atoms: C_8  and  C_9
REMARK    5  A    between atoms: C_9  and  N_10
REMARK    6  A    between atoms: N_15  and  C_16
REMARK    7  A    between atoms: C_16  and  C_17
REMARK                            x       y       z     vdW  Elec       q    Type
REMARK                         _______ _______ _______ _____ _____    ______ ____
ROOT
ATOM      1  C   UNL     1       1.952   9.677  18.256  0.00  0.00    +0.000 C 
ENDROOT
BRANCH   1   2
ATOM      2  N   UNL     1       0.585  10.203  18.286  0.00  0.00    +0.000 N 
ATOM      3  C   UNL     1      -0.392   9.593  17.534  0.00  0.00    +0.000 A 
ATOM      4  C   UNL     1      -1.655  10.016  17.547  0.00  0.00    +0.000 A 
ATOM      5  C   UNL     1      -2.027  11.155  18.404  0.00  0.00    +0.000 A 
ATOM      6  O   UNL     1      -3.202  11.515  18.416  0.00  0.00    +0.000 OA
ATOM      7  N   UNL     1      -0.998  11.753  19.106  0.00  0.00    +0.000 N 
ATOM      8  C   UNL     1       0.329  11.328  19.069  0.00  0.00    +0.000 A 
ATOM      9  O   UNL     1       1.231  11.924  19.662  0.00  0.00    +0.000 OA
BRANCH   7  10
ATOM     10  C   UNL     1      -1.309  12.949  19.869  0.00  0.00    +0.000 C 
BRANCH  10  11
ATOM     11  C   UNL     1      -2.056  12.680  21.159  0.00  0.00    +0.000 A 
ATOM     12  C   UNL     1      -1.461  11.928  22.182  0.00  0.00    +0.000 A 
ATOM     13  C   UNL     1      -2.111  11.749  23.403  0.00  0.00    +0.000 A 
ATOM     14  C   UNL     1      -3.367  12.314  23.613  0.00  0.00    +0.000 A 
ATOM     15  C   UNL     1      -3.983  13.036  22.593  0.00  0.00    +0.000 A 
ATOM     16  C   UNL     1      -3.336  13.212  21.368  0.00  0.00    +0.000 A 
ENDBRANCH  10  11
ENDBRANCH   7  10
ENDBRANCH   1   2
BRANCH   1  21
ATOM     17  C   UNL     1       2.545   5.899  18.440  0.00  0.00    +0.000 A 
ATOM     18  C   UNL     1       2.173   5.623  19.754  0.00  0.00    +0.000 A 
ATOM     19  C   UNL     1       1.781   6.666  20.594  0.00  0.00    +0.000 A 
ATOM     20  C   UNL     1       1.727   7.976  20.113  0.00  0.00    +0.000 A 
ATOM     21  C   UNL     1       2.051   8.258  18.778  0.00  0.00    +0.000 A 
ATOM     22  C   UNL     1       2.470   7.205  17.945  0.00  0.00    +0.000 A 
BRANCH  17  23
ATOM     23  O   UNL     1       2.950   4.898  17.522  0.00  0.00    +0.000 OA
BRANCH  23  25
ATOM     24  O   UNL     1       4.055   2.859  17.832  0.00  0.00    +0.000 OA
ATOM     25  C   UNL     1       4.049   4.079  17.762  0.00  0.00    +0.000 C 
BRANCH  25  26
ATOM     26  C   UNL     1       5.286   4.889  17.958  0.00  0.00    +0.000 A 
ATOM     27  C   UNL     1       5.800   5.581  16.847  0.00  0.00    +0.000 A 
ATOM     28  C   UNL     1       6.975   6.329  16.953  0.00  0.00    +0.000 A 
ATOM     29  C   UNL     1       7.645   6.394  18.171  0.00  0.00    +0.000 A 
ATOM     30  C   UNL     1       7.137   5.724  19.285  0.00  0.00    +0.000 A 
ATOM     31  C   UNL     1       5.959   4.975  19.182  0.00  0.00    +0.000 A 
ENDBRANCH  25  26
ENDBRANCH  23  25
ENDBRANCH  17  23
ENDBRANCH   1  21
TORSDOF 7
ENDMDL
MODEL 8
REMARK VINA RESULT:      -8.3      1.473      4.007
REMARK  Name = 
REMARK  7 active torsions:
REMARK  status: ('A' for Active; 'I' for Inactive)
REMARK    1  A    between atoms: C_2  and  O_3
REMARK    2  A    between atoms: C_2  and  C_26
REMARK    3  A    between atoms: O_3  and  C_4
REMARK    4  A    between atoms: C_8  and  C_9
REMARK    5  A    between atoms: C_9  and  N_10
REMARK    6  A    between atoms: N_15  and  C_16
REMARK    7  A    between atoms: C_16  and  C_17
REMARK                            x       y       z     vdW  Elec       q    Type
REMARK                         _______ _______ _______ _____ _____    ______ ____
ROOT
ATOM      1  C   UNL     1       3.326   7.689  17.157  0.00  0.00    +0.000 C 
ENDROOT
BRANCH   1   2
ATOM      2  N   UNL     1       2.519   8.100  18.307  0.00  0.00    +0.000 N 
ATOM      3  C   UNL     1       2.343   7.229  19.357  0.00  0.00    +0.000 A 
ATOM      4  C   UNL     1       1.640   7.563  20.438  0.00  0.00    +0.000 A 
ATOM      5  C   UNL     1       1.048   8.909  20.527  0.00  0.00    +0.000 A 
ATOM      6  O   UNL     1       0.420   9.204  21.541  0.00  0.00    +0.000 OA
ATOM      7  N   UNL     1       1.222   9.727  19.427  0.00  0.00    +0.000 N 
ATOM      8  C   UNL     1       1.934   9.366  18.284  0.00  0.00    +0.000 A 
ATOM      9  O   UNL     1       2.018  10.100  17.297  0.00  0.00    +0.000 OA
BRANCH   7  10
ATOM     10  C   UNL     1       0.554  11.016  19.433  0.00  0.00    +0.000 C 
BRANCH  10  11
ATOM     11  C   UNL     1      -0.847  10.988  18.858  0.00  0.00    +0.000 A 
ATOM     12  C   UNL     1      -1.218   9.998  17.937  0.00  0.00    +0.000 A 
ATOM     13  C   UNL     1      -2.529   9.918  17.469  0.00  0.00    +0.000 A 
ATOM     14  C   UNL     1      -3.484  10.830  17.911  0.00  0.00    +0.000 A 
ATOM     15  C   UNL     1      -3.120  11.839  18.802  0.00  0.00    +0.000 A 
ATOM     16  C   UNL     1      -1.807  11.924  19.267  0.00  0.00    +0.000 A 
ENDBRANCH  10  11
ENDBRANCH   7  10
ENDBRANCH   1   2
BRANCH   1  21
ATOM     17  C   UNL     1       4.766   4.172  17.621  0.00  0.00    +0.000 A 
ATOM     18  C   UNL     1       6.031   4.454  18.130  0.00  0.00    +0.000 A 
ATOM     19  C   UNL     1       6.437   5.781  18.274  0.00  0.00    +0.000 A 
ATOM     20  C   UNL     1       5.569   6.823  17.942  0.00  0.00    +0.000 A 
ATOM     21  C   UNL     1       4.274   6.551  17.476  0.00  0.00    +0.000 A 
ATOM     22  C   UNL     1       3.882   5.211  17.310  0.00  0.00    +0.000 A 
BRANCH  17  23
ATOM     23  O   UNL     1       4.275   2.853  17.449  0.00  0.00    +0.000 OA
BRANCH  23  25
ATOM     24  O   UNL     1       2.158   2.064  16.841  0.00  0.00    +0.000 OA
ATOM     25  C   UNL     1       2.938   2.530  17.658  0.00  0.00    +0.000 C 
BRANCH  25  26
ATOM     26  C   UNL     1       2.523   2.850  19.055  0.00  0.00    +0.000 A 
ATOM     27  C   UNL     1       3.328   2.371  20.104  0.00  0.00    +0.000 A 
ATOM     28  C   UNL     1       2.977   2.604  21.435  0.00  0.00    +0.000 A 
ATOM     29  C   UNL     1       1.820   3.321  21.731  0.00  0.00    +0.000 A 
ATOM     30  C   UNL     1       1.022   3.815  20.698  0.00  0.00    +0.000 A 
ATOM     31  C   UNL     1       1.371   3.584  19.362  0.00  0.00    +0.000 A 
ENDBRANCH  25  26
ENDBRANCH  23  25
ENDBRANCH  17  23
ENDBRANCH   1  21
TORSDOF 7
ENDMDL
MODEL 9
REMARK VINA RESULT:      -8.2      2.059      3.456
REMARK  Name = 
REMARK  7 active torsions:
REMARK  status: ('A' for Active; 'I' for Inactive)
REMARK    1  A    between atoms: C_2  and  O_3
REMARK    2  A    between atoms: C_2  and  C_26
REMARK    3  A    between atoms: O_3  and  C_4
REMARK    4  A    between atoms: C_8  and  C_9
REMARK    5  A    between atoms: C_9  and  N_10
REMARK    6  A    between atoms: N_15  and  C_16
REMARK    7  A    between atoms: C_16  and  C_17
REMARK                            x       y       z     vdW  Elec       q    Type
REMARK                         _______ _______ _______ _____ _____    ______ ____
ROOT
ATOM      1  C   UNL     1       1.898   9.448  18.078  0.00  0.00    +0.000 C 
ENDROOT
BRANCH   1   2
ATOM      2  N   UNL     1       0.561  10.044  18.116  0.00  0.00    +0.000 N 
ATOM      3  C   UNL     1      -0.447   9.494  17.359  0.00  0.00    +0.000 A 
ATOM      4  C   UNL     1      -1.687   9.982  17.378  0.00  0.00    +0.000 A 
ATOM      5  C   UNL     1      -1.998  11.130  18.247  0.00  0.00    +0.000 A 
ATOM      6  O   UNL     1      -3.152  11.551  18.266  0.00  0.00    +0.000 OA
ATOM      7  N   UNL     1      -0.938  11.666  18.954  0.00  0.00    +0.000 N 
ATOM      8  C   UNL     1       0.365  11.173  18.912  0.00  0.00    +0.000 A 
ATOM      9  O   UNL     1       1.297  11.714  19.509  0.00  0.00    +0.000 OA
BRANCH   7  10
ATOM     10  C   UNL     1      -1.186  12.868  19.730  0.00  0.00    +0.000 C 
BRANCH  10  11
ATOM     11  C   UNL     1      -1.903  12.619  21.042  0.00  0.00    +0.000 A 
ATOM     12  C   UNL     1      -1.334  11.787  22.016  0.00  0.00    +0.000 A 
ATOM     13  C   UNL     1      -1.950  11.622  23.257  0.00  0.00    +0.000 A 
ATOM     14  C   UNL     1      -3.146  12.281  23.534  0.00  0.00    +0.000 A 
ATOM     15  C   UNL     1      -3.737  13.085  22.562  0.00  0.00    +0.000 A 
ATOM     16  C   UNL     1      -3.125  13.247  21.318  0.00  0.00    +0.000 A 
ENDBRANCH  10  11
ENDBRANCH   7  10
ENDBRANCH   1   2
BRANCH   1  21
ATOM     17  C   UNL     1       2.430   5.740  18.872  0.00  0.00    +0.000 A 
ATOM     18  C   UNL     1       2.070   5.690  20.217  0.00  0.00    +0.000 A 
ATOM     19  C   UNL     1       1.707   6.863  20.879  0.00  0.00    +0.000 A 
ATOM     20  C   UNL     1       1.670   8.077  20.191  0.00  0.00    +0.000 A 
ATOM     21  C   UNL     1       1.980   8.132  18.824  0.00  0.00    +0.000 A 
ATOM     22  C   UNL     1       2.371   6.950  18.171  0.00  0.00    +0.000 A 
BRANCH  17  23
ATOM     23  O   UNL     1       2.805   4.595  18.126  0.00  0.00    +0.000 OA
BRANCH  23  25
ATOM     24  O   UNL     1       4.113   3.087  19.346  0.00  0.00    +0.000 OA
ATOM     25  C   UNL     1       3.955   3.868  18.420  0.00  0.00    +0.000 C 
BRANCH  25  26
ATOM     26  C   UNL     1       5.044   4.174  17.447  0.00  0.00    +0.000 A 
ATOM     27  C   UNL     1       6.311   4.501  17.964  0.00  0.00    +0.000 A 
ATOM     28  C   UNL     1       7.365   4.833  17.110  0.00  0.00    +0.000 A 
ATOM     29  C   UNL     1       7.164   4.838  15.732  0.00  0.00    +0.000 A 
ATOM     30  C   UNL     1       5.916   4.500  15.207  0.00  0.00    +0.000 A 
ATOM     31  C   UNL     1       4.858   4.166  16.060  0.00  0.00    +0.000 A 
ENDBRANCH  25  26
ENDBRANCH  23  25
ENDBRANCH  17  23
ENDBRANCH   1  21
TORSDOF 7
ENDMDL
