MODEL 1
REMARK VINA RESULT:      -6.8      0.000      0.000
REMARK  Name = 
REMARK  7 active torsions:
REMARK  status: ('A' for Active; 'I' for Inactive)
REMARK    1  A    between atoms: C_1  and  N_2
REMARK    2  A    between atoms: C_6  and  C_7
REMARK    3  A    between atoms: C_7  and  C_8
REMARK    4  A    between atoms: C_8  and  C_9
REMARK    5  A    between atoms: N_11  and  C_12
REMARK    6  A    between atoms: C_12  and  C_13
REMARK    7  A    between atoms: C_13  and  C_14
REMARK                            x       y       z     vdW  Elec       q    Type
REMARK                         _______ _______ _______ _____ _____    ______ ____
ROOT
ATOM      1  C   UNL     1       4.126   5.276  16.804  0.00  0.00    +0.000 C 
ATOM      2  O   UNL     1       3.987   4.057  16.734  0.00  0.00    +0.000 OA
ATOM      3  N   UNL     1       4.873   6.007  15.909  0.00  0.00    +0.000 N 
ATOM      4  H   UNL     1       5.090   6.970  16.126  0.00  0.00    +0.000 HD
ENDROOT
BRANCH   1   5
ATOM      5  C   UNL     1       3.417   6.110  17.846  0.00  0.00    +0.000 C 
BRANCH   5   6
ATOM      6  C   UNL     1       2.143   5.428  18.351  0.00  0.00    +0.000 C 
BRANCH   6  12
ATOM      7  C   UNL     1       4.485   2.167  20.083  0.00  0.00    +0.000 C 
ATOM      8  N   UNL     1       3.286   2.924  19.719  0.00  0.00    +0.000 NA
ATOM      9  C   UNL     1       2.079   2.214  20.171  0.00  0.00    +0.000 C 
ATOM     10  C   UNL     1       0.799   2.977  19.821  0.00  0.00    +0.000 C 
ATOM     11  C   UNL     1       0.850   4.410  20.342  0.00  0.00    +0.000 C 
ATOM     12  C   UNL     1       2.124   5.128  19.871  0.00  0.00    +0.000 C 
ATOM     13  C   UNL     1       3.347   4.281  20.283  0.00  0.00    +0.000 C 
ENDBRANCH   6  12
ENDBRANCH   5   6
ENDBRANCH   1   5
BRANCH   3  14
ATOM     14  C   UNL     1       5.595   5.367  14.823  0.00  0.00    +0.000 C 
BRANCH  14  15
ATOM     15  C   UNL     1       7.013   4.961  15.225  0.00  0.00    +0.000 C 
BRANCH  15  16
ATOM     16  C   UNL     1       7.351   5.430  16.610  0.00  0.00    +0.000 A 
ATOM     17  C   UNL     1       7.508   4.523  17.656  0.00  0.00    +0.000 A 
ATOM     18  N   UNL     1       7.837   4.902  18.913  0.00  0.00    +0.000 NA
ATOM     19  C   UNL     1       8.001   6.232  19.091  0.00  0.00    +0.000 A 
ATOM     20  C   UNL     1       7.844   7.140  18.059  0.00  0.00    +0.000 A 
ATOM     21  N   UNL     1       7.520   6.764  16.801  0.00  0.00    +0.000 NA
ENDBRANCH  15  16
ENDBRANCH  14  15
ENDBRANCH   3  14
TORSDOF 6
ENDMDL
MODEL 2
REMARK VINA RESULT:      -6.7      3.863      5.353
REMARK  Name = 
REMARK  7 active torsions:
REMARK  status: ('A' for Active; 'I' for Inactive)
REMARK    1  A    between atoms: C_1  and  N_2
REMARK    2  A    between atoms: C_6  and  C_7
REMARK    3  A    between atoms: C_7  and  C_8
REMARK    4  A    between atoms: C_8  and  C_9
REMARK    5  A    between atoms: N_11  and  C_12
REMARK    6  A    between atoms: C_12  and  C_13
REMARK    7  A    between atoms: C_13  and  C_14
REMARK                            x       y       z     vdW  Elec       q    Type
REMARK                         _______ _______ _______ _____ _____    ______ ____
ROOT
ATOM      1  C   UNL     1       7.623   7.034  17.861  0.00  0.00    +0.000 C 
ATOM      2  O   UNL     1       6.935   7.389  16.907  0.00  0.00    +0.000 OA
ATOM      3  N   UNL     1       8.382   7.901  18.613  0.00  0.00    +0.000 N 
ATOM      4  H   UNL     1       9.056   7.522  19.263  0.00  0.00    +0.000 HD
ENDROOT
BRANCH   1   5
ATOM      5  C   UNL     1       7.640   5.606  18.355  0.00  0.00    +0.000 C 
BRANCH   5   6
ATOM      6  C   UNL     1       6.353   4.862  17.992  0.00  0.00    +0.000 C 
BRANCH   6  12
ATOM      7  C   UNL     1       3.406   1.646  18.298  0.00  0.00    +0.000 C 
ATOM      8  N   UNL     1       3.901   3.012  18.114  0.00  0.00    +0.000 NA
ATOM      9  C   UNL     1       2.780   3.931  17.866  0.00  0.00    +0.000 C 
ATOM     10  C   UNL     1       3.253   5.375  17.680  0.00  0.00    +0.000 C 
ATOM     11  C   UNL     1       4.118   5.829  18.852  0.00  0.00    +0.000 C 
ATOM     12  C   UNL     1       5.272   4.849  19.103  0.00  0.00    +0.000 C 
ATOM     13  C   UNL     1       4.685   3.433  19.286  0.00  0.00    +0.000 C 
ENDBRANCH   6  12
ENDBRANCH   5   6
ENDBRANCH   1   5
BRANCH   3  14
ATOM     14  C   UNL     1       8.452   9.318  18.297  0.00  0.00    +0.000 C 
BRANCH  14  15
ATOM     15  C   UNL     1       9.244  10.108  19.339  0.00  0.00    +0.000 C 
BRANCH  15  16
ATOM     16  C   UNL     1      10.017  11.231  18.711  0.00  0.00    +0.000 A 
ATOM     17  C   UNL     1       9.399  12.132  17.847  0.00  0.00    +0.000 A 
ATOM     18  N   UNL     1      10.054  13.172  17.280  0.00  0.00    +0.000 NA
ATOM     19  C   UNL     1      11.361  13.279  17.607  0.00  0.00    +0.000 A 
ATOM     20  C   UNL     1      11.984  12.387  18.462  0.00  0.00    +0.000 A 
ATOM     21  N   UNL     1      11.331  11.350  19.033  0.00  0.00    +0.000 NA
ENDBRANCH  15  16
ENDBRANCH  14  15
ENDBRANCH   3  14
TORSDOF 6
ENDMDL
MODEL 3
REMARK VINA RESULT:      -6.6      1.940      3.138
REMARK  Name = 
REMARK  7 active torsions:
REMARK  status: ('A' for Active; 'I' for Inactive)
REMARK    1  A    between atoms: C_1  and  N_2
REMARK    2  A    between atoms: C_6  and  C_7
REMARK    3  A    between atoms: C_7  and  C_8
REMARK    4  A    between atoms: C_8  and  C_9
REMARK    5  A    between atoms: N_11  and  C_12
REMARK    6  A    between atoms: C_12  and  C_13
REMARK    7  A    between atoms: C_13  and  C_14
REMARK                            x       y       z     vdW  Elec       q    Type
REMARK                         _______ _______ _______ _____ _____    ______ ____
ROOT
ATOM      1  C   UNL     1       2.233   6.575  19.795  0.00  0.00    +0.000 C 
ATOM      2  O   UNL     1       2.104   7.768  20.059  0.00  0.00    +0.000 OA
ATOM      3  N   UNL     1       2.819   6.114  18.637  0.00  0.00    +0.000 N 
ATOM      4  H   UNL     1       2.732   5.135  18.403  0.00  0.00    +0.000 HD
ENDROOT
BRANCH   1   5
ATOM      5  C   UNL     1       1.829   5.485  20.761  0.00  0.00    +0.000 C 
BRANCH   5   6
ATOM      6  C   UNL     1       1.054   4.365  20.064  0.00  0.00    +0.000 C 
BRANCH   6  12
ATOM      7  C   UNL     1       5.274   3.475  19.349  0.00  0.00    +0.000 C 
ATOM      8  N   UNL     1       3.825   3.389  19.162  0.00  0.00    +0.000 NA
ATOM      9  C   UNL     1       3.508   2.449  18.075  0.00  0.00    +0.000 C 
ATOM     10  C   UNL     1       1.999   2.318  17.853  0.00  0.00    +0.000 C 
ATOM     11  C   UNL     1       1.278   1.960  19.148  0.00  0.00    +0.000 C 
ATOM     12  C   UNL     1       1.634   2.943  20.273  0.00  0.00    +0.000 C 
ATOM     13  C   UNL     1       3.170   2.989  20.418  0.00  0.00    +0.000 C 
ENDBRANCH   6  12
ENDBRANCH   5   6
ENDBRANCH   1   5
BRANCH   3  14
ATOM     14  C   UNL     1       3.296   7.028  17.613  0.00  0.00    +0.000 C 
BRANCH  14  15
ATOM     15  C   UNL     1       4.816   7.196  17.645  0.00  0.00    +0.000 C 
BRANCH  15  16
ATOM     16  C   UNL     1       5.509   6.117  16.865  0.00  0.00    +0.000 A 
ATOM     17  C   UNL     1       6.897   5.998  16.884  0.00  0.00    +0.000 A 
ATOM     18  N   UNL     1       7.559   5.025  16.215  0.00  0.00    +0.000 NA
ATOM     19  C   UNL     1       6.778   4.170  15.518  0.00  0.00    +0.000 A 
ATOM     20  C   UNL     1       5.399   4.282  15.491  0.00  0.00    +0.000 A 
ATOM     21  N   UNL     1       4.735   5.251  16.162  0.00  0.00    +0.000 NA
ENDBRANCH  15  16
ENDBRANCH  14  15
ENDBRANCH   3  14
TORSDOF 6
ENDMDL
MODEL 4
REMARK VINA RESULT:      -6.6      3.938      5.385
REMARK  Name = 
REMARK  7 active torsions:
REMARK  status: ('A' for Active; 'I' for Inactive)
REMARK    1  A    between atoms: C_1  and  N_2
REMARK    2  A    between atoms: C_6  and  C_7
REMARK    3  A    between atoms: C_7  and  C_8
REMARK    4  A    between atoms: C_8  and  C_9
REMARK    5  A    between atoms: N_11  and  C_12
REMARK    6  A    between atoms: C_12  and  C_13
REMARK    7  A    between atoms: C_13  and  C_14
REMARK                            x       y       z     vdW  Elec       q    Type
REMARK                         _______ _______ _______ _____ _____    ______ ____
ROOT
ATOM      1  C   UNL     1       7.780   7.061  17.909  0.00  0.00    +0.000 C 
ATOM      2  O   UNL     1       7.268   7.386  16.841  0.00  0.00    +0.000 OA
ATOM      3  N   UNL     1       8.448   7.942  18.729  0.00  0.00    +0.000 N 
ATOM      4  H   UNL     1       8.994   7.575  19.497  0.00  0.00    +0.000 HD
ENDROOT
BRANCH   1   5
ATOM      5  C   UNL     1       7.658   5.663  18.469  0.00  0.00    +0.000 C 
BRANCH   5   6
ATOM      6  C   UNL     1       6.340   4.999  18.063  0.00  0.00    +0.000 C 
BRANCH   6  12
ATOM      7  C   UNL     1       3.481   1.702  18.329  0.00  0.00    +0.000 C 
ATOM      8  N   UNL     1       3.939   3.084  18.168  0.00  0.00    +0.000 NA
ATOM      9  C   UNL     1       2.792   3.978  17.946  0.00  0.00    +0.000 C 
ATOM     10  C   UNL     1       3.225   5.437  17.784  0.00  0.00    +0.000 C 
ATOM     11  C   UNL     1       4.088   5.891  18.958  0.00  0.00    +0.000 C 
ATOM     12  C   UNL     1       5.270   4.936  19.181  0.00  0.00    +0.000 C 
ATOM     13  C   UNL     1       4.721   3.503  19.342  0.00  0.00    +0.000 C 
ENDBRANCH   6  12
ENDBRANCH   5   6
ENDBRANCH   1   5
BRANCH   3  14
ATOM     14  C   UNL     1       8.628   9.335  18.359  0.00  0.00    +0.000 C 
BRANCH  14  15
ATOM     15  C   UNL     1       9.481  10.101  19.371  0.00  0.00    +0.000 C 
BRANCH  15  16
ATOM     16  C   UNL     1      10.123  11.308  18.753  0.00  0.00    +0.000 A 
ATOM     17  C   UNL     1      11.475  11.581  18.951  0.00  0.00    +0.000 A 
ATOM     18  N   UNL     1      12.098  12.644  18.392  0.00  0.00    +0.000 NA
ATOM     19  C   UNL     1      11.316  13.433  17.623  0.00  0.00    +0.000 A 
ATOM     20  C   UNL     1       9.972  13.172  17.423  0.00  0.00    +0.000 A 
ATOM     21  N   UNL     1       9.348  12.108  17.977  0.00  0.00    +0.000 NA
ENDBRANCH  15  16
ENDBRANCH  14  15
ENDBRANCH   3  14
TORSDOF 6
ENDMDL
MODEL 5
REMARK VINA RESULT:      -6.6      2.135      3.374
REMARK  Name = 
REMARK  7 active torsions:
REMARK  status: ('A' for Active; 'I' for Inactive)
REMARK    1  A    between atoms: C_1  and  N_2
REMARK    2  A    between atoms: C_6  and  C_7
REMARK    3  A    between atoms: C_7  and  C_8
REMARK    4  A    between atoms: C_8  and  C_9
REMARK    5  A    between atoms: N_11  and  C_12
REMARK    6  A    between atoms: C_12  and  C_13
REMARK    7  A    between atoms: C_13  and  C_14
REMARK                            x       y       z     vdW  Elec       q    Type
REMARK                         _______ _______ _______ _____ _____    ______ ____
ROOT
ATOM      1  C   UNL     1       4.712   6.389  17.018  0.00  0.00    +0.000 C 
ATOM      2  O   UNL     1       5.021   6.954  15.972  0.00  0.00    +0.000 OA
ATOM      3  N   UNL     1       5.387   5.299  17.519  0.00  0.00    +0.000 N 
ATOM      4  H   UNL     1       4.975   4.778  18.282  0.00  0.00    +0.000 HD
ENDROOT
BRANCH   1   5
ATOM      5  C   UNL     1       3.597   6.890  17.907  0.00  0.00    +0.000 C 
BRANCH   5   6
ATOM      6  C   UNL     1       3.232   5.873  18.991  0.00  0.00    +0.000 C 
BRANCH   6  12
ATOM      7  C   UNL     1       1.895   2.653  21.628  0.00  0.00    +0.000 C 
ATOM      8  N   UNL     1       2.303   3.292  20.376  0.00  0.00    +0.000 NA
ATOM      9  C   UNL     1       2.290   2.313  19.277  0.00  0.00    +0.000 C 
ATOM     10  C   UNL     1       2.699   2.943  17.944  0.00  0.00    +0.000 C 
ATOM     11  C   UNL     1       1.850   4.170  17.627  0.00  0.00    +0.000 C 
ATOM     12  C   UNL     1       1.865   5.171  18.792  0.00  0.00    +0.000 C 
ATOM     13  C   UNL     1       1.428   4.437  20.078  0.00  0.00    +0.000 C 
ENDBRANCH   6  12
ENDBRANCH   5   6
ENDBRANCH   1   5
BRANCH   3  14
ATOM     14  C   UNL     1       6.508   4.709  16.809  0.00  0.00    +0.000 C 
BRANCH  14  15
ATOM     15  C   UNL     1       6.059   3.739  15.715  0.00  0.00    +0.000 C 
BRANCH  15  16
ATOM     16  C   UNL     1       6.599   4.132  14.371  0.00  0.00    +0.000 A 
ATOM     17  C   UNL     1       6.163   3.497  13.210  0.00  0.00    +0.000 A 
ATOM     18  N   UNL     1       6.606   3.838  11.977  0.00  0.00    +0.000 NA
ATOM     19  C   UNL     1       7.510   4.842  11.945  0.00  0.00    +0.000 A 
ATOM     20  C   UNL     1       7.951   5.476  13.093  0.00  0.00    +0.000 A 
ATOM     21  N   UNL     1       7.507   5.141  14.326  0.00  0.00    +0.000 NA
ENDBRANCH  15  16
ENDBRANCH  14  15
ENDBRANCH   3  14
TORSDOF 6
ENDMDL
MODEL 6
REMARK VINA RESULT:      -6.5      4.271      5.830
REMARK  Name = 
REMARK  7 active torsions:
REMARK  status: ('A' for Active; 'I' for Inactive)
REMARK    1  A    between atoms: C_1  and  N_2
REMARK    2  A    between atoms: C_6  and  C_7
REMARK    3  A    between atoms: C_7  and  C_8
REMARK    4  A    between atoms: C_8  and  C_9
REMARK    5  A    between atoms: N_11  and  C_12
REMARK    6  A    between atoms: C_12  and  C_13
REMARK    7  A    between atoms: C_13  and  C_14
REMARK                            x       y       z     vdW  Elec       q    Type
REMARK                         _______ _______ _______ _____ _____    ______ ____
ROOT
ATOM      1  C   UNL     1       8.001   7.521  18.131  0.00  0.00    +0.000 C 
ATOM      2  O   UNL     1       7.542   7.820  17.032  0.00  0.00    +0.000 OA
ATOM      3  N   UNL     1       8.675   8.409  18.939  0.00  0.00    +0.000 N 
ATOM      4  H   UNL     1       9.178   8.054  19.741  0.00  0.00    +0.000 HD
ENDROOT
BRANCH   1   5
ATOM      5  C   UNL     1       7.800   6.154  18.744  0.00  0.00    +0.000 C 
BRANCH   5   6
ATOM      6  C   UNL     1       6.835   5.297  17.922  0.00  0.00    +0.000 C 
BRANCH   6  12
ATOM      7  C   UNL     1       4.259   2.457  20.021  0.00  0.00    +0.000 C 
ATOM      8  N   UNL     1       4.738   3.279  18.909  0.00  0.00    +0.000 NA
ATOM      9  C   UNL     1       3.889   3.078  17.724  0.00  0.00    +0.000 C 
ATOM     10  C   UNL     1       4.348   3.929  16.538  0.00  0.00    +0.000 C 
ATOM     11  C   UNL     1       4.456   5.401  16.923  0.00  0.00    +0.000 C 
ATOM     12  C   UNL     1       5.333   5.587  18.170  0.00  0.00    +0.000 C 
ATOM     13  C   UNL     1       4.777   4.696  19.301  0.00  0.00    +0.000 C 
ENDBRANCH   6  12
ENDBRANCH   5   6
ENDBRANCH   1   5
BRANCH   3  14
ATOM     14  C   UNL     1       8.927   9.776  18.518  0.00  0.00    +0.000 C 
BRANCH  14  15
ATOM     15  C   UNL     1       9.470  10.644  19.654  0.00  0.00    +0.000 C 
BRANCH  15  16
ATOM     16  C   UNL     1      10.406  11.702  19.144  0.00  0.00    +0.000 A 
ATOM     17  C   UNL     1      11.450  12.176  19.934  0.00  0.00    +0.000 A 
ATOM     18  N   UNL     1      12.330  13.110  19.503  0.00  0.00    +0.000 NA
ATOM     19  C   UNL     1      12.126  13.559  18.245  0.00  0.00    +0.000 A 
ATOM     20  C   UNL     1      11.089  13.096  17.454  0.00  0.00    +0.000 A 
ATOM     21  N   UNL     1      10.211  12.160  17.881  0.00  0.00    +0.000 NA
ENDBRANCH  15  16
ENDBRANCH  14  15
ENDBRANCH   3  14
TORSDOF 6
ENDMDL
MODEL 7
REMARK VINA RESULT:      -6.5      4.268      8.433
REMARK  Name = 
REMARK  7 active torsions:
REMARK  status: ('A' for Active; 'I' for Inactive)
REMARK    1  A    between atoms: C_1  and  N_2
REMARK    2  A    between atoms: C_6  and  C_7
REMARK    3  A    between atoms: C_7  and  C_8
REMARK    4  A    between atoms: C_8  and  C_9
REMARK    5  A    between atoms: N_11  and  C_12
REMARK    6  A    between atoms: C_12  and  C_13
REMARK    7  A    between atoms: C_13  and  C_14
REMARK                            x       y       z     vdW  Elec       q    Type
REMARK                         _______ _______ _______ _____ _____    ______ ____
ROOT
ATOM      1  C   UNL     1       8.063   8.285  18.016  0.00  0.00    +0.000 C 
ATOM      2  O   UNL     1       8.539   7.501  18.834  0.00  0.00    +0.000 OA
ATOM      3  N   UNL     1       7.095   7.933  17.103  0.00  0.00    +0.000 N 
ATOM      4  H   UNL     1       6.880   8.571  16.349  0.00  0.00    +0.000 HD
ENDROOT
BRANCH   1   5
ATOM      5  C   UNL     1       8.441   9.747  17.986  0.00  0.00    +0.000 C 
BRANCH   5   6
ATOM      6  C   UNL     1       9.444  10.099  19.088  0.00  0.00    +0.000 C 
BRANCH   6  12
ATOM      7  C   UNL     1      11.246  13.266  16.671  0.00  0.00    +0.000 C 
ATOM      8  N   UNL     1      11.053  12.398  17.834  0.00  0.00    +0.000 NA
ATOM      9  C   UNL     1      12.041  12.718  18.877  0.00  0.00    +0.000 C 
ATOM     10  C   UNL     1      11.868  11.841  20.119  0.00  0.00    +0.000 C 
ATOM     11  C   UNL     1      10.437  11.904  20.646  0.00  0.00    +0.000 C 
ATOM     12  C   UNL     1       9.423  11.582  19.539  0.00  0.00    +0.000 C 
ATOM     13  C   UNL     1       9.680  12.526  18.345  0.00  0.00    +0.000 C 
ENDBRANCH   6  12
ENDBRANCH   5   6
ENDBRANCH   1   5
BRANCH   3  14
ATOM     14  C   UNL     1       6.592   6.573  17.018  0.00  0.00    +0.000 C 
BRANCH  14  15
ATOM     15  C   UNL     1       5.064   6.515  17.042  0.00  0.00    +0.000 C 
BRANCH  15  16
ATOM     16  C   UNL     1       4.568   5.262  17.703  0.00  0.00    +0.000 A 
ATOM     17  C   UNL     1       4.408   5.196  19.085  0.00  0.00    +0.000 A 
ATOM     18  N   UNL     1       3.941   4.094  19.718  0.00  0.00    +0.000 NA
ATOM     19  C   UNL     1       3.639   3.051  18.914  0.00  0.00    +0.000 A 
ATOM     20  C   UNL     1       3.797   3.106  17.540  0.00  0.00    +0.000 A 
ATOM     21  N   UNL     1       4.260   4.207  16.905  0.00  0.00    +0.000 NA
ENDBRANCH  15  16
ENDBRANCH  14  15
ENDBRANCH   3  14
TORSDOF 6
ENDMDL
MODEL 8
REMARK VINA RESULT:      -6.5      1.997      5.564
REMARK  Name = 
REMARK  7 active torsions:
REMARK  status: ('A' for Active; 'I' for Inactive)
REMARK    1  A    between atoms: C_1  and  N_2
REMARK    2  A    between atoms: C_6  and  C_7
REMARK    3  A    between atoms: C_7  and  C_8
REMARK    4  A    between atoms: C_8  and  C_9
REMARK    5  A    between atoms: N_11  and  C_12
REMARK    6  A    between atoms: C_12  and  C_13
REMARK    7  A    between atoms: C_13  and  C_14
REMARK                            x       y       z     vdW  Elec       q    Type
REMARK                         _______ _______ _______ _____ _____    ______ ____
ROOT
ATOM      1  C   UNL     1       2.290   7.190  19.046  0.00  0.00    +0.000 C 
ATOM      2  O   UNL     1       2.037   8.140  19.785  0.00  0.00    +0.000 OA
ATOM      3  N   UNL     1       2.114   5.876  19.415  0.00  0.00    +0.000 N 
ATOM      4  H   UNL     1       2.506   5.149  18.832  0.00  0.00    +0.000 HD
ENDROOT
BRANCH   1   5
ATOM      5  C   UNL     1       2.747   7.378  17.618  0.00  0.00    +0.000 C 
BRANCH   5   6
ATOM      6  C   UNL     1       4.209   6.968  17.430  0.00  0.00    +0.000 C 
BRANCH   6  12
ATOM      7  C   UNL     1       7.901   5.619  19.345  0.00  0.00    +0.000 C 
ATOM      8  N   UNL     1       6.903   5.759  18.283  0.00  0.00    +0.000 NA
ATOM      9  C   UNL     1       7.337   5.034  17.078  0.00  0.00    +0.000 C 
ATOM     10  C   UNL     1       6.315   5.144  15.943  0.00  0.00    +0.000 C 
ATOM     11  C   UNL     1       4.928   4.709  16.405  0.00  0.00    +0.000 C 
ATOM     12  C   UNL     1       4.501   5.465  17.671  0.00  0.00    +0.000 C 
ATOM     13  C   UNL     1       5.592   5.280  18.747  0.00  0.00    +0.000 C 
ENDBRANCH   6  12
ENDBRANCH   5   6
ENDBRANCH   1   5
BRANCH   3  14
ATOM     14  C   UNL     1       1.647   5.516  20.743  0.00  0.00    +0.000 C 
BRANCH  14  15
ATOM     15  C   UNL     1       1.384   4.016  20.881  0.00  0.00    +0.000 C 
BRANCH  15  16
ATOM     16  C   UNL     1       2.158   3.223  19.869  0.00  0.00    +0.000 A 
ATOM     17  C   UNL     1       3.374   2.631  20.200  0.00  0.00    +0.000 A 
ATOM     18  N   UNL     1       4.091   1.888  19.325  0.00  0.00    +0.000 NA
ATOM     19  C   UNL     1       3.546   1.758  18.096  0.00  0.00    +0.000 A 
ATOM     20  C   UNL     1       2.340   2.345  17.756  0.00  0.00    +0.000 A 
ATOM     21  N   UNL     1       1.619   3.085  18.630  0.00  0.00    +0.000 NA
ENDBRANCH  15  16
ENDBRANCH  14  15
ENDBRANCH   3  14
TORSDOF 6
ENDMDL
MODEL 9
REMARK VINA RESULT:      -6.5      4.037      8.221
REMARK  Name = 
REMARK  7 active torsions:
REMARK  status: ('A' for Active; 'I' for Inactive)
REMARK    1  A    between atoms: C_1  and  N_2
REMARK    2  A    between atoms: C_6  and  C_7
REMARK    3  A    between atoms: C_7  and  C_8
REMARK    4  A    between atoms: C_8  and  C_9
REMARK    5  A    between atoms: N_11  and  C_12
REMARK    6  A    between atoms: C_12  and  C_13
REMARK    7  A    between atoms: C_13  and  C_14
REMARK                            x       y       z     vdW  Elec       q    Type
REMARK                         _______ _______ _______ _____ _____    ______ ____
ROOT
ATOM      1  C   UNL     1       7.890   7.925  17.852  0.00  0.00    +0.000 C 
ATOM      2  O   UNL     1       8.372   7.265  18.770  0.00  0.00    +0.000 OA
ATOM      3  N   UNL     1       7.194   7.368  16.803  0.00  0.00    +0.000 N 
ATOM      4  H   UNL     1       6.982   7.943  15.998  0.00  0.00    +0.000 HD
ENDROOT
BRANCH   1   5
ATOM      5  C   UNL     1       7.948   9.434  17.827  0.00  0.00    +0.000 C 
BRANCH   5   6
ATOM      6  C   UNL     1       9.264   9.964  18.401  0.00  0.00    +0.000 C 
BRANCH   6  12
ATOM      7  C   UNL     1      11.300  13.402  16.626  0.00  0.00    +0.000 C 
ATOM      8  N   UNL     1      10.984  12.395  17.641  0.00  0.00    +0.000 NA
ATOM      9  C   UNL     1      11.844  12.574  18.822  0.00  0.00    +0.000 C 
ATOM     10  C   UNL     1      11.539  11.547  19.915  0.00  0.00    +0.000 C 
ATOM     11  C   UNL     1      10.057  11.550  20.279  0.00  0.00    +0.000 C 
ATOM     12  C   UNL     1       9.178  11.377  19.031  0.00  0.00    +0.000 C 
ATOM     13  C   UNL     1       9.560  12.464  18.004  0.00  0.00    +0.000 C 
ENDBRANCH   6  12
ENDBRANCH   5   6
ENDBRANCH   1   5
BRANCH   3  14
ATOM     14  C   UNL     1       7.014   5.931  16.688  0.00  0.00    +0.000 C 
BRANCH  14  15
ATOM     15  C   UNL     1       5.666   5.561  16.069  0.00  0.00    +0.000 C 
BRANCH  15  16
ATOM     16  C   UNL     1       4.536   5.778  17.032  0.00  0.00    +0.000 A 
ATOM     17  C   UNL     1       3.989   4.714  17.746  0.00  0.00    +0.000 A 
ATOM     18  N   UNL     1       2.986   4.870  18.642  0.00  0.00    +0.000 NA
ATOM     19  C   UNL     1       2.544   6.137  18.798  0.00  0.00    +0.000 A 
ATOM     20  C   UNL     1       3.078   7.200  18.091  0.00  0.00    +0.000 A 
ATOM     21  N   UNL     1       4.083   7.047  17.198  0.00  0.00    +0.000 NA
ENDBRANCH  15  16
ENDBRANCH  14  15
ENDBRANCH   3  14
TORSDOF 6
ENDMDL
