MODEL 1
REMARK VINA RESULT:      -5.6      0.000      0.000
REMARK  Name = 
REMARK  3 active torsions:
REMARK  status: ('A' for Active; 'I' for Inactive)
REMARK    1  A    between atoms: C_2  and  O_3
REMARK    2  A    between atoms: C_2  and  C_4
REMARK    3  A    between atoms: C_6  and  C_7
REMARK                            x       y       z     vdW  Elec       q    Type
REMARK                         _______ _______ _______ _____ _____    ______ ____
ROOT
ATOM      1  C   UNL     1       6.001   4.370  17.700  0.00  0.00    +0.000 A 
ATOM      2  C   UNL     1       4.872   4.124  16.884  0.00  0.00    +0.000 A 
ATOM      3  C   UNL     1       3.892   3.732  17.759  0.00  0.00    +0.000 A 
ATOM      4  O   UNL     1       4.397   3.731  19.023  0.00  0.00    +0.000 OA
ATOM      5  N   UNL     1       5.727   4.125  18.994  0.00  0.00    +0.000 NA
ENDROOT
BRANCH   3   6
ATOM      6  C   UNL     1       2.470   3.368  17.381  0.00  0.00    +0.000 C 
ATOM      7  C   UNL     1       1.466   3.144  18.492  0.00  0.00    +0.000 C 
ATOM      8  C   UNL     1       1.379   4.379  17.663  0.00  0.00    +0.000 C 
ENDBRANCH   3   6
BRANCH   1  10
ATOM      9  O   UNL     1       7.519   5.831  16.616  0.00  0.00    +0.000 OA
ATOM     10  C   UNL     1       7.322   4.832  17.294  0.00  0.00    +0.000 C 
BRANCH  10  11
ATOM     11  O   UNL     1       8.338   4.041  17.740  0.00  0.00    +0.000 OA
ATOM     12  H   UNL     1       9.189   4.508  17.588  0.00  0.00    +0.000 HD
ENDBRANCH  10  11
ENDBRANCH   1  10
TORSDOF 3
ENDMDL
MODEL 2
REMARK VINA RESULT:      -5.4      3.369      4.778
REMARK  Name = 
REMARK  3 active torsions:
REMARK  status: ('A' for Active; 'I' for Inactive)
REMARK    1  A    between atoms: C_2  and  O_3
REMARK    2  A    between atoms: C_2  and  C_4
REMARK    3  A    between atoms: C_6  and  C_7
REMARK                            x       y       z     vdW  Elec       q    Type
REMARK                         _______ _______ _______ _____ _____    ______ ____
ROOT
ATOM      1  C   UNL     1       6.693   4.614  15.931  0.00  0.00    +0.000 A 
ATOM      2  C   UNL     1       6.125   3.884  14.861  0.00  0.00    +0.000 A 
ATOM      3  C   UNL     1       6.712   4.407  13.737  0.00  0.00    +0.000 A 
ATOM      4  O   UNL     1       7.573   5.395  14.102  0.00  0.00    +0.000 OA
ATOM      5  N   UNL     1       7.562   5.537  15.482  0.00  0.00    +0.000 NA
ENDROOT
BRANCH   3   6
ATOM      6  C   UNL     1       6.451   3.950  12.315  0.00  0.00    +0.000 C 
ATOM      7  C   UNL     1       6.178   2.481  12.071  0.00  0.00    +0.000 C 
ATOM      8  C   UNL     1       5.060   3.461  11.971  0.00  0.00    +0.000 C 
ENDBRANCH   3   6
BRANCH   1  10
ATOM      9  O   UNL     1       5.328   4.460  17.862  0.00  0.00    +0.000 OA
ATOM     10  C   UNL     1       6.443   4.460  17.359  0.00  0.00    +0.000 C 
BRANCH  10  11
ATOM     11  O   UNL     1       7.578   4.313  18.099  0.00  0.00    +0.000 OA
ATOM     12  H   UNL     1       7.743   5.150  18.587  0.00  0.00    +0.000 HD
ENDBRANCH  10  11
ENDBRANCH   1  10
TORSDOF 3
ENDMDL
MODEL 3
REMARK VINA RESULT:      -5.4      2.097      2.793
REMARK  Name = 
REMARK  3 active torsions:
REMARK  status: ('A' for Active; 'I' for Inactive)
REMARK    1  A    between atoms: C_2  and  O_3
REMARK    2  A    between atoms: C_2  and  C_4
REMARK    3  A    between atoms: C_6  and  C_7
REMARK                            x       y       z     vdW  Elec       q    Type
REMARK                         _______ _______ _______ _____ _____    ______ ____
ROOT
ATOM      1  C   UNL     1       6.792   4.528  16.108  0.00  0.00    +0.000 A 
ATOM      2  C   UNL     1       5.540   4.516  16.767  0.00  0.00    +0.000 A 
ATOM      3  C   UNL     1       5.853   4.451  18.100  0.00  0.00    +0.000 A 
ATOM      4  O   UNL     1       7.206   4.416  18.240  0.00  0.00    +0.000 OA
ATOM      5  N   UNL     1       7.805   4.457  16.990  0.00  0.00    +0.000 NA
ENDROOT
BRANCH   3   6
ATOM      6  C   UNL     1       4.852   4.431  19.238  0.00  0.00    +0.000 C 
ATOM      7  C   UNL     1       3.409   4.100  18.920  0.00  0.00    +0.000 C 
ATOM      8  C   UNL     1       4.252   3.098  19.632  0.00  0.00    +0.000 C 
ENDBRANCH   3   6
BRANCH   1  10
ATOM      9  O   UNL     1       7.736   5.481  14.154  0.00  0.00    +0.000 OA
ATOM     10  C   UNL     1       7.054   4.610  14.676  0.00  0.00    +0.000 C 
BRANCH  10  11
ATOM     11  O   UNL     1       6.464   3.615  13.956  0.00  0.00    +0.000 OA
ATOM     12  H   UNL     1       5.489   3.705  14.038  0.00  0.00    +0.000 HD
ENDBRANCH  10  11
ENDBRANCH   1  10
TORSDOF 3
ENDMDL
MODEL 4
REMARK VINA RESULT:      -5.3      1.167      1.232
REMARK  Name = 
REMARK  3 active torsions:
REMARK  status: ('A' for Active; 'I' for Inactive)
REMARK    1  A    between atoms: C_2  and  O_3
REMARK    2  A    between atoms: C_2  and  C_4
REMARK    3  A    between atoms: C_6  and  C_7
REMARK                            x       y       z     vdW  Elec       q    Type
REMARK                         _______ _______ _______ _____ _____    ______ ____
ROOT
ATOM      1  C   UNL     1       5.955   4.859  17.358  0.00  0.00    +0.000 A 
ATOM      2  C   UNL     1       4.690   4.340  16.994  0.00  0.00    +0.000 A 
ATOM      3  C   UNL     1       3.808   4.953  17.846  0.00  0.00    +0.000 A 
ATOM      4  O   UNL     1       4.495   5.782  18.679  0.00  0.00    +0.000 OA
ATOM      5  N   UNL     1       5.848   5.723  18.383  0.00  0.00    +0.000 NA
ENDROOT
BRANCH   3   6
ATOM      6  C   UNL     1       2.306   4.748  17.854  0.00  0.00    +0.000 C 
ATOM      7  C   UNL     1       1.775   3.334  17.953  0.00  0.00    +0.000 C 
ATOM      8  C   UNL     1       1.665   4.243  19.129  0.00  0.00    +0.000 C 
ENDBRANCH   3   6
BRANCH   1  10
ATOM      9  O   UNL     1       7.524   4.749  15.585  0.00  0.00    +0.000 OA
ATOM     10  C   UNL     1       7.253   4.565  16.763  0.00  0.00    +0.000 C 
BRANCH  10  11
ATOM     11  O   UNL     1       8.156   4.058  17.649  0.00  0.00    +0.000 OA
ATOM     12  H   UNL     1       7.967   4.432  18.538  0.00  0.00    +0.000 HD
ENDBRANCH  10  11
ENDBRANCH   1  10
TORSDOF 3
ENDMDL
MODEL 5
REMARK VINA RESULT:      -5.3      0.540      1.087
REMARK  Name = 
REMARK  3 active torsions:
REMARK  status: ('A' for Active; 'I' for Inactive)
REMARK    1  A    between atoms: C_2  and  O_3
REMARK    2  A    between atoms: C_2  and  C_4
REMARK    3  A    between atoms: C_6  and  C_7
REMARK                            x       y       z     vdW  Elec       q    Type
REMARK                         _______ _______ _______ _____ _____    ______ ____
ROOT
ATOM      1  C   UNL     1       5.827   4.369  17.477  0.00  0.00    +0.000 A 
ATOM      2  C   UNL     1       4.648   3.987  16.795  0.00  0.00    +0.000 A 
ATOM      3  C   UNL     1       3.813   3.526  17.782  0.00  0.00    +0.000 A 
ATOM      4  O   UNL     1       4.449   3.615  18.981  0.00  0.00    +0.000 OA
ATOM      5  N   UNL     1       5.720   4.138  18.798  0.00  0.00    +0.000 NA
ENDROOT
BRANCH   3   6
ATOM      6  C   UNL     1       2.404   3.010  17.570  0.00  0.00    +0.000 C 
ATOM      7  C   UNL     1       1.637   2.501  18.772  0.00  0.00    +0.000 C 
ATOM      8  C   UNL     1       1.260   3.807  18.160  0.00  0.00    +0.000 C 
ENDBRANCH   3   6
BRANCH   1  10
ATOM      9  O   UNL     1       8.137   4.403  16.949  0.00  0.00    +0.000 OA
ATOM     10  C   UNL     1       7.042   4.948  16.918  0.00  0.00    +0.000 C 
BRANCH  10  11
ATOM     11  O   UNL     1       6.851   6.171  16.349  0.00  0.00    +0.000 OA
ATOM     12  H   UNL     1       6.993   6.091  15.380  0.00  0.00    +0.000 HD
ENDBRANCH  10  11
ENDBRANCH   1  10
TORSDOF 3
ENDMDL
MODEL 6
REMARK VINA RESULT:      -5.3      2.417      2.687
REMARK  Name = 
REMARK  3 active torsions:
REMARK  status: ('A' for Active; 'I' for Inactive)
REMARK    1  A    between atoms: C_2  and  O_3
REMARK    2  A    between atoms: C_2  and  C_4
REMARK    3  A    between atoms: C_6  and  C_7
REMARK                            x       y       z     vdW  Elec       q    Type
REMARK                         _______ _______ _______ _____ _____    ______ ____
ROOT
ATOM      1  C   UNL     1       5.771   5.038  15.455  0.00  0.00    +0.000 A 
ATOM      2  C   UNL     1       5.042   4.162  16.294  0.00  0.00    +0.000 A 
ATOM      3  C   UNL     1       4.268   4.991  17.066  0.00  0.00    +0.000 A 
ATOM      4  O   UNL     1       4.520   6.283  16.724  0.00  0.00    +0.000 OA
ATOM      5  N   UNL     1       5.470   6.322  15.715  0.00  0.00    +0.000 NA
ENDROOT
BRANCH   3   6
ATOM      6  C   UNL     1       3.283   4.538  18.126  0.00  0.00    +0.000 C 
ATOM      7  C   UNL     1       2.306   5.553  18.679  0.00  0.00    +0.000 C 
ATOM      8  C   UNL     1       1.816   4.490  17.756  0.00  0.00    +0.000 C 
ENDBRANCH   3   6
BRANCH   1  10
ATOM      9  O   UNL     1       7.700   5.385  14.123  0.00  0.00    +0.000 OA
ATOM     10  C   UNL     1       6.736   4.694  14.417  0.00  0.00    +0.000 C 
BRANCH  10  11
ATOM     11  O   UNL     1       6.464   3.515  13.790  0.00  0.00    +0.000 OA
ATOM     12  H   UNL     1       5.490   3.430  13.690  0.00  0.00    +0.000 HD
ENDBRANCH  10  11
ENDBRANCH   1  10
TORSDOF 3
ENDMDL
MODEL 7
REMARK VINA RESULT:      -5.3      1.394      1.767
REMARK  Name = 
REMARK  3 active torsions:
REMARK  status: ('A' for Active; 'I' for Inactive)
REMARK    1  A    between atoms: C_2  and  O_3
REMARK    2  A    between atoms: C_2  and  C_4
REMARK    3  A    between atoms: C_6  and  C_7
REMARK                            x       y       z     vdW  Elec       q    Type
REMARK                         _______ _______ _______ _____ _____    ______ ____
ROOT
ATOM      1  C   UNL     1       6.340   4.781  17.305  0.00  0.00    +0.000 A 
ATOM      2  C   UNL     1       5.033   4.266  17.140  0.00  0.00    +0.000 A 
ATOM      3  C   UNL     1       4.693   3.784  18.378  0.00  0.00    +0.000 A 
ATOM      4  O   UNL     1       5.731   3.984  19.235  0.00  0.00    +0.000 OA
ATOM      5  N   UNL     1       6.775   4.606  18.566  0.00  0.00    +0.000 NA
ENDROOT
BRANCH   3   6
ATOM      6  C   UNL     1       3.369   3.138  18.737  0.00  0.00    +0.000 C 
ATOM      7  C   UNL     1       2.503   2.605  17.617  0.00  0.00    +0.000 C 
ATOM      8  C   UNL     1       3.220   1.649  18.507  0.00  0.00    +0.000 C 
ENDBRANCH   3   6
BRANCH   1  10
ATOM      9  O   UNL     1       7.547   4.908  15.270  0.00  0.00    +0.000 OA
ATOM     10  C   UNL     1       7.182   5.435  16.311  0.00  0.00    +0.000 C 
BRANCH  10  11
ATOM     11  O   UNL     1       7.535   6.707  16.648  0.00  0.00    +0.000 OA
ATOM     12  H   UNL     1       6.818   7.317  16.365  0.00  0.00    +0.000 HD
ENDBRANCH  10  11
ENDBRANCH   1  10
TORSDOF 3
ENDMDL
MODEL 8
REMARK VINA RESULT:      -5.2      1.151      1.611
REMARK  Name = 
REMARK  3 active torsions:
REMARK  status: ('A' for Active; 'I' for Inactive)
REMARK    1  A    between atoms: C_2  and  O_3
REMARK    2  A    between atoms: C_2  and  C_4
REMARK    3  A    between atoms: C_6  and  C_7
REMARK                            x       y       z     vdW  Elec       q    Type
REMARK                         _______ _______ _______ _____ _____    ______ ____
ROOT
ATOM      1  C   UNL     1       5.937   5.191  17.722  0.00  0.00    +0.000 A 
ATOM      2  C   UNL     1       4.631   5.121  17.185  0.00  0.00    +0.000 A 
ATOM      3  C   UNL     1       3.804   5.283  18.267  0.00  0.00    +0.000 A 
ATOM      4  O   UNL     1       4.560   5.432  19.388  0.00  0.00    +0.000 OA
ATOM      5  N   UNL     1       5.905   5.368  19.055  0.00  0.00    +0.000 NA
ENDROOT
BRANCH   3   6
ATOM      6  C   UNL     1       2.288   5.303  18.220  0.00  0.00    +0.000 C 
ATOM      7  C   UNL     1       1.566   4.036  17.815  0.00  0.00    +0.000 C 
ATOM      8  C   UNL     1       1.536   4.474  19.239  0.00  0.00    +0.000 C 
ENDBRANCH   3   6
BRANCH   1  10
ATOM      9  O   UNL     1       8.021   4.202  17.177  0.00  0.00    +0.000 OA
ATOM     10  C   UNL     1       7.208   5.101  17.013  0.00  0.00    +0.000 C 
BRANCH  10  11
ATOM     11  O   UNL     1       7.417   6.123  16.137  0.00  0.00    +0.000 OA
ATOM     12  H   UNL     1       7.996   6.791  16.567  0.00  0.00    +0.000 HD
ENDBRANCH  10  11
ENDBRANCH   1  10
TORSDOF 3
ENDMDL
MODEL 9
REMARK VINA RESULT:      -5.2      1.207      1.594
REMARK  Name = 
REMARK  3 active torsions:
REMARK  status: ('A' for Active; 'I' for Inactive)
REMARK    1  A    between atoms: C_2  and  O_3
REMARK    2  A    between atoms: C_2  and  C_4
REMARK    3  A    between atoms: C_6  and  C_7
REMARK                            x       y       z     vdW  Elec       q    Type
REMARK                         _______ _______ _______ _____ _____    ______ ____
ROOT
ATOM      1  C   UNL     1       5.800   4.886  17.030  0.00  0.00    +0.000 A 
ATOM      2  C   UNL     1       4.788   3.916  16.842  0.00  0.00    +0.000 A 
ATOM      3  C   UNL     1       3.674   4.462  17.427  0.00  0.00    +0.000 A 
ATOM      4  O   UNL     1       3.994   5.679  17.945  0.00  0.00    +0.000 OA
ATOM      5  N   UNL     1       5.332   5.951  17.705  0.00  0.00    +0.000 NA
ENDROOT
BRANCH   3   6
ATOM      6  C   UNL     1       2.304   3.816  17.480  0.00  0.00    +0.000 C 
ATOM      7  C   UNL     1       2.207   2.371  17.920  0.00  0.00    +0.000 C 
ATOM      8  C   UNL     1       1.744   3.450  18.838  0.00  0.00    +0.000 C 
ENDBRANCH   3   6
BRANCH   1  10
ATOM      9  O   UNL     1       8.068   4.212  17.163  0.00  0.00    +0.000 OA
ATOM     10  C   UNL     1       7.188   4.836  16.587  0.00  0.00    +0.000 C 
BRANCH  10  11
ATOM     11  O   UNL     1       7.426   5.558  15.457  0.00  0.00    +0.000 OA
ATOM     12  H   UNL     1       8.356   5.876  15.477  0.00  0.00    +0.000 HD
ENDBRANCH  10  11
ENDBRANCH   1  10
TORSDOF 3
ENDMDL
