MODEL 1
REMARK VINA RESULT:     -10.1      0.000      0.000
REMARK  Name = 
REMARK  9 active torsions:
REMARK  status: ('A' for Active; 'I' for Inactive)
REMARK    1  A    between atoms: C_1  and  C_2
REMARK    2  A    between atoms: C_3  and  C_4
REMARK    3  A    between atoms: N_5  and  C_6
REMARK    4  A    between atoms: C_6  and  C_7
REMARK    5  A    between atoms: C_10  and  C_11
REMARK    6  A    between atoms: C_22  and  C_23
REMARK    7  A    between atoms: N_25  and  C_26
REMARK    8  A    between atoms: C_26  and  C_27
REMARK    9  A    between atoms: C_26  and  C_28
REMARK                            x       y       z     vdW  Elec       q    Type
REMARK                         _______ _______ _______ _____ _____    ______ ____
ROOT
ATOM      1  C   UNL     1       2.168   3.549  21.489  0.00  0.00    +0.000 C 
ATOM      2  C   UNL     1       2.916   4.193  20.372  0.00  0.00    +0.000 A 
ATOM      3  C   UNL     1       3.912   3.635  19.582  0.00  0.00    +0.000 A 
ATOM      4  C   UNL     1       4.520   2.273  19.622  0.00  0.00    +0.000 C 
ATOM      5  N   UNL     1       4.301   4.592  18.649  0.00  0.00    +0.000 N 
ATOM      6  C   UNL     1       3.506   5.718  18.790  0.00  0.00    +0.000 A 
ATOM      7  C   UNL     1       3.415   6.895  18.032  0.00  0.00    +0.000 A 
ATOM      8  C   UNL     1       2.600   7.938  18.494  0.00  0.00    +0.000 A 
ATOM      9  C   UNL     1       1.815   7.803  19.639  0.00  0.00    +0.000 A 
ATOM     10  C   UNL     1       1.830   6.580  20.333  0.00  0.00    +0.000 A 
ATOM     11  C   UNL     1       2.694   5.532  19.910  0.00  0.00    +0.000 A 
ENDROOT
BRANCH   9  12
ATOM     12  C   UNL     1       0.901   8.912  20.077  0.00  0.00    +0.000 C 
ATOM     13  O   UNL     1       0.564   9.007  21.253  0.00  0.00    +0.000 OA
ATOM     14  N   UNL     1       0.501   9.802  19.086  0.00  0.00    +0.000 N 
ATOM     15  H   UNL     1       0.935   9.759  18.183  0.00  0.00    +0.000 HD
BRANCH  14  16
ATOM     16  C   UNL     1      -0.349  10.961  19.347  0.00  0.00    +0.000 C 
ATOM     17  C   UNL     1       0.461  12.252  19.183  0.00  0.00    +0.000 C 
BRANCH  16  18
ATOM     18  C   UNL     1      -1.637  10.952  18.515  0.00  0.00    +0.000 A 
ATOM     19  C   UNL     1      -1.671  10.088  17.401  0.00  0.00    +0.000 A 
ATOM     20  C   UNL     1      -2.816   9.984  16.623  0.00  0.00    +0.000 A 
ATOM     21  N   UNL     1      -3.944  10.667  16.854  0.00  0.00    +0.000 NA
ATOM     22  C   UNL     1      -3.910  11.513  17.915  0.00  0.00    +0.000 A 
ATOM     23  C   UNL     1      -2.806  11.694  18.756  0.00  0.00    +0.000 A 
ATOM     24 CL   UNL     1      -2.972  12.846  20.027  0.00  0.00    +0.000 Cl
ENDBRANCH  16  18
ENDBRANCH  14  16
ENDBRANCH   9  12
BRANCH   5  25
ATOM     25  C   UNL     1       5.454   4.446  17.741  0.00  0.00    +0.000 C 
BRANCH  25  26
ATOM     26  C   UNL     1       6.447   5.591  17.755  0.00  0.00    +0.000 A 
ATOM     27  C   UNL     1       7.450   5.695  18.708  0.00  0.00    +0.000 A 
ATOM     28  C   UNL     1       8.157   6.887  18.888  0.00  0.00    +0.000 A 
ATOM     29  C   UNL     1       7.921   8.003  18.062  0.00  0.00    +0.000 A 
ATOM     30  C   UNL     1       7.028   7.830  16.998  0.00  0.00    +0.000 A 
ATOM     31  C   UNL     1       6.289   6.649  16.840  0.00  0.00    +0.000 A 
BRANCH  29  32
ATOM     32  C   UNL     1       8.518   9.327  18.363  0.00  0.00    +0.000 A 
ATOM     33  C   UNL     1       9.222   9.573  19.551  0.00  0.00    +0.000 A 
ATOM     34  C   UNL     1       9.709  10.845  19.868  0.00  0.00    +0.000 A 
ATOM     35  C   UNL     1       9.509  11.905  18.981  0.00  0.00    +0.000 A 
ATOM     36  C   UNL     1       8.846  11.688  17.786  0.00  0.00    +0.000 A 
ATOM     37  C   UNL     1       8.351  10.416  17.478  0.00  0.00    +0.000 A 
ENDBRANCH  29  32
ENDBRANCH  25  26
ENDBRANCH   5  25
TORSDOF 6
ENDMDL
MODEL 2
REMARK VINA RESULT:      -9.8      0.900      1.196
REMARK  Name = 
REMARK  9 active torsions:
REMARK  status: ('A' for Active; 'I' for Inactive)
REMARK    1  A    between atoms: C_1  and  C_2
REMARK    2  A    between atoms: C_3  and  C_4
REMARK    3  A    between atoms: N_5  and  C_6
REMARK    4  A    between atoms: C_6  and  C_7
REMARK    5  A    between atoms: C_10  and  C_11
REMARK    6  A    between atoms: C_22  and  C_23
REMARK    7  A    between atoms: N_25  and  C_26
REMARK    8  A    between atoms: C_26  and  C_27
REMARK    9  A    between atoms: C_26  and  C_28
REMARK                            x       y       z     vdW  Elec       q    Type
REMARK                         _______ _______ _______ _____ _____    ______ ____
ROOT
ATOM      1  C   UNL     1       2.334   4.443  21.281  0.00  0.00    +0.000 C 
ATOM      2  C   UNL     1       3.019   5.074  20.117  0.00  0.00    +0.000 A 
ATOM      3  C   UNL     1       4.038   4.541  19.339  0.00  0.00    +0.000 A 
ATOM      4  C   UNL     1       4.737   3.228  19.438  0.00  0.00    +0.000 C 
ATOM      5  N   UNL     1       4.346   5.471  18.349  0.00  0.00    +0.000 N 
ATOM      6  C   UNL     1       3.480   6.548  18.446  0.00  0.00    +0.000 A 
ATOM      7  C   UNL     1       3.298   7.674  17.629  0.00  0.00    +0.000 A 
ATOM      8  C   UNL     1       2.422   8.683  18.052  0.00  0.00    +0.000 A 
ATOM      9  C   UNL     1       1.666   8.558  19.217  0.00  0.00    +0.000 A 
ATOM     10  C   UNL     1       1.775   7.378  19.974  0.00  0.00    +0.000 A 
ATOM     11  C   UNL     1       2.700   6.368  19.589  0.00  0.00    +0.000 A 
ENDROOT
BRANCH   9  12
ATOM     12  C   UNL     1       0.686   9.626  19.614  0.00  0.00    +0.000 C 
ATOM     13  O   UNL     1       0.537   9.919  20.796  0.00  0.00    +0.000 OA
ATOM     14  N   UNL     1       0.006  10.249  18.573  0.00  0.00    +0.000 N 
ATOM     15  H   UNL     1       0.287  10.072  17.627  0.00  0.00    +0.000 HD
BRANCH  14  16
ATOM     16  C   UNL     1      -0.948  11.336  18.778  0.00  0.00    +0.000 C 
ATOM     17  C   UNL     1      -0.234  12.688  18.660  0.00  0.00    +0.000 C 
BRANCH  16  18
ATOM     18  C   UNL     1      -2.178  11.227  17.870  0.00  0.00    +0.000 A 
ATOM     19  C   UNL     1      -1.977  10.675  16.587  0.00  0.00    +0.000 A 
ATOM     20  C   UNL     1      -3.046  10.498  15.720  0.00  0.00    +0.000 A 
ATOM     21  N   UNL     1      -4.312  10.819  16.014  0.00  0.00    +0.000 NA
ATOM     22  C   UNL     1      -4.507  11.366  17.241  0.00  0.00    +0.000 A 
ATOM     23  C   UNL     1      -3.498  11.592  18.184  0.00  0.00    +0.000 A 
ATOM     24 CL   UNL     1      -3.968  12.328  19.669  0.00  0.00    +0.000 Cl
ENDBRANCH  16  18
ENDBRANCH  14  16
ENDBRANCH   9  12
BRANCH   5  25
ATOM     25  C   UNL     1       5.492   5.353  17.427  0.00  0.00    +0.000 C 
BRANCH  25  26
ATOM     26  C   UNL     1       6.587   6.387  17.609  0.00  0.00    +0.000 A 
ATOM     27  C   UNL     1       7.592   6.249  18.555  0.00  0.00    +0.000 A 
ATOM     28  C   UNL     1       8.405   7.328  18.910  0.00  0.00    +0.000 A 
ATOM     29  C   UNL     1       8.274   8.577  18.272  0.00  0.00    +0.000 A 
ATOM     30  C   UNL     1       7.373   8.655  17.204  0.00  0.00    +0.000 A 
ATOM     31  C   UNL     1       6.529   7.585  16.872  0.00  0.00    +0.000 A 
BRANCH  29  32
ATOM     32  C   UNL     1       8.989   9.777  18.768  0.00  0.00    +0.000 A 
ATOM     33  C   UNL     1       9.695  10.631  17.908  0.00  0.00    +0.000 A 
ATOM     34  C   UNL     1      10.438  11.713  18.392  0.00  0.00    +0.000 A 
ATOM     35  C   UNL     1      10.476  11.970  19.764  0.00  0.00    +0.000 A 
ATOM     36  C   UNL     1       9.764  11.166  20.636  0.00  0.00    +0.000 A 
ATOM     37  C   UNL     1       9.031  10.079  20.149  0.00  0.00    +0.000 A 
ENDBRANCH  29  32
ENDBRANCH  25  26
ENDBRANCH   5  25
TORSDOF 6
ENDMDL
MODEL 3
REMARK VINA RESULT:      -9.6      3.879      8.392
REMARK  Name = 
REMARK  9 active torsions:
REMARK  status: ('A' for Active; 'I' for Inactive)
REMARK    1  A    between atoms: C_1  and  C_2
REMARK    2  A    between atoms: C_3  and  C_4
REMARK    3  A    between atoms: N_5  and  C_6
REMARK    4  A    between atoms: C_6  and  C_7
REMARK    5  A    between atoms: C_10  and  C_11
REMARK    6  A    between atoms: C_22  and  C_23
REMARK    7  A    between atoms: N_25  and  C_26
REMARK    8  A    between atoms: C_26  and  C_27
REMARK    9  A    between atoms: C_26  and  C_28
REMARK                            x       y       z     vdW  Elec       q    Type
REMARK                         _______ _______ _______ _____ _____    ______ ____
ROOT
ATOM      1  C   UNL     1      -0.328   9.307  22.888  0.00  0.00    +0.000 C 
ATOM      2  C   UNL     1      -0.027   9.834  21.527  0.00  0.00    +0.000 A 
ATOM      3  C   UNL     1      -0.390  11.062  20.991  0.00  0.00    +0.000 A 
ATOM      4  C   UNL     1      -1.176  12.178  21.591  0.00  0.00    +0.000 C 
ATOM      5  N   UNL     1       0.132  11.134  19.702  0.00  0.00    +0.000 N 
ATOM      6  C   UNL     1       0.887  10.000  19.450  0.00  0.00    +0.000 A 
ATOM      7  C   UNL     1       1.703   9.646  18.365  0.00  0.00    +0.000 A 
ATOM      8  C   UNL     1       2.250   8.356  18.321  0.00  0.00    +0.000 A 
ATOM      9  C   UNL     1       2.075   7.449  19.365  0.00  0.00    +0.000 A 
ATOM     10  C   UNL     1       1.345   7.849  20.498  0.00  0.00    +0.000 A 
ATOM     11  C   UNL     1       0.736   9.134  20.535  0.00  0.00    +0.000 A 
ENDROOT
BRANCH   9  12
ATOM     12  C   UNL     1       2.727   6.095  19.322  0.00  0.00    +0.000 C 
ATOM     13  O   UNL     1       2.910   5.466  20.359  0.00  0.00    +0.000 OA
ATOM     14  N   UNL     1       3.069   5.621  18.061  0.00  0.00    +0.000 N 
ATOM     15  H   UNL     1       2.751   6.114  17.248  0.00  0.00    +0.000 HD
BRANCH  14  16
ATOM     16  C   UNL     1       3.668   4.309  17.834  0.00  0.00    +0.000 C 
ATOM     17  C   UNL     1       2.692   3.414  17.061  0.00  0.00    +0.000 C 
BRANCH  16  18
ATOM     18  C   UNL     1       5.052   4.392  17.180  0.00  0.00    +0.000 A 
ATOM     19  C   UNL     1       5.137   4.024  15.820  0.00  0.00    +0.000 A 
ATOM     20  C   UNL     1       6.343   4.115  15.139  0.00  0.00    +0.000 A 
ATOM     21  N   UNL     1       7.485   4.545  15.690  0.00  0.00    +0.000 NA
ATOM     22  C   UNL     1       7.411   4.884  17.003  0.00  0.00    +0.000 A 
ATOM     23  C   UNL     1       6.248   4.822  17.778  0.00  0.00    +0.000 A 
ATOM     24 CL   UNL     1       6.391   5.269  19.436  0.00  0.00    +0.000 Cl
ENDBRANCH  16  18
ENDBRANCH  14  16
ENDBRANCH   9  12
BRANCH   5  25
ATOM     25  C   UNL     1      -0.179  12.207  18.739  0.00  0.00    +0.000 C 
BRANCH  25  26
ATOM     26  C   UNL     1       0.812  13.354  18.696  0.00  0.00    +0.000 A 
ATOM     27  C   UNL     1       2.062  13.236  18.105  0.00  0.00    +0.000 A 
ATOM     28  C   UNL     1       3.062  14.186  18.331  0.00  0.00    +0.000 A 
ATOM     29  C   UNL     1       2.814  15.330  19.115  0.00  0.00    +0.000 A 
ATOM     30  C   UNL     1       1.502  15.521  19.565  0.00  0.00    +0.000 A 
ATOM     31  C   UNL     1       0.508  14.551  19.372  0.00  0.00    +0.000 A 
BRANCH  29  32
ATOM     32  C   UNL     1       3.911  16.240  19.523  0.00  0.00    +0.000 A 
ATOM     33  C   UNL     1       3.751  17.185  20.547  0.00  0.00    +0.000 A 
ATOM     34  C   UNL     1       4.761  18.097  20.871  0.00  0.00    +0.000 A 
ATOM     35  C   UNL     1       5.970  18.070  20.173  0.00  0.00    +0.000 A 
ATOM     36  C   UNL     1       6.171  17.129  19.179  0.00  0.00    +0.000 A 
ATOM     37  C   UNL     1       5.155  16.225  18.852  0.00  0.00    +0.000 A 
ENDBRANCH  29  32
ENDBRANCH  25  26
ENDBRANCH   5  25
TORSDOF 6
ENDMDL
MODEL 4
REMARK VINA RESULT:      -9.3      1.533      2.602
REMARK  Name = 
REMARK  9 active torsions:
REMARK  status: ('A' for Active; 'I' for Inactive)
REMARK    1  A    between atoms: C_1  and  C_2
REMARK    2  A    between atoms: C_3  and  C_4
REMARK    3  A    between atoms: N_5  and  C_6
REMARK    4  A    between atoms: C_6  and  C_7
REMARK    5  A    between atoms: C_10  and  C_11
REMARK    6  A    between atoms: C_22  and  C_23
REMARK    7  A    between atoms: N_25  and  C_26
REMARK    8  A    between atoms: C_26  and  C_27
REMARK    9  A    between atoms: C_26  and  C_28
REMARK                            x       y       z     vdW  Elec       q    Type
REMARK                         _______ _______ _______ _____ _____    ______ ____
ROOT
ATOM      1  C   UNL     1       2.016   3.718  21.105  0.00  0.00    +0.000 C 
ATOM      2  C   UNL     1       2.911   4.336  20.085  0.00  0.00    +0.000 A 
ATOM      3  C   UNL     1       3.985   3.750  19.430  0.00  0.00    +0.000 A 
ATOM      4  C   UNL     1       4.554   2.377  19.554  0.00  0.00    +0.000 C 
ATOM      5  N   UNL     1       4.507   4.691  18.546  0.00  0.00    +0.000 N 
ATOM      6  C   UNL     1       3.726   5.834  18.579  0.00  0.00    +0.000 A 
ATOM      7  C   UNL     1       3.756   7.005  17.808  0.00  0.00    +0.000 A 
ATOM      8  C   UNL     1       2.912   8.069  18.158  0.00  0.00    +0.000 A 
ATOM      9  C   UNL     1       1.989   7.961  19.197  0.00  0.00    +0.000 A 
ATOM     10  C   UNL     1       1.890   6.745  19.896  0.00  0.00    +0.000 A 
ATOM     11  C   UNL     1       2.777   5.675  19.590  0.00  0.00    +0.000 A 
ENDROOT
BRANCH   9  12
ATOM     12  C   UNL     1       1.051   9.093  19.511  0.00  0.00    +0.000 C 
ATOM     13  O   UNL     1       0.637   9.253  20.654  0.00  0.00    +0.000 OA
ATOM     14  N   UNL     1       0.721   9.927  18.447  0.00  0.00    +0.000 N 
ATOM     15  H   UNL     1       1.214   9.833  17.579  0.00  0.00    +0.000 HD
BRANCH  14  16
ATOM     16  C   UNL     1      -0.141  11.097  18.586  0.00  0.00    +0.000 C 
ATOM     17  C   UNL     1      -1.582  10.655  18.869  0.00  0.00    +0.000 C 
BRANCH  16  18
ATOM     18  C   UNL     1       0.388  12.108  19.610  0.00  0.00    +0.000 A 
ATOM     19  C   UNL     1      -0.420  12.354  20.739  0.00  0.00    +0.000 A 
ATOM     20  C   UNL     1       0.005  13.219  21.737  0.00  0.00    +0.000 A 
ATOM     21  N   UNL     1       1.176  13.869  21.717  0.00  0.00    +0.000 NA
ATOM     22  C   UNL     1       1.950  13.648  20.624  0.00  0.00    +0.000 A 
ATOM     23  C   UNL     1       1.609  12.802  19.563  0.00  0.00    +0.000 A 
ATOM     24 CL   UNL     1       2.729  12.695  18.258  0.00  0.00    +0.000 Cl
ENDBRANCH  16  18
ENDBRANCH  14  16
ENDBRANCH   9  12
BRANCH   5  25
ATOM     25  C   UNL     1       5.761   4.512  17.789  0.00  0.00    +0.000 C 
BRANCH  25  26
ATOM     26  C   UNL     1       6.720   5.686  17.824  0.00  0.00    +0.000 A 
ATOM     27  C   UNL     1       7.611   5.889  18.868  0.00  0.00    +0.000 A 
ATOM     28  C   UNL     1       8.266   7.112  19.034  0.00  0.00    +0.000 A 
ATOM     29  C   UNL     1       8.093   8.160  18.109  0.00  0.00    +0.000 A 
ATOM     30  C   UNL     1       7.324   7.885  16.971  0.00  0.00    +0.000 A 
ATOM     31  C   UNL     1       6.635   6.673  16.823  0.00  0.00    +0.000 A 
BRANCH  29  32
ATOM     32  C   UNL     1       8.622   9.519  18.373  0.00  0.00    +0.000 A 
ATOM     33  C   UNL     1       9.436   9.798  19.481  0.00  0.00    +0.000 A 
ATOM     34  C   UNL     1       9.863  11.098  19.772  0.00  0.00    +0.000 A 
ATOM     35  C   UNL     1       9.486  12.154  18.940  0.00  0.00    +0.000 A 
ATOM     36  C   UNL     1       8.710  11.908  17.822  0.00  0.00    +0.000 A 
ATOM     37  C   UNL     1       8.277  10.608  17.540  0.00  0.00    +0.000 A 
ENDBRANCH  29  32
ENDBRANCH  25  26
ENDBRANCH   5  25
TORSDOF 6
ENDMDL
MODEL 5
REMARK VINA RESULT:      -8.9      3.931      8.510
REMARK  Name = 
REMARK  9 active torsions:
REMARK  status: ('A' for Active; 'I' for Inactive)
REMARK    1  A    between atoms: C_1  and  C_2
REMARK    2  A    between atoms: C_3  and  C_4
REMARK    3  A    between atoms: N_5  and  C_6
REMARK    4  A    between atoms: C_6  and  C_7
REMARK    5  A    between atoms: C_10  and  C_11
REMARK    6  A    between atoms: C_22  and  C_23
REMARK    7  A    between atoms: N_25  and  C_26
REMARK    8  A    between atoms: C_26  and  C_27
REMARK    9  A    between atoms: C_26  and  C_28
REMARK                            x       y       z     vdW  Elec       q    Type
REMARK                         _______ _______ _______ _____ _____    ______ ____
ROOT
ATOM      1  C   UNL     1      -0.107   9.529  23.116  0.00  0.00    +0.000 C 
ATOM      2  C   UNL     1       0.122  10.000  21.721  0.00  0.00    +0.000 A 
ATOM      3  C   UNL     1      -0.240  11.219  21.164  0.00  0.00    +0.000 A 
ATOM      4  C   UNL     1      -0.954  12.378  21.772  0.00  0.00    +0.000 C 
ATOM      5  N   UNL     1       0.202  11.231  19.844  0.00  0.00    +0.000 N 
ATOM      6  C   UNL     1       0.908  10.067  19.586  0.00  0.00    +0.000 A 
ATOM      7  C   UNL     1       1.643   9.652  18.466  0.00  0.00    +0.000 A 
ATOM      8  C   UNL     1       2.150   8.345  18.434  0.00  0.00    +0.000 A 
ATOM      9  C   UNL     1       2.016   7.480  19.520  0.00  0.00    +0.000 A 
ATOM     10  C   UNL     1       1.370   7.941  20.681  0.00  0.00    +0.000 A 
ATOM     11  C   UNL     1       0.801   9.244  20.709  0.00  0.00    +0.000 A 
ENDROOT
BRANCH   9  12
ATOM     12  C   UNL     1       2.625   6.106  19.486  0.00  0.00    +0.000 C 
ATOM     13  O   UNL     1       2.592   5.391  20.481  0.00  0.00    +0.000 OA
ATOM     14  N   UNL     1       3.186   5.716  18.274  0.00  0.00    +0.000 N 
ATOM     15  H   UNL     1       3.042   6.284  17.461  0.00  0.00    +0.000 HD
BRANCH  14  16
ATOM     16  C   UNL     1       3.781   4.401  18.054  0.00  0.00    +0.000 C 
ATOM     17  C   UNL     1       2.872   3.561  17.147  0.00  0.00    +0.000 C 
BRANCH  16  18
ATOM     18  C   UNL     1       5.226   4.477  17.548  0.00  0.00    +0.000 A 
ATOM     19  C   UNL     1       6.235   4.627  18.522  0.00  0.00    +0.000 A 
ATOM     20  C   UNL     1       7.573   4.658  18.154  0.00  0.00    +0.000 A 
ATOM     21  N   UNL     1       8.005   4.549  16.891  0.00  0.00    +0.000 NA
ATOM     22  C   UNL     1       7.036   4.422  15.949  0.00  0.00    +0.000 A 
ATOM     23  C   UNL     1       5.663   4.387  16.216  0.00  0.00    +0.000 A 
ATOM     24 CL   UNL     1       4.607   4.252  14.861  0.00  0.00    +0.000 Cl
ENDBRANCH  16  18
ENDBRANCH  14  16
ENDBRANCH   9  12
BRANCH   5  25
ATOM     25  C   UNL     1      -0.138  12.280  18.864  0.00  0.00    +0.000 C 
BRANCH  25  26
ATOM     26  C   UNL     1       0.861  13.414  18.747  0.00  0.00    +0.000 A 
ATOM     27  C   UNL     1       2.139  13.231  18.239  0.00  0.00    +0.000 A 
ATOM     28  C   UNL     1       3.132  14.199  18.411  0.00  0.00    +0.000 A 
ATOM     29  C   UNL     1       2.850  15.423  19.049  0.00  0.00    +0.000 A 
ATOM     30  C   UNL     1       1.518  15.664  19.405  0.00  0.00    +0.000 A 
ATOM     31  C   UNL     1       0.529  14.679  19.269  0.00  0.00    +0.000 A 
BRANCH  29  32
ATOM     32  C   UNL     1       3.930  16.372  19.411  0.00  0.00    +0.000 A 
ATOM     33  C   UNL     1       5.153  16.404  18.725  0.00  0.00    +0.000 A 
ATOM     34  C   UNL     1       6.200  17.242  19.125  0.00  0.00    +0.000 A 
ATOM     35  C   UNL     1       6.032  18.084  20.225  0.00  0.00    +0.000 A 
ATOM     36  C   UNL     1       4.826  18.100  20.904  0.00  0.00    +0.000 A 
ATOM     37  C   UNL     1       3.786  17.253  20.507  0.00  0.00    +0.000 A 
ENDBRANCH  29  32
ENDBRANCH  25  26
ENDBRANCH   5  25
TORSDOF 6
ENDMDL
MODEL 6
REMARK VINA RESULT:      -8.7      1.679      2.394
REMARK  Name = 
REMARK  9 active torsions:
REMARK  status: ('A' for Active; 'I' for Inactive)
REMARK    1  A    between atoms: C_1  and  C_2
REMARK    2  A    between atoms: C_3  and  C_4
REMARK    3  A    between atoms: N_5  and  C_6
REMARK    4  A    between atoms: C_6  and  C_7
REMARK    5  A    between atoms: C_10  and  C_11
REMARK    6  A    between atoms: C_22  and  C_23
REMARK    7  A    between atoms: N_25  and  C_26
REMARK    8  A    between atoms: C_26  and  C_27
REMARK    9  A    between atoms: C_26  and  C_28
REMARK                            x       y       z     vdW  Elec       q    Type
REMARK                         _______ _______ _______ _____ _____    ______ ____
ROOT
ATOM      1  C   UNL     1       1.463   4.124  20.147  0.00  0.00    +0.000 C 
ATOM      2  C   UNL     1       2.644   4.634  19.394  0.00  0.00    +0.000 A 
ATOM      3  C   UNL     1       3.805   3.948  19.067  0.00  0.00    +0.000 A 
ATOM      4  C   UNL     1       4.211   2.546  19.372  0.00  0.00    +0.000 C 
ATOM      5  N   UNL     1       4.617   4.812  18.336  0.00  0.00    +0.000 N 
ATOM      6  C   UNL     1       3.947   6.007  18.130  0.00  0.00    +0.000 A 
ATOM      7  C   UNL     1       4.274   7.139  17.369  0.00  0.00    +0.000 A 
ATOM      8  C   UNL     1       3.453   8.272  17.454  0.00  0.00    +0.000 A 
ATOM      9  C   UNL     1       2.278   8.273  18.206  0.00  0.00    +0.000 A 
ATOM     10  C   UNL     1       1.902   7.097  18.880  0.00  0.00    +0.000 A 
ATOM     11  C   UNL     1       2.752   5.957  18.850  0.00  0.00    +0.000 A 
ENDROOT
BRANCH   9  12
ATOM     12  C   UNL     1       1.382   9.479  18.228  0.00  0.00    +0.000 C 
ATOM     13  O   UNL     1       1.620  10.439  17.503  0.00  0.00    +0.000 OA
ATOM     14  N   UNL     1       0.289   9.413  19.086  0.00  0.00    +0.000 N 
ATOM     15  H   UNL     1       0.067   8.542  19.532  0.00  0.00    +0.000 HD
BRANCH  14  16
ATOM     16  C   UNL     1      -0.705  10.476  19.200  0.00  0.00    +0.000 C 
ATOM     17  C   UNL     1      -1.980  10.084  18.443  0.00  0.00    +0.000 C 
BRANCH  16  18
ATOM     18  C   UNL     1      -0.973  10.888  20.652  0.00  0.00    +0.000 A 
ATOM     19  C   UNL     1      -0.474  10.035  21.659  0.00  0.00    +0.000 A 
ATOM     20  C   UNL     1      -0.633  10.358  22.999  0.00  0.00    +0.000 A 
ATOM     21  N   UNL     1      -1.246  11.465  23.437  0.00  0.00    +0.000 NA
ATOM     22  C   UNL     1      -1.743  12.280  22.471  0.00  0.00    +0.000 A 
ATOM     23  C   UNL     1      -1.641  12.041  21.096  0.00  0.00    +0.000 A 
ATOM     24 CL   UNL     1      -2.374  13.196  20.047  0.00  0.00    +0.000 Cl
ENDBRANCH  16  18
ENDBRANCH  14  16
ENDBRANCH   9  12
BRANCH   5  25
ATOM     25  C   UNL     1       6.010   4.515  17.951  0.00  0.00    +0.000 C 
BRANCH  25  26
ATOM     26  C   UNL     1       6.974   5.683  18.031  0.00  0.00    +0.000 A 
ATOM     27  C   UNL     1       7.724   5.952  19.166  0.00  0.00    +0.000 A 
ATOM     28  C   UNL     1       8.371   7.180  19.332  0.00  0.00    +0.000 A 
ATOM     29  C   UNL     1       8.336   8.161  18.322  0.00  0.00    +0.000 A 
ATOM     30  C   UNL     1       7.719   7.812  17.115  0.00  0.00    +0.000 A 
ATOM     31  C   UNL     1       7.036   6.596  16.962  0.00  0.00    +0.000 A 
BRANCH  29  32
ATOM     32  C   UNL     1       8.848   9.533  18.559  0.00  0.00    +0.000 A 
ATOM     33  C   UNL     1       9.482   9.893  19.757  0.00  0.00    +0.000 A 
ATOM     34  C   UNL     1       9.886  11.209  20.009  0.00  0.00    +0.000 A 
ATOM     35  C   UNL     1       9.671  12.196  19.046  0.00  0.00    +0.000 A 
ATOM     36  C   UNL     1       9.076  11.867  17.841  0.00  0.00    +0.000 A 
ATOM     37  C   UNL     1       8.665  10.552  17.597  0.00  0.00    +0.000 A 
ENDBRANCH  29  32
ENDBRANCH  25  26
ENDBRANCH   5  25
TORSDOF 6
ENDMDL
MODEL 7
REMARK VINA RESULT:      -8.7      3.798      8.152
REMARK  Name = 
REMARK  9 active torsions:
REMARK  status: ('A' for Active; 'I' for Inactive)
REMARK    1  A    between atoms: C_1  and  C_2
REMARK    2  A    between atoms: C_3  and  C_4
REMARK    3  A    between atoms: N_5  and  C_6
REMARK    4  A    between atoms: C_6  and  C_7
REMARK    5  A    between atoms: C_10  and  C_11
REMARK    6  A    between atoms: C_22  and  C_23
REMARK    7  A    between atoms: N_25  and  C_26
REMARK    8  A    between atoms: C_26  and  C_27
REMARK    9  A    between atoms: C_26  and  C_28
REMARK                            x       y       z     vdW  Elec       q    Type
REMARK                         _______ _______ _______ _____ _____    ______ ____
ROOT
ATOM      1  C   UNL     1      -0.004   9.215  22.873  0.00  0.00    +0.000 C 
ATOM      2  C   UNL     1       0.293   9.878  21.572  0.00  0.00    +0.000 A 
ATOM      3  C   UNL     1       0.024  11.189  21.205  0.00  0.00    +0.000 A 
ATOM      4  C   UNL     1      -0.633  12.287  21.972  0.00  0.00    +0.000 C 
ATOM      5  N   UNL     1       0.502  11.375  19.910  0.00  0.00    +0.000 N 
ATOM      6  C   UNL     1       1.140  10.220  19.488  0.00  0.00    +0.000 A 
ATOM      7  C   UNL     1       1.879   9.935  18.330  0.00  0.00    +0.000 A 
ATOM      8  C   UNL     1       2.304   8.618  18.105  0.00  0.00    +0.000 A 
ATOM      9  C   UNL     1       2.086   7.607  19.040  0.00  0.00    +0.000 A 
ATOM     10  C   UNL     1       1.439   7.926  20.247  0.00  0.00    +0.000 A 
ATOM     11  C   UNL     1       0.951   9.244  20.467  0.00  0.00    +0.000 A 
ENDROOT
BRANCH   9  12
ATOM     12  C   UNL     1       2.609   6.218  18.804  0.00  0.00    +0.000 C 
ATOM     13  O   UNL     1       2.090   5.498  17.958  0.00  0.00    +0.000 OA
ATOM     14  N   UNL     1       3.703   5.838  19.575  0.00  0.00    +0.000 N 
ATOM     15  H   UNL     1       4.173   6.525  20.133  0.00  0.00    +0.000 HD
BRANCH  14  16
ATOM     16  C   UNL     1       4.362   4.541  19.443  0.00  0.00    +0.000 C 
ATOM     17  C   UNL     1       3.316   3.420  19.446  0.00  0.00    +0.000 C 
BRANCH  16  18
ATOM     18  C   UNL     1       5.309   4.474  18.239  0.00  0.00    +0.000 A 
ATOM     19  C   UNL     1       4.809   3.868  17.068  0.00  0.00    +0.000 A 
ATOM     20  C   UNL     1       5.584   3.808  15.918  0.00  0.00    +0.000 A 
ATOM     21  N   UNL     1       6.824   4.303  15.823  0.00  0.00    +0.000 NA
ATOM     22  C   UNL     1       7.315   4.873  16.953  0.00  0.00    +0.000 A 
ATOM     23  C   UNL     1       6.618   4.978  18.162  0.00  0.00    +0.000 A 
ATOM     24 CL   UNL     1       7.449   5.712  19.482  0.00  0.00    +0.000 Cl
ENDBRANCH  16  18
ENDBRANCH  14  16
ENDBRANCH   9  12
BRANCH   5  25
ATOM     25  C   UNL     1       0.254  12.582  19.099  0.00  0.00    +0.000 C 
BRANCH  25  26
ATOM     26  C   UNL     1       1.402  13.571  19.031  0.00  0.00    +0.000 A 
ATOM     27  C   UNL     1       2.458  13.426  18.144  0.00  0.00    +0.000 A 
ATOM     28  C   UNL     1       3.636  14.163  18.294  0.00  0.00    +0.000 A 
ATOM     29  C   UNL     1       3.765  15.127  19.313  0.00  0.00    +0.000 A 
ATOM     30  C   UNL     1       2.632  15.383  20.094  0.00  0.00    +0.000 A 
ATOM     31  C   UNL     1       1.464  14.618  19.971  0.00  0.00    +0.000 A 
BRANCH  29  32
ATOM     32  C   UNL     1       5.067  15.773  19.605  0.00  0.00    +0.000 A 
ATOM     33  C   UNL     1       5.583  16.802  18.803  0.00  0.00    +0.000 A 
ATOM     34  C   UNL     1       6.850  17.349  19.033  0.00  0.00    +0.000 A 
ATOM     35  C   UNL     1       7.626  16.878  20.094  0.00  0.00    +0.000 A 
ATOM     36  C   UNL     1       7.133  15.886  20.922  0.00  0.00    +0.000 A 
ATOM     37  C   UNL     1       5.870  15.335  20.682  0.00  0.00    +0.000 A 
ENDBRANCH  29  32
ENDBRANCH  25  26
ENDBRANCH   5  25
TORSDOF 6
ENDMDL
MODEL 8
REMARK VINA RESULT:      -8.5      2.093      2.701
REMARK  Name = 
REMARK  9 active torsions:
REMARK  status: ('A' for Active; 'I' for Inactive)
REMARK    1  A    between atoms: C_1  and  C_2
REMARK    2  A    between atoms: C_3  and  C_4
REMARK    3  A    between atoms: N_5  and  C_6
REMARK    4  A    between atoms: C_6  and  C_7
REMARK    5  A    between atoms: C_10  and  C_11
REMARK    6  A    between atoms: C_22  and  C_23
REMARK    7  A    between atoms: N_25  and  C_26
REMARK    8  A    between atoms: C_26  and  C_27
REMARK    9  A    between atoms: C_26  and  C_28
REMARK                            x       y       z     vdW  Elec       q    Type
REMARK                         _______ _______ _______ _____ _____    ______ ____
ROOT
ATOM      1  C   UNL     1       2.034   4.465  21.102  0.00  0.00    +0.000 C 
ATOM      2  C   UNL     1       2.896   5.005  20.012  0.00  0.00    +0.000 A 
ATOM      3  C   UNL     1       3.986   4.394  19.409  0.00  0.00    +0.000 A 
ATOM      4  C   UNL     1       4.610   3.065  19.671  0.00  0.00    +0.000 C 
ATOM      5  N   UNL     1       4.464   5.255  18.424  0.00  0.00    +0.000 N 
ATOM      6  C   UNL     1       3.638   6.365  18.346  0.00  0.00    +0.000 A 
ATOM      7  C   UNL     1       3.616   7.448  17.455  0.00  0.00    +0.000 A 
ATOM      8  C   UNL     1       2.734   8.509  17.701  0.00  0.00    +0.000 A 
ATOM      9  C   UNL     1       1.823   8.476  18.757  0.00  0.00    +0.000 A 
ATOM     10  C   UNL     1       1.779   7.339  19.581  0.00  0.00    +0.000 A 
ATOM     11  C   UNL     1       2.704   6.277  19.380  0.00  0.00    +0.000 A 
ENDROOT
BRANCH   9  12
ATOM     12  C   UNL     1       0.844   9.599  18.960  0.00  0.00    +0.000 C 
ATOM     13  O   UNL     1       0.059   9.903  18.069  0.00  0.00    +0.000 OA
ATOM     14  N   UNL     1       0.881  10.224  20.202  0.00  0.00    +0.000 N 
ATOM     15  H   UNL     1       1.436   9.826  20.936  0.00  0.00    +0.000 HD
BRANCH  14  16
ATOM     16  C   UNL     1      -0.028  11.301  20.583  0.00  0.00    +0.000 C 
ATOM     17  C   UNL     1      -0.139  11.377  22.111  0.00  0.00    +0.000 C 
BRANCH  16  18
ATOM     18  C   UNL     1       0.339  12.645  19.942  0.00  0.00    +0.000 A 
ATOM     19  C   UNL     1      -0.601  13.205  19.052  0.00  0.00    +0.000 A 
ATOM     20  C   UNL     1      -0.367  14.441  18.465  0.00  0.00    +0.000 A 
ATOM     21  N   UNL     1       0.726  15.181  18.686  0.00  0.00    +0.000 NA
ATOM     22  C   UNL     1       1.641  14.638  19.529  0.00  0.00    +0.000 A 
ATOM     23  C   UNL     1       1.503  13.399  20.165  0.00  0.00    +0.000 A 
ATOM     24 CL   UNL     1       2.806  12.888  21.170  0.00  0.00    +0.000 Cl
ENDBRANCH  16  18
ENDBRANCH  14  16
ENDBRANCH   9  12
BRANCH   5  25
ATOM     25  C   UNL     1       5.718   5.045  17.676  0.00  0.00    +0.000 C 
BRANCH  25  26
ATOM     26  C   UNL     1       6.753   6.145  17.812  0.00  0.00    +0.000 A 
ATOM     27  C   UNL     1       7.683   6.168  18.842  0.00  0.00    +0.000 A 
ATOM     28  C   UNL     1       8.422   7.320  19.124  0.00  0.00    +0.000 A 
ATOM     29  C   UNL     1       8.295   8.477  18.330  0.00  0.00    +0.000 A 
ATOM     30  C   UNL     1       7.481   8.384  17.195  0.00  0.00    +0.000 A 
ATOM     31  C   UNL     1       6.709   7.243  16.933  0.00  0.00    +0.000 A 
BRANCH  29  32
ATOM     32  C   UNL     1       8.920   9.761  18.729  0.00  0.00    +0.000 A 
ATOM     33  C   UNL     1       9.275  10.739  17.789  0.00  0.00    +0.000 A 
ATOM     34  C   UNL     1       9.942  11.911  18.163  0.00  0.00    +0.000 A 
ATOM     35  C   UNL     1      10.256  12.132  19.505  0.00  0.00    +0.000 A 
ATOM     36  C   UNL     1       9.891  11.201  20.461  0.00  0.00    +0.000 A 
ATOM     37  C   UNL     1       9.234  10.026  20.082  0.00  0.00    +0.000 A 
ENDBRANCH  29  32
ENDBRANCH  25  26
ENDBRANCH   5  25
TORSDOF 6
ENDMDL
MODEL 9
REMARK VINA RESULT:      -8.4      1.300      1.770
REMARK  Name = 
REMARK  9 active torsions:
REMARK  status: ('A' for Active; 'I' for Inactive)
REMARK    1  A    between atoms: C_1  and  C_2
REMARK    2  A    between atoms: C_3  and  C_4
REMARK    3  A    between atoms: N_5  and  C_6
REMARK    4  A    between atoms: C_6  and  C_7
REMARK    5  A    between atoms: C_10  and  C_11
REMARK    6  A    between atoms: C_22  and  C_23
REMARK    7  A    between atoms: N_25  and  C_26
REMARK    8  A    between atoms: C_26  and  C_27
REMARK    9  A    between atoms: C_26  and  C_28
REMARK                            x       y       z     vdW  Elec       q    Type
REMARK                         _______ _______ _______ _____ _____    ______ ____
ROOT
ATOM      1  C   UNL     1       1.152   2.927  20.036  0.00  0.00    +0.000 C 
ATOM      2  C   UNL     1       2.183   3.683  19.271  0.00  0.00    +0.000 A 
ATOM      3  C   UNL     1       3.141   3.176  18.404  0.00  0.00    +0.000 A 
ATOM      4  C   UNL     1       3.424   1.768  18.002  0.00  0.00    +0.000 C 
ATOM      5  N   UNL     1       3.868   4.250  17.897  0.00  0.00    +0.000 N 
ATOM      6  C   UNL     1       3.326   5.434  18.372  0.00  0.00    +0.000 A 
ATOM      7  C   UNL     1       3.612   6.774  18.074  0.00  0.00    +0.000 A 
ATOM      8  C   UNL     1       2.984   7.783  18.818  0.00  0.00    +0.000 A 
ATOM      9  C   UNL     1       2.024   7.490  19.786  0.00  0.00    +0.000 A 
ATOM     10  C   UNL     1       1.665   6.148  20.004  0.00  0.00    +0.000 A 
ATOM     11  C   UNL     1       2.332   5.109  19.297  0.00  0.00    +0.000 A 
ENDROOT
BRANCH   9  12
ATOM     12  C   UNL     1       1.318   8.593  20.525  0.00  0.00    +0.000 C 
ATOM     13  O   UNL     1       1.059   8.469  21.717  0.00  0.00    +0.000 OA
ATOM     14  N   UNL     1       1.016   9.730  19.783  0.00  0.00    +0.000 N 
ATOM     15  H   UNL     1       1.392   9.827  18.859  0.00  0.00    +0.000 HD
BRANCH  14  16
ATOM     16  C   UNL     1       0.372  10.910  20.354  0.00  0.00    +0.000 C 
ATOM     17  C   UNL     1       1.306  12.121  20.242  0.00  0.00    +0.000 C 
BRANCH  16  18
ATOM     18  C   UNL     1      -1.020  11.171  19.767  0.00  0.00    +0.000 A 
ATOM     19  C   UNL     1      -1.869  12.029  20.496  0.00  0.00    +0.000 A 
ATOM     20  C   UNL     1      -3.128  12.356  20.012  0.00  0.00    +0.000 A 
ATOM     21  N   UNL     1      -3.626  11.905  18.854  0.00  0.00    +0.000 NA
ATOM     22  C   UNL     1      -2.818  11.065  18.156  0.00  0.00    +0.000 A 
ATOM     23  C   UNL     1      -1.538  10.670  18.561  0.00  0.00    +0.000 A 
ATOM     24 CL   UNL     1      -0.700   9.569  17.534  0.00  0.00    +0.000 Cl
ENDBRANCH  16  18
ENDBRANCH  14  16
ENDBRANCH   9  12
BRANCH   5  25
ATOM     25  C   UNL     1       5.085   4.115  17.075  0.00  0.00    +0.000 C 
BRANCH  25  26
ATOM     26  C   UNL     1       6.104   5.228  17.228  0.00  0.00    +0.000 A 
ATOM     27  C   UNL     1       6.987   5.288  18.296  0.00  0.00    +0.000 A 
ATOM     28  C   UNL     1       7.703   6.454  18.579  0.00  0.00    +0.000 A 
ATOM     29  C   UNL     1       7.602   7.587  17.750  0.00  0.00    +0.000 A 
ATOM     30  C   UNL     1       6.840   7.457  16.583  0.00  0.00    +0.000 A 
ATOM     31  C   UNL     1       6.090   6.302  16.318  0.00  0.00    +0.000 A 
BRANCH  29  32
ATOM     32  C   UNL     1       8.198   8.887  18.142  0.00  0.00    +0.000 A 
ATOM     33  C   UNL     1       8.004  10.053  17.385  0.00  0.00    +0.000 A 
ATOM     34  C   UNL     1       8.638  11.256  17.712  0.00  0.00    +0.000 A 
ATOM     35  C   UNL     1       9.477  11.317  18.826  0.00  0.00    +0.000 A 
ATOM     36  C   UNL     1       9.663  10.194  19.612  0.00  0.00    +0.000 A 
ATOM     37  C   UNL     1       9.036   8.990  19.275  0.00  0.00    +0.000 A 
ENDBRANCH  29  32
ENDBRANCH  25  26
ENDBRANCH   5  25
TORSDOF 6
ENDMDL
