MODEL 1
REMARK VINA RESULT:      -8.1      0.000      0.000
REMARK  Name = 
REMARK  8 active torsions:
REMARK  status: ('A' for Active; 'I' for Inactive)
REMARK    1  A    between atoms: C_1  and  C_2
REMARK    2  A    between atoms: C_2  and  C_3
REMARK    3  A    between atoms: C_10  and  C_11
REMARK    4  A    between atoms: C_14  and  O_15
REMARK    5  A    between atoms: O_15  and  C_16
REMARK    6  A    between atoms: C_16  and  C_17
REMARK    7  A    between atoms: C_25  and  O_26
REMARK    8  A    between atoms: O_26  and  C_27
REMARK                            x       y       z     vdW  Elec       q    Type
REMARK                         _______ _______ _______ _____ _____    ______ ____
ROOT
ATOM      1  C   UNL     1       2.654   6.337  19.315  0.00  0.00    +0.000 A 
ATOM      2  C   UNL     1       2.549   6.898  18.035  0.00  0.00    +0.000 A 
ATOM      3  C   UNL     1       2.089   8.199  17.848  0.00  0.00    +0.000 A 
ATOM      4  C   UNL     1       1.551   8.922  18.913  0.00  0.00    +0.000 A 
ATOM      5  C   UNL     1       1.523   8.340  20.186  0.00  0.00    +0.000 A 
ATOM      6  C   UNL     1       2.129   7.088  20.380  0.00  0.00    +0.000 A 
ENDROOT
BRANCH   1  14
ATOM      7  C   UNL     1       2.632   3.853  19.879  0.00  0.00    +0.000 A 
ATOM      8  N   UNL     1       3.263   2.673  20.086  0.00  0.00    +0.000 NA
ATOM      9  C   UNL     1       4.576   2.630  19.891  0.00  0.00    +0.000 A 
ATOM     10  N   UNL     1       5.192   1.403  20.014  0.00  0.00    +0.000 N 
ATOM     11  N   UNL     1       5.322   3.658  19.506  0.00  0.00    +0.000 NA
ATOM     12  C   UNL     1       4.702   4.835  19.353  0.00  0.00    +0.000 A 
ATOM     13  N   UNL     1       5.563   5.865  18.952  0.00  0.00    +0.000 N 
ATOM     14  C   UNL     1       3.321   5.026  19.528  0.00  0.00    +0.000 A 
ATOM     15  H   UNL     1       4.497   0.678  19.879  0.00  0.00    +0.000 HD
ATOM     16  H   UNL     1       5.996   1.377  19.402  0.00  0.00    +0.000 HD
ATOM     17  H   UNL     1       6.505   5.479  18.945  0.00  0.00    +0.000 HD
ATOM     18  H   UNL     1       5.485   6.675  19.558  0.00  0.00    +0.000 HD
BRANCH   7  20
ATOM     19  C   UNL     1       0.387   2.844  19.141  0.00  0.00    +0.000 C 
ATOM     20  C   UNL     1       1.127   3.804  20.064  0.00  0.00    +0.000 C 
ENDBRANCH   7  20
ENDBRANCH   1  14
BRANCH   5  21
ATOM     21  O   UNL     1       0.929   9.047  21.203  0.00  0.00    +0.000 OA
ATOM     22  C   UNL     1      -0.308   8.507  21.669  0.00  0.00    +0.000 C 
ENDBRANCH   5  21
BRANCH   4  23
ATOM     23  O   UNL     1       1.025  10.181  18.777  0.00  0.00    +0.000 OA
BRANCH  23  24
ATOM     24  C   UNL     1      -0.207  10.251  18.054  0.00  0.00    +0.000 C 
BRANCH  24  25
ATOM     25  C   UNL     1      -1.211  11.145  18.739  0.00  0.00    +0.000 A 
ATOM     26  C   UNL     1      -0.850  11.856  19.896  0.00  0.00    +0.000 A 
ATOM     27  C   UNL     1      -1.801  12.592  20.601  0.00  0.00    +0.000 A 
ATOM     28  C   UNL     1      -3.119  12.619  20.159  0.00  0.00    +0.000 A 
ATOM     29 CL   UNL     1      -4.300  13.490  21.058  0.00  0.00    +0.000 Cl
ATOM     30  C   UNL     1      -3.499  11.925  19.016  0.00  0.00    +0.000 A 
ATOM     31  C   UNL     1      -2.548  11.186  18.310  0.00  0.00    +0.000 A 
ATOM     32 CL   UNL     1      -3.090  10.297  16.928  0.00  0.00    +0.000 Cl
ENDBRANCH  24  25
ENDBRANCH  23  24
ENDBRANCH   4  23
TORSDOF 6
ENDMDL
MODEL 2
REMARK VINA RESULT:      -8.1      1.174      1.784
REMARK  Name = 
REMARK  8 active torsions:
REMARK  status: ('A' for Active; 'I' for Inactive)
REMARK    1  A    between atoms: C_1  and  C_2
REMARK    2  A    between atoms: C_2  and  C_3
REMARK    3  A    between atoms: C_10  and  C_11
REMARK    4  A    between atoms: C_14  and  O_15
REMARK    5  A    between atoms: O_15  and  C_16
REMARK    6  A    between atoms: C_16  and  C_17
REMARK    7  A    between atoms: C_25  and  O_26
REMARK    8  A    between atoms: O_26  and  C_27
REMARK                            x       y       z     vdW  Elec       q    Type
REMARK                         _______ _______ _______ _____ _____    ______ ____
ROOT
ATOM      1  C   UNL     1       2.554   6.238  19.572  0.00  0.00    +0.000 A 
ATOM      2  C   UNL     1       2.564   6.956  18.368  0.00  0.00    +0.000 A 
ATOM      3  C   UNL     1       2.094   8.265  18.301  0.00  0.00    +0.000 A 
ATOM      4  C   UNL     1       1.435   8.841  19.387  0.00  0.00    +0.000 A 
ATOM      5  C   UNL     1       1.294   8.101  20.568  0.00  0.00    +0.000 A 
ATOM      6  C   UNL     1       1.908   6.841  20.664  0.00  0.00    +0.000 A 
ENDROOT
BRANCH   1  14
ATOM      7  C   UNL     1       2.543   3.717  19.938  0.00  0.00    +0.000 A 
ATOM      8  N   UNL     1       3.179   2.528  20.056  0.00  0.00    +0.000 NA
ATOM      9  C   UNL     1       4.493   2.507  19.866  0.00  0.00    +0.000 A 
ATOM     10  N   UNL     1       5.116   1.277  19.896  0.00  0.00    +0.000 N 
ATOM     11  N   UNL     1       5.236   3.566  19.568  0.00  0.00    +0.000 NA
ATOM     12  C   UNL     1       4.610   4.748  19.505  0.00  0.00    +0.000 A 
ATOM     13  N   UNL     1       5.468   5.811  19.191  0.00  0.00    +0.000 N 
ATOM     14  C   UNL     1       3.227   4.918  19.685  0.00  0.00    +0.000 A 
ATOM     15  H   UNL     1       4.426   0.562  19.700  0.00  0.00    +0.000 HD
ATOM     16  H   UNL     1       5.924   1.304  19.290  0.00  0.00    +0.000 HD
ATOM     17  H   UNL     1       6.412   5.432  19.160  0.00  0.00    +0.000 HD
ATOM     18  H   UNL     1       5.381   6.571  19.858  0.00  0.00    +0.000 HD
BRANCH   7  20
ATOM     19  C   UNL     1       0.301   2.815  19.065  0.00  0.00    +0.000 C 
ATOM     20  C   UNL     1       1.037   3.646  20.109  0.00  0.00    +0.000 C 
ENDBRANCH   7  20
ENDBRANCH   1  14
BRANCH   5  21
ATOM     21  O   UNL     1       0.585   8.666  21.600  0.00  0.00    +0.000 OA
ATOM     22  C   UNL     1       1.384   9.278  22.613  0.00  0.00    +0.000 C 
ENDBRANCH   5  21
BRANCH   4  23
ATOM     23  O   UNL     1       0.896  10.101  19.358  0.00  0.00    +0.000 OA
BRANCH  23  24
ATOM     24  C   UNL     1       0.409  10.525  18.082  0.00  0.00    +0.000 C 
BRANCH  24  25
ATOM     25  C   UNL     1      -1.096  10.626  18.058  0.00  0.00    +0.000 A 
ATOM     26  C   UNL     1      -1.844   9.811  17.191  0.00  0.00    +0.000 A 
ATOM     27  C   UNL     1      -3.223   9.977  17.077  0.00  0.00    +0.000 A 
ATOM     28  C   UNL     1      -3.864  10.961  17.823  0.00  0.00    +0.000 A 
ATOM     29 CL   UNL     1      -5.560  11.194  17.645  0.00  0.00    +0.000 Cl
ATOM     30  C   UNL     1      -3.145  11.776  18.689  0.00  0.00    +0.000 A 
ATOM     31  C   UNL     1      -1.763  11.612  18.802  0.00  0.00    +0.000 A 
ATOM     32 CL   UNL     1      -0.912  12.694  19.852  0.00  0.00    +0.000 Cl
ENDBRANCH  24  25
ENDBRANCH  23  24
ENDBRANCH   4  23
TORSDOF 6
ENDMDL
MODEL 3
REMARK VINA RESULT:      -8.0      1.474      2.712
REMARK  Name = 
REMARK  8 active torsions:
REMARK  status: ('A' for Active; 'I' for Inactive)
REMARK    1  A    between atoms: C_1  and  C_2
REMARK    2  A    between atoms: C_2  and  C_3
REMARK    3  A    between atoms: C_10  and  C_11
REMARK    4  A    between atoms: C_14  and  O_15
REMARK    5  A    between atoms: O_15  and  C_16
REMARK    6  A    between atoms: C_16  and  C_17
REMARK    7  A    between atoms: C_25  and  O_26
REMARK    8  A    between atoms: O_26  and  C_27
REMARK                            x       y       z     vdW  Elec       q    Type
REMARK                         _______ _______ _______ _____ _____    ______ ____
ROOT
ATOM      1  C   UNL     1       2.277   6.233  19.146  0.00  0.00    +0.000 A 
ATOM      2  C   UNL     1       2.165   7.104  18.054  0.00  0.00    +0.000 A 
ATOM      3  C   UNL     1       1.877   8.454  18.230  0.00  0.00    +0.000 A 
ATOM      4  C   UNL     1       1.516   8.947  19.484  0.00  0.00    +0.000 A 
ATOM      5  C   UNL     1       1.493   8.072  20.578  0.00  0.00    +0.000 A 
ATOM      6  C   UNL     1       1.933   6.750  20.406  0.00  0.00    +0.000 A 
ENDROOT
BRANCH   1  14
ATOM      7  C   UNL     1       4.032   4.525  18.445  0.00  0.00    +0.000 A 
ATOM      8  N   UNL     1       4.452   3.249  18.277  0.00  0.00    +0.000 NA
ATOM      9  C   UNL     1       3.648   2.274  18.685  0.00  0.00    +0.000 A 
ATOM     10  N   UNL     1       4.126   0.983  18.595  0.00  0.00    +0.000 N 
ATOM     11  N   UNL     1       2.460   2.452  19.247  0.00  0.00    +0.000 NA
ATOM     12  C   UNL     1       2.026   3.714  19.362  0.00  0.00    +0.000 A 
ATOM     13  N   UNL     1       0.762   3.811  19.960  0.00  0.00    +0.000 N 
ATOM     14  C   UNL     1       2.769   4.841  18.972  0.00  0.00    +0.000 A 
ATOM     15  H   UNL     1       5.139   1.015  18.570  0.00  0.00    +0.000 HD
ATOM     16  H   UNL     1       3.709   0.428  19.329  0.00  0.00    +0.000 HD
ATOM     17  H   UNL     1       0.426   2.861  20.101  0.00  0.00    +0.000 HD
ATOM     18  H   UNL     1       0.124   4.364  19.398  0.00  0.00    +0.000 HD
BRANCH   7  20
ATOM     19  C   UNL     1       5.220   5.718  16.504  0.00  0.00    +0.000 C 
ATOM     20  C   UNL     1       5.032   5.580  18.009  0.00  0.00    +0.000 C 
ENDBRANCH   7  20
ENDBRANCH   1  14
BRANCH   5  21
ATOM     21  O   UNL     1       1.073   8.568  21.788  0.00  0.00    +0.000 OA
ATOM     22  C   UNL     1      -0.343   8.584  21.972  0.00  0.00    +0.000 C 
ENDBRANCH   5  21
BRANCH   4  23
ATOM     23  O   UNL     1       1.161  10.252  19.706  0.00  0.00    +0.000 OA
BRANCH  23  24
ATOM     24  C   UNL     1       0.691  10.959  18.555  0.00  0.00    +0.000 C 
BRANCH  24  25
ATOM     25  C   UNL     1      -0.812  10.913  18.439  0.00  0.00    +0.000 A 
ATOM     26  C   UNL     1      -1.424  10.026  17.537  0.00  0.00    +0.000 A 
ATOM     27  C   UNL     1      -2.803  10.056  17.339  0.00  0.00    +0.000 A 
ATOM     28  C   UNL     1      -3.580  10.976  18.035  0.00  0.00    +0.000 A 
ATOM     29 CL   UNL     1      -5.277  11.042  17.753  0.00  0.00    +0.000 Cl
ATOM     30  C   UNL     1      -2.997  11.861  18.934  0.00  0.00    +0.000 A 
ATOM     31  C   UNL     1      -1.615  11.833  19.132  0.00  0.00    +0.000 A 
ATOM     32 CL   UNL     1      -0.939  12.997  20.220  0.00  0.00    +0.000 Cl
ENDBRANCH  24  25
ENDBRANCH  23  24
ENDBRANCH   4  23
TORSDOF 6
ENDMDL
MODEL 4
REMARK VINA RESULT:      -7.9      0.724      2.105
REMARK  Name = 
REMARK  8 active torsions:
REMARK  status: ('A' for Active; 'I' for Inactive)
REMARK    1  A    between atoms: C_1  and  C_2
REMARK    2  A    between atoms: C_2  and  C_3
REMARK    3  A    between atoms: C_10  and  C_11
REMARK    4  A    between atoms: C_14  and  O_15
REMARK    5  A    between atoms: O_15  and  C_16
REMARK    6  A    between atoms: C_16  and  C_17
REMARK    7  A    between atoms: C_25  and  O_26
REMARK    8  A    between atoms: O_26  and  C_27
REMARK                            x       y       z     vdW  Elec       q    Type
REMARK                         _______ _______ _______ _____ _____    ______ ____
ROOT
ATOM      1  C   UNL     1       2.581   6.313  19.271  0.00  0.00    +0.000 A 
ATOM      2  C   UNL     1       2.422   6.871  17.995  0.00  0.00    +0.000 A 
ATOM      3  C   UNL     1       1.954   8.172  17.826  0.00  0.00    +0.000 A 
ATOM      4  C   UNL     1       1.461   8.896  18.911  0.00  0.00    +0.000 A 
ATOM      5  C   UNL     1       1.487   8.316  20.186  0.00  0.00    +0.000 A 
ATOM      6  C   UNL     1       2.101   7.065  20.356  0.00  0.00    +0.000 A 
ENDROOT
BRANCH   1  14
ATOM      7  C   UNL     1       4.618   4.786  19.191  0.00  0.00    +0.000 A 
ATOM      8  N   UNL     1       5.209   3.578  19.349  0.00  0.00    +0.000 NA
ATOM      9  C   UNL     1       4.469   2.585  19.828  0.00  0.00    +0.000 A 
ATOM     10  N   UNL     1       5.104   1.386  20.073  0.00  0.00    +0.000 N 
ATOM     11  N   UNL     1       3.189   2.685  20.167  0.00  0.00    +0.000 NA
ATOM     12  C   UNL     1       2.596   3.867  19.959  0.00  0.00    +0.000 A 
ATOM     13  N   UNL     1       1.247   3.883  20.337  0.00  0.00    +0.000 N 
ATOM     14  C   UNL     1       3.256   5.002  19.457  0.00  0.00    +0.000 A 
ATOM     15  H   UNL     1       6.095   1.563  20.188  0.00  0.00    +0.000 HD
ATOM     16  H   UNL     1       4.637   0.918  20.838  0.00  0.00    +0.000 HD
ATOM     17  H   UNL     1       1.007   2.935  20.619  0.00  0.00    +0.000 HD
ATOM     18  H   UNL     1       0.653   4.222  19.588  0.00  0.00    +0.000 HD
BRANCH   7  20
ATOM     19  C   UNL     1       7.027   5.524  18.685  0.00  0.00    +0.000 C 
ATOM     20  C   UNL     1       5.546   5.881  18.697  0.00  0.00    +0.000 C 
ENDBRANCH   7  20
ENDBRANCH   1  14
BRANCH   5  21
ATOM     21  O   UNL     1       0.936   9.025  21.226  0.00  0.00    +0.000 OA
ATOM     22  C   UNL     1      -0.355   8.578  21.641  0.00  0.00    +0.000 C 
ENDBRANCH   5  21
BRANCH   4  23
ATOM     23  O   UNL     1       0.929  10.155  18.796  0.00  0.00    +0.000 OA
BRANCH  23  24
ATOM     24  C   UNL     1      -0.276  10.239  18.030  0.00  0.00    +0.000 C 
BRANCH  24  25
ATOM     25  C   UNL     1      -1.301  11.129  18.688  0.00  0.00    +0.000 A 
ATOM     26  C   UNL     1      -0.965  11.860  19.840  0.00  0.00    +0.000 A 
ATOM     27  C   UNL     1      -1.935  12.593  20.522  0.00  0.00    +0.000 A 
ATOM     28  C   UNL     1      -3.247  12.596  20.062  0.00  0.00    +0.000 A 
ATOM     29 CL   UNL     1      -4.452  13.464  20.933  0.00  0.00    +0.000 Cl
ATOM     30  C   UNL     1      -3.602  11.882  18.924  0.00  0.00    +0.000 A 
ATOM     31  C   UNL     1      -2.631  11.146  18.241  0.00  0.00    +0.000 A 
ATOM     32 CL   UNL     1      -3.143  10.231  16.864  0.00  0.00    +0.000 Cl
ENDBRANCH  24  25
ENDBRANCH  23  24
ENDBRANCH   4  23
TORSDOF 6
ENDMDL
MODEL 5
REMARK VINA RESULT:      -7.8      5.103      8.701
REMARK  Name = 
REMARK  8 active torsions:
REMARK  status: ('A' for Active; 'I' for Inactive)
REMARK    1  A    between atoms: C_1  and  C_2
REMARK    2  A    between atoms: C_2  and  C_3
REMARK    3  A    between atoms: C_10  and  C_11
REMARK    4  A    between atoms: C_14  and  O_15
REMARK    5  A    between atoms: O_15  and  C_16
REMARK    6  A    between atoms: C_16  and  C_17
REMARK    7  A    between atoms: C_25  and  O_26
REMARK    8  A    between atoms: O_26  and  C_27
REMARK                            x       y       z     vdW  Elec       q    Type
REMARK                         _______ _______ _______ _____ _____    ______ ____
ROOT
ATOM      1  C   UNL     1       1.684   8.019  19.825  0.00  0.00    +0.000 A 
ATOM      2  C   UNL     1       2.428   8.018  18.637  0.00  0.00    +0.000 A 
ATOM      3  C   UNL     1       2.939   6.839  18.103  0.00  0.00    +0.000 A 
ATOM      4  C   UNL     1       2.879   5.647  18.824  0.00  0.00    +0.000 A 
ATOM      5  C   UNL     1       2.253   5.640  20.077  0.00  0.00    +0.000 A 
ATOM      6  C   UNL     1       1.613   6.805  20.529  0.00  0.00    +0.000 A 
ENDROOT
BRANCH   1  14
ATOM      7  C   UNL     1       0.163  10.030  19.465  0.00  0.00    +0.000 A 
ATOM      8  N   UNL     1      -0.453  11.153  19.905  0.00  0.00    +0.000 NA
ATOM      9  C   UNL     1      -0.309  11.475  21.186  0.00  0.00    +0.000 A 
ATOM     10  N   UNL     1      -1.015  12.567  21.644  0.00  0.00    +0.000 N 
ATOM     11  N   UNL     1       0.393  10.780  22.072  0.00  0.00    +0.000 NA
ATOM     12  C   UNL     1       1.043   9.700  21.619  0.00  0.00    +0.000 A 
ATOM     13  N   UNL     1       1.762   9.029  22.617  0.00  0.00    +0.000 N 
ATOM     14  C   UNL     1       0.982   9.243  20.291  0.00  0.00    +0.000 A 
ATOM     15  H   UNL     1      -1.801  12.727  21.024  0.00  0.00    +0.000 HD
ATOM     16  H   UNL     1      -1.232  12.430  22.622  0.00  0.00    +0.000 HD
ATOM     17  H   UNL     1       1.682   9.585  23.466  0.00  0.00    +0.000 HD
ATOM     18  H   UNL     1       2.729   8.882  22.346  0.00  0.00    +0.000 HD
BRANCH   7  20
ATOM     19  C   UNL     1      -1.513   9.989  17.517  0.00  0.00    +0.000 C 
ATOM     20  C   UNL     1      -0.100   9.699  18.007  0.00  0.00    +0.000 C 
ENDBRANCH   7  20
ENDBRANCH   1  14
BRANCH   5  21
ATOM     21  O   UNL     1       2.264   4.469  20.795  0.00  0.00    +0.000 OA
ATOM     22  C   UNL     1       1.086   3.673  20.665  0.00  0.00    +0.000 C 
ENDBRANCH   5  21
BRANCH   4  23
ATOM     23  O   UNL     1       3.420   4.469  18.377  0.00  0.00    +0.000 OA
BRANCH  23  24
ATOM     24  C   UNL     1       4.846   4.387  18.452  0.00  0.00    +0.000 C 
BRANCH  24  25
ATOM     25  C   UNL     1       5.495   4.631  17.112  0.00  0.00    +0.000 A 
ATOM     26  C   UNL     1       4.832   4.263  15.929  0.00  0.00    +0.000 A 
ATOM     27  C   UNL     1       5.469   4.377  14.695  0.00  0.00    +0.000 A 
ATOM     28  C   UNL     1       6.775   4.854  14.634  0.00  0.00    +0.000 A 
ATOM     29 CL   UNL     1       7.575   4.949  13.113  0.00  0.00    +0.000 Cl
ATOM     30  C   UNL     1       7.449   5.226  15.790  0.00  0.00    +0.000 A 
ATOM     31  C   UNL     1       6.812   5.110  17.028  0.00  0.00    +0.000 A 
ATOM     32 CL   UNL     1       7.721   5.534  18.438  0.00  0.00    +0.000 Cl
ENDBRANCH  24  25
ENDBRANCH  23  24
ENDBRANCH   4  23
TORSDOF 6
ENDMDL
MODEL 6
REMARK VINA RESULT:      -7.7      1.404      2.764
REMARK  Name = 
REMARK  8 active torsions:
REMARK  status: ('A' for Active; 'I' for Inactive)
REMARK    1  A    between atoms: C_1  and  C_2
REMARK    2  A    between atoms: C_2  and  C_3
REMARK    3  A    between atoms: C_10  and  C_11
REMARK    4  A    between atoms: C_14  and  O_15
REMARK    5  A    between atoms: O_15  and  C_16
REMARK    6  A    between atoms: C_16  and  C_17
REMARK    7  A    between atoms: C_25  and  O_26
REMARK    8  A    between atoms: O_26  and  C_27
REMARK                            x       y       z     vdW  Elec       q    Type
REMARK                         _______ _______ _______ _____ _____    ______ ____
ROOT
ATOM      1  C   UNL     1       2.526   6.181  19.414  0.00  0.00    +0.000 A 
ATOM      2  C   UNL     1       2.507   6.878  18.198  0.00  0.00    +0.000 A 
ATOM      3  C   UNL     1       2.051   8.191  18.121  0.00  0.00    +0.000 A 
ATOM      4  C   UNL     1       1.433   8.793  19.217  0.00  0.00    +0.000 A 
ATOM      5  C   UNL     1       1.319   8.076  20.415  0.00  0.00    +0.000 A 
ATOM      6  C   UNL     1       1.921   6.811  20.514  0.00  0.00    +0.000 A 
ENDROOT
BRANCH   1  14
ATOM      7  C   UNL     1       4.541   4.633  19.230  0.00  0.00    +0.000 A 
ATOM      8  N   UNL     1       5.118   3.412  19.323  0.00  0.00    +0.000 NA
ATOM      9  C   UNL     1       4.372   2.408  19.771  0.00  0.00    +0.000 A 
ATOM     10  N   UNL     1       4.995   1.191  19.951  0.00  0.00    +0.000 N 
ATOM     11  N   UNL     1       3.100   2.509  20.136  0.00  0.00    +0.000 NA
ATOM     12  C   UNL     1       2.520   3.707  19.991  0.00  0.00    +0.000 A 
ATOM     13  N   UNL     1       1.178   3.723  20.394  0.00  0.00    +0.000 N 
ATOM     14  C   UNL     1       3.186   4.855  19.529  0.00  0.00    +0.000 A 
ATOM     15  H   UNL     1       5.990   1.351  20.056  0.00  0.00    +0.000 HD
ATOM     16  H   UNL     1       4.535   0.696  20.702  0.00  0.00    +0.000 HD
ATOM     17  H   UNL     1       0.929   2.767  20.638  0.00  0.00    +0.000 HD
ATOM     18  H   UNL     1       0.575   4.104  19.672  0.00  0.00    +0.000 HD
BRANCH   7  20
ATOM     19  C   UNL     1       6.960   5.450  18.944  0.00  0.00    +0.000 C 
ATOM     20  C   UNL     1       5.475   5.737  18.768  0.00  0.00    +0.000 C 
ENDBRANCH   7  20
ENDBRANCH   1  14
BRANCH   5  21
ATOM     21  O   UNL     1       0.650   8.668  21.457  0.00  0.00    +0.000 OA
ATOM     22  C   UNL     1       1.482   9.134  22.519  0.00  0.00    +0.000 C 
ENDBRANCH   5  21
BRANCH   4  23
ATOM     23  O   UNL     1       0.907  10.059  19.182  0.00  0.00    +0.000 OA
BRANCH  23  24
ATOM     24  C   UNL     1       0.399  10.473  17.911  0.00  0.00    +0.000 C 
BRANCH  24  25
ATOM     25  C   UNL     1      -1.106  10.568  17.910  0.00  0.00    +0.000 A 
ATOM     26  C   UNL     1      -1.869   9.685  17.127  0.00  0.00    +0.000 A 
ATOM     27  C   UNL     1      -3.251   9.838  17.028  0.00  0.00    +0.000 A 
ATOM     28  C   UNL     1      -3.880  10.876  17.706  0.00  0.00    +0.000 A 
ATOM     29 CL   UNL     1      -5.580  11.091  17.545  0.00  0.00    +0.000 Cl
ATOM     30  C   UNL     1      -3.146  11.760  18.488  0.00  0.00    +0.000 A 
ATOM     31  C   UNL     1      -1.762  11.609  18.586  0.00  0.00    +0.000 A 
ATOM     32 CL   UNL     1      -0.894  12.774  19.527  0.00  0.00    +0.000 Cl
ENDBRANCH  24  25
ENDBRANCH  23  24
ENDBRANCH   4  23
TORSDOF 6
ENDMDL
MODEL 7
REMARK VINA RESULT:      -7.6      2.423      2.709
REMARK  Name = 
REMARK  8 active torsions:
REMARK  status: ('A' for Active; 'I' for Inactive)
REMARK    1  A    between atoms: C_1  and  C_2
REMARK    2  A    between atoms: C_2  and  C_3
REMARK    3  A    between atoms: C_10  and  C_11
REMARK    4  A    between atoms: C_14  and  O_15
REMARK    5  A    between atoms: O_15  and  C_16
REMARK    6  A    between atoms: C_16  and  C_17
REMARK    7  A    between atoms: C_25  and  O_26
REMARK    8  A    between atoms: O_26  and  C_27
REMARK                            x       y       z     vdW  Elec       q    Type
REMARK                         _______ _______ _______ _____ _____    ______ ____
ROOT
ATOM      1  C   UNL     1       2.616   6.529  19.226  0.00  0.00    +0.000 A 
ATOM      2  C   UNL     1       2.494   7.084  17.945  0.00  0.00    +0.000 A 
ATOM      3  C   UNL     1       2.033   8.384  17.759  0.00  0.00    +0.000 A 
ATOM      4  C   UNL     1       1.510   9.113  18.827  0.00  0.00    +0.000 A 
ATOM      5  C   UNL     1       1.498   8.536  20.104  0.00  0.00    +0.000 A 
ATOM      6  C   UNL     1       2.106   7.285  20.295  0.00  0.00    +0.000 A 
ENDROOT
BRANCH   1  14
ATOM      7  C   UNL     1       2.595   4.039  19.764  0.00  0.00    +0.000 A 
ATOM      8  N   UNL     1       3.226   2.859  19.969  0.00  0.00    +0.000 NA
ATOM      9  C   UNL     1       4.542   2.823  19.793  0.00  0.00    +0.000 A 
ATOM     10  N   UNL     1       5.161   1.596  19.913  0.00  0.00    +0.000 N 
ATOM     11  N   UNL     1       5.290   3.857  19.429  0.00  0.00    +0.000 NA
ATOM     12  C   UNL     1       4.668   5.033  19.280  0.00  0.00    +0.000 A 
ATOM     13  N   UNL     1       5.532   6.070  18.901  0.00  0.00    +0.000 N 
ATOM     14  C   UNL     1       3.284   5.218  19.435  0.00  0.00    +0.000 A 
ATOM     15  H   UNL     1       4.470   0.870  19.761  0.00  0.00    +0.000 HD
ATOM     16  H   UNL     1       5.974   1.579  19.313  0.00  0.00    +0.000 HD
ATOM     17  H   UNL     1       6.475   5.688  18.905  0.00  0.00    +0.000 HD
ATOM     18  H   UNL     1       5.441   6.874  19.514  0.00  0.00    +0.000 HD
BRANCH   7  20
ATOM     19  C   UNL     1       0.401   2.807  19.243  0.00  0.00    +0.000 C 
ATOM     20  C   UNL     1       1.087   3.983  19.927  0.00  0.00    +0.000 C 
ENDBRANCH   7  20
ENDBRANCH   1  14
BRANCH   5  21
ATOM     21  O   UNL     1       0.919   9.249  21.125  0.00  0.00    +0.000 OA
ATOM     22  C   UNL     1      -0.250   8.652  21.687  0.00  0.00    +0.000 C 
ENDBRANCH   5  21
BRANCH   4  23
ATOM     23  O   UNL     1       0.983  10.372  18.693  0.00  0.00    +0.000 OA
BRANCH  23  24
ATOM     24  C   UNL     1       1.936  11.406  18.432  0.00  0.00    +0.000 C 
BRANCH  24  25
ATOM     25  C   UNL     1       1.360  12.778  18.679  0.00  0.00    +0.000 A 
ATOM     26  C   UNL     1      -0.019  12.935  18.899  0.00  0.00    +0.000 A 
ATOM     27  C   UNL     1      -0.578  14.207  19.012  0.00  0.00    +0.000 A 
ATOM     28  C   UNL     1       0.235  15.330  18.901  0.00  0.00    +0.000 A 
ATOM     29 CL   UNL     1      -0.465  16.900  18.995  0.00  0.00    +0.000 Cl
ATOM     30  C   UNL     1       1.601  15.199  18.687  0.00  0.00    +0.000 A 
ATOM     31  C   UNL     1       2.162  13.925  18.571  0.00  0.00    +0.000 A 
ATOM     32 CL   UNL     1       3.859  13.824  18.246  0.00  0.00    +0.000 Cl
ENDBRANCH  24  25
ENDBRANCH  23  24
ENDBRANCH   4  23
TORSDOF 6
ENDMDL
MODEL 8
REMARK VINA RESULT:      -7.6      1.901      2.500
REMARK  Name = 
REMARK  8 active torsions:
REMARK  status: ('A' for Active; 'I' for Inactive)
REMARK    1  A    between atoms: C_1  and  C_2
REMARK    2  A    between atoms: C_2  and  C_3
REMARK    3  A    between atoms: C_10  and  C_11
REMARK    4  A    between atoms: C_14  and  O_15
REMARK    5  A    between atoms: O_15  and  C_16
REMARK    6  A    between atoms: C_16  and  C_17
REMARK    7  A    between atoms: C_25  and  O_26
REMARK    8  A    between atoms: O_26  and  C_27
REMARK                            x       y       z     vdW  Elec       q    Type
REMARK                         _______ _______ _______ _____ _____    ______ ____
ROOT
ATOM      1  C   UNL     1       2.627   7.214  18.326  0.00  0.00    +0.000 A 
ATOM      2  C   UNL     1       2.216   8.289  17.527  0.00  0.00    +0.000 A 
ATOM      3  C   UNL     1       1.560   9.389  18.074  0.00  0.00    +0.000 A 
ATOM      4  C   UNL     1       1.134   9.375  19.402  0.00  0.00    +0.000 A 
ATOM      5  C   UNL     1       1.418   8.257  20.196  0.00  0.00    +0.000 A 
ATOM      6  C   UNL     1       2.211   7.226  19.668  0.00  0.00    +0.000 A 
ENDROOT
BRANCH   1  14
ATOM      7  C   UNL     1       3.031   4.836  17.506  0.00  0.00    +0.000 A 
ATOM      8  N   UNL     1       3.841   3.863  17.024  0.00  0.00    +0.000 NA
ATOM      9  C   UNL     1       5.100   4.185  16.752  0.00  0.00    +0.000 A 
ATOM     10  N   UNL     1       5.889   3.212  16.175  0.00  0.00    +0.000 N 
ATOM     11  N   UNL     1       5.631   5.390  16.916  0.00  0.00    +0.000 NA
ATOM     12  C   UNL     1       4.840   6.335  17.442  0.00  0.00    +0.000 A 
ATOM     13  N   UNL     1       5.481   7.573  17.585  0.00  0.00    +0.000 N 
ATOM     14  C   UNL     1       3.491   6.135  17.778  0.00  0.00    +0.000 A 
ATOM     15  H   UNL     1       5.286   2.533  15.725  0.00  0.00    +0.000 HD
ATOM     16  H   UNL     1       6.583   3.657  15.591  0.00  0.00    +0.000 HD
ATOM     17  H   UNL     1       6.453   7.438  17.318  0.00  0.00    +0.000 HD
ATOM     18  H   UNL     1       5.389   7.934  18.529  0.00  0.00    +0.000 HD
BRANCH   7  20
ATOM     19  C   UNL     1       1.353   3.579  18.990  0.00  0.00    +0.000 C 
ATOM     20  C   UNL     1       1.594   4.405  17.733  0.00  0.00    +0.000 C 
ENDBRANCH   7  20
ENDBRANCH   1  14
BRANCH   5  21
ATOM     21  O   UNL     1       0.932   8.241  21.481  0.00  0.00    +0.000 OA
ATOM     22  C   UNL     1       1.556   9.166  22.371  0.00  0.00    +0.000 C 
ENDBRANCH   5  21
BRANCH   4  23
ATOM     23  O   UNL     1       0.429  10.401  19.976  0.00  0.00    +0.000 OA
BRANCH  23  24
ATOM     24  C   UNL     1      -0.045  11.398  19.067  0.00  0.00    +0.000 C 
BRANCH  24  25
ATOM     25  C   UNL     1      -1.527  11.274  18.817  0.00  0.00    +0.000 A 
ATOM     26  C   UNL     1      -2.005  10.391  17.832  0.00  0.00    +0.000 A 
ATOM     27  C   UNL     1      -3.361  10.353  17.512  0.00  0.00    +0.000 A 
ATOM     28  C   UNL     1      -4.248  11.199  18.169  0.00  0.00    +0.000 A 
ATOM     29 CL   UNL     1      -5.915  11.183  17.740  0.00  0.00    +0.000 Cl
ATOM     30  C   UNL     1      -3.799  12.077  19.148  0.00  0.00    +0.000 A 
ATOM     31  C   UNL     1      -2.440  12.118  19.468  0.00  0.00    +0.000 A 
ATOM     32 CL   UNL     1      -1.931  13.272  20.652  0.00  0.00    +0.000 Cl
ENDBRANCH  24  25
ENDBRANCH  23  24
ENDBRANCH   4  23
TORSDOF 6
ENDMDL
MODEL 9
REMARK VINA RESULT:      -7.5      2.115      2.379
REMARK  Name = 
REMARK  8 active torsions:
REMARK  status: ('A' for Active; 'I' for Inactive)
REMARK    1  A    between atoms: C_1  and  C_2
REMARK    2  A    between atoms: C_2  and  C_3
REMARK    3  A    between atoms: C_10  and  C_11
REMARK    4  A    between atoms: C_14  and  O_15
REMARK    5  A    between atoms: O_15  and  C_16
REMARK    6  A    between atoms: C_16  and  C_17
REMARK    7  A    between atoms: C_25  and  O_26
REMARK    8  A    between atoms: O_26  and  C_27
REMARK                            x       y       z     vdW  Elec       q    Type
REMARK                         _______ _______ _______ _____ _____    ______ ____
ROOT
ATOM      1  C   UNL     1       2.622   6.383  19.372  0.00  0.00    +0.000 A 
ATOM      2  C   UNL     1       2.538   7.014  18.123  0.00  0.00    +0.000 A 
ATOM      3  C   UNL     1       2.110   8.333  18.005  0.00  0.00    +0.000 A 
ATOM      4  C   UNL     1       1.583   9.011  19.104  0.00  0.00    +0.000 A 
ATOM      5  C   UNL     1       1.534   8.363  20.344  0.00  0.00    +0.000 A 
ATOM      6  C   UNL     1       2.109   7.089  20.474  0.00  0.00    +0.000 A 
ENDROOT
BRANCH   1  14
ATOM      7  C   UNL     1       2.531   3.863  19.727  0.00  0.00    +0.000 A 
ATOM      8  N   UNL     1       3.131   2.658  19.876  0.00  0.00    +0.000 NA
ATOM      9  C   UNL     1       4.453   2.606  19.759  0.00  0.00    +0.000 A 
ATOM     10  N   UNL     1       5.043   1.361  19.819  0.00  0.00    +0.000 N 
ATOM     11  N   UNL     1       5.236   3.648  19.507  0.00  0.00    +0.000 NA
ATOM     12  C   UNL     1       4.643   4.844  19.414  0.00  0.00    +0.000 A 
ATOM     13  N   UNL     1       5.542   5.887  19.152  0.00  0.00    +0.000 N 
ATOM     14  C   UNL     1       3.256   5.047  19.517  0.00  0.00    +0.000 A 
ATOM     15  H   UNL     1       4.348   0.663  19.582  0.00  0.00    +0.000 HD
ATOM     16  H   UNL     1       5.884   1.370  19.258  0.00  0.00    +0.000 HD
ATOM     17  H   UNL     1       6.477   5.486  19.172  0.00  0.00    +0.000 HD
ATOM     18  H   UNL     1       5.436   6.647  19.816  0.00  0.00    +0.000 HD
BRANCH   7  20
ATOM     19  C   UNL     1       0.354   2.625  19.153  0.00  0.00    +0.000 C 
ATOM     20  C   UNL     1       1.016   3.827  19.814  0.00  0.00    +0.000 C 
ENDBRANCH   7  20
ENDBRANCH   1  14
BRANCH   5  21
ATOM     21  O   UNL     1       0.952   9.029  21.395  0.00  0.00    +0.000 OA
ATOM     22  C   UNL     1      -0.342   8.553  21.766  0.00  0.00    +0.000 C 
ENDBRANCH   5  21
BRANCH   4  23
ATOM     23  O   UNL     1       1.088  10.288  19.033  0.00  0.00    +0.000 OA
BRANCH  23  24
ATOM     24  C   UNL     1       1.768  11.155  18.122  0.00  0.00    +0.000 C 
BRANCH  24  25
ATOM     25  C   UNL     1       1.543  12.610  18.453  0.00  0.00    +0.000 A 
ATOM     26  C   UNL     1       2.617  13.413  18.874  0.00  0.00    +0.000 A 
ATOM     27  C   UNL     1       2.399  14.723  19.294  0.00  0.00    +0.000 A 
ATOM     28  C   UNL     1       1.108  15.240  19.301  0.00  0.00    +0.000 A 
ATOM     29 CL   UNL     1       0.837  16.845  19.864  0.00  0.00    +0.000 Cl
ATOM     30  C   UNL     1       0.032  14.466  18.887  0.00  0.00    +0.000 A 
ATOM     31  C   UNL     1       0.248  13.152  18.468  0.00  0.00    +0.000 A 
ATOM     32 CL   UNL     1      -1.138  12.217  18.019  0.00  0.00    +0.000 Cl
ENDBRANCH  24  25
ENDBRANCH  23  24
ENDBRANCH   4  23
TORSDOF 6
ENDMDL
