MODEL 1
REMARK VINA RESULT:      -7.3      0.000      0.000
REMARK  Name = 
REMARK  6 active torsions:
REMARK  status: ('A' for Active; 'I' for Inactive)
REMARK    1  A    between atoms: C_1  and  O_2
REMARK    2  A    between atoms: O_2  and  C_3
REMARK    3  A    between atoms: C_6  and  N_7
REMARK    4  A    between atoms: N_10  and  C_11
REMARK    5  A    between atoms: N_16  and  C_17
REMARK    6  A    between atoms: C_20  and  C_21
REMARK                            x       y       z     vdW  Elec       q    Type
REMARK                         _______ _______ _______ _____ _____    ______ ____
ROOT
ATOM      1  C   UNL     1      -0.031  10.640  19.816  0.00  0.00    +0.000 C 
ATOM      2  C   UNL     1      -1.205  10.863  19.216  0.00  0.00    +0.000 C 
ATOM      3 CL   UNL     1      -1.925  10.025  17.924  0.00  0.00    +0.000 Cl
ATOM      4  C   UNL     1      -1.937  11.928  19.912  0.00  0.00    +0.000 C 
ATOM      5  O   UNL     1      -3.015  12.361  19.531  0.00  0.00    +0.000 OA
ATOM      6  N   UNL     1      -1.166  12.323  20.967  0.00  0.00    +0.000 N 
ATOM      7  C   UNL     1       0.038  11.677  20.911  0.00  0.00    +0.000 C 
ATOM      8  O   UNL     1       1.035  11.857  21.597  0.00  0.00    +0.000 OA
ENDROOT
BRANCH   1  12
ATOM      9  N   UNL     1       2.340   7.316  18.757  0.00  0.00    +0.000 N 
ATOM     10  C   UNL     1       1.570   7.344  20.008  0.00  0.00    +0.000 C 
ATOM     11  C   UNL     1       1.507   8.770  20.594  0.00  0.00    +0.000 C 
ATOM     12  N   UNL     1       0.991   9.721  19.584  0.00  0.00    +0.000 N 
ATOM     13  C   UNL     1       1.808   9.704  18.340  0.00  0.00    +0.000 C 
ATOM     14  C   UNL     1       1.887   8.282  17.735  0.00  0.00    +0.000 C 
BRANCH   9  18
ATOM     15  C   UNL     1       5.875   5.061  18.263  0.00  0.00    +0.000 A 
ATOM     16  C   UNL     1       5.528   6.054  17.350  0.00  0.00    +0.000 A 
ATOM     17  C   UNL     1       4.363   6.806  17.530  0.00  0.00    +0.000 A 
ATOM     18  C   UNL     1       3.495   6.583  18.606  0.00  0.00    +0.000 A 
ATOM     19  C   UNL     1       3.856   5.563  19.499  0.00  0.00    +0.000 A 
ATOM     20  C   UNL     1       5.028   4.810  19.336  0.00  0.00    +0.000 A 
BRANCH  15  22
ATOM     21  C   UNL     1       7.475   4.461  16.639  0.00  0.00    +0.000 C 
ATOM     22  O   UNL     1       7.031   4.388  17.989  0.00  0.00    +0.000 OA
ENDBRANCH  15  22
ENDBRANCH   9  18
ENDBRANCH   1  12
BRANCH   6  23
ATOM     23  C   UNL     1      -1.559  13.272  21.947  0.00  0.00    +0.000 A 
ATOM     24  C   UNL     1      -2.459  12.907  22.964  0.00  0.00    +0.000 A 
ATOM     25  C   UNL     1      -2.822  13.804  23.973  0.00  0.00    +0.000 A 
ATOM     26  C   UNL     1      -2.316  15.107  23.983  0.00  0.00    +0.000 A 
ATOM     27  C   UNL     1      -1.429  15.486  22.968  0.00  0.00    +0.000 A 
ATOM     28  C   UNL     1      -1.048  14.576  21.971  0.00  0.00    +0.000 A 
BRANCH  26  29
ATOM     29  C   UNL     1      -2.708  16.088  25.060  0.00  0.00    +0.000 C 
ATOM     30  F   UNL     1      -4.028  16.032  25.393  0.00  0.00    +0.000 F 
ATOM     31  F   UNL     1      -2.024  15.889  26.221  0.00  0.00    +0.000 F 
ATOM     32  F   UNL     1      -2.469  17.379  24.700  0.00  0.00    +0.000 F 
ENDBRANCH  26  29
ENDBRANCH   6  23
TORSDOF 5
ENDMDL
MODEL 2
REMARK VINA RESULT:      -7.3      0.334      1.133
REMARK  Name = 
REMARK  6 active torsions:
REMARK  status: ('A' for Active; 'I' for Inactive)
REMARK    1  A    between atoms: C_1  and  O_2
REMARK    2  A    between atoms: O_2  and  C_3
REMARK    3  A    between atoms: C_6  and  N_7
REMARK    4  A    between atoms: N_10  and  C_11
REMARK    5  A    between atoms: N_16  and  C_17
REMARK    6  A    between atoms: C_20  and  C_21
REMARK                            x       y       z     vdW  Elec       q    Type
REMARK                         _______ _______ _______ _____ _____    ______ ____
ROOT
ATOM      1  C   UNL     1      -0.106  10.558  19.710  0.00  0.00    +0.000 C 
ATOM      2  C   UNL     1      -1.248  10.785  19.054  0.00  0.00    +0.000 C 
ATOM      3 CL   UNL     1      -1.888   9.977  17.702  0.00  0.00    +0.000 Cl
ATOM      4  C   UNL     1      -2.030  11.821  19.740  0.00  0.00    +0.000 C 
ATOM      5  O   UNL     1      -3.091  12.253  19.314  0.00  0.00    +0.000 OA
ATOM      6  N   UNL     1      -1.322  12.193  20.846  0.00  0.00    +0.000 N 
ATOM      7  C   UNL     1      -0.108  11.563  20.836  0.00  0.00    +0.000 C 
ATOM      8  O   UNL     1       0.849  11.733  21.579  0.00  0.00    +0.000 OA
ENDROOT
BRANCH   1  12
ATOM      9  N   UNL     1       2.348   7.265  18.746  0.00  0.00    +0.000 N 
ATOM     10  C   UNL     1       1.569   7.304  19.991  0.00  0.00    +0.000 C 
ATOM     11  C   UNL     1       1.469   8.743  20.542  0.00  0.00    +0.000 C 
ATOM     12  N   UNL     1       0.939   9.657  19.507  0.00  0.00    +0.000 N 
ATOM     13  C   UNL     1       1.765   9.629  18.269  0.00  0.00    +0.000 C 
ATOM     14  C   UNL     1       1.881   8.196  17.698  0.00  0.00    +0.000 C 
BRANCH   9  18
ATOM     15  C   UNL     1       5.938   5.081  18.330  0.00  0.00    +0.000 A 
ATOM     16  C   UNL     1       5.598   6.077  17.417  0.00  0.00    +0.000 A 
ATOM     17  C   UNL     1       4.414   6.805  17.571  0.00  0.00    +0.000 A 
ATOM     18  C   UNL     1       3.522   6.555  18.621  0.00  0.00    +0.000 A 
ATOM     19  C   UNL     1       3.876   5.533  19.514  0.00  0.00    +0.000 A 
ATOM     20  C   UNL     1       5.067   4.803  19.376  0.00  0.00    +0.000 A 
BRANCH  15  22
ATOM     21  C   UNL     1       7.540   4.438  16.724  0.00  0.00    +0.000 C 
ATOM     22  O   UNL     1       7.114   4.433  18.081  0.00  0.00    +0.000 OA
ENDBRANCH  15  22
ENDBRANCH   9  18
ENDBRANCH   1  12
BRANCH   6  23
ATOM     23  C   UNL     1      -1.778  13.109  21.831  0.00  0.00    +0.000 A 
ATOM     24  C   UNL     1      -1.503  14.482  21.701  0.00  0.00    +0.000 A 
ATOM     25  C   UNL     1      -1.984  15.413  22.626  0.00  0.00    +0.000 A 
ATOM     26  C   UNL     1      -2.736  14.997  23.728  0.00  0.00    +0.000 A 
ATOM     27  C   UNL     1      -3.005  13.630  23.875  0.00  0.00    +0.000 A 
ATOM     28  C   UNL     1      -2.541  12.702  22.932  0.00  0.00    +0.000 A 
BRANCH  26  29
ATOM     29  C   UNL     1      -3.252  15.990  24.740  0.00  0.00    +0.000 C 
ATOM     30  F   UNL     1      -2.964  17.284  24.428  0.00  0.00    +0.000 F 
ATOM     31  F   UNL     1      -4.605  15.935  24.881  0.00  0.00    +0.000 F 
ATOM     32  F   UNL     1      -2.737  15.782  25.983  0.00  0.00    +0.000 F 
ENDBRANCH  26  29
ENDBRANCH   6  23
TORSDOF 5
ENDMDL
MODEL 3
REMARK VINA RESULT:      -7.1      0.495      1.277
REMARK  Name = 
REMARK  6 active torsions:
REMARK  status: ('A' for Active; 'I' for Inactive)
REMARK    1  A    between atoms: C_1  and  O_2
REMARK    2  A    between atoms: O_2  and  C_3
REMARK    3  A    between atoms: C_6  and  N_7
REMARK    4  A    between atoms: N_10  and  C_11
REMARK    5  A    between atoms: N_16  and  C_17
REMARK    6  A    between atoms: C_20  and  C_21
REMARK                            x       y       z     vdW  Elec       q    Type
REMARK                         _______ _______ _______ _____ _____    ______ ____
ROOT
ATOM      1  C   UNL     1      -0.152  10.572  19.653  0.00  0.00    +0.000 C 
ATOM      2  C   UNL     1      -1.292  10.789  18.990  0.00  0.00    +0.000 C 
ATOM      3 CL   UNL     1      -1.910   9.986  17.626  0.00  0.00    +0.000 Cl
ATOM      4  C   UNL     1      -2.094  11.807  19.681  0.00  0.00    +0.000 C 
ATOM      5  O   UNL     1      -3.158  12.229  19.251  0.00  0.00    +0.000 OA
ATOM      6  N   UNL     1      -1.400  12.179  20.795  0.00  0.00    +0.000 N 
ATOM      7  C   UNL     1      -0.177  11.566  20.789  0.00  0.00    +0.000 C 
ATOM      8  O   UNL     1       0.772  11.743  21.541  0.00  0.00    +0.000 OA
ENDROOT
BRANCH   1  12
ATOM      9  N   UNL     1       2.355   7.320  18.687  0.00  0.00    +0.000 N 
ATOM     10  C   UNL     1       1.574   7.346  19.932  0.00  0.00    +0.000 C 
ATOM     11  C   UNL     1       1.452   8.782  20.484  0.00  0.00    +0.000 C 
ATOM     12  N   UNL     1       0.907   9.688  19.450  0.00  0.00    +0.000 N 
ATOM     13  C   UNL     1       1.735   9.675  18.212  0.00  0.00    +0.000 C 
ATOM     14  C   UNL     1       1.873   8.244  17.640  0.00  0.00    +0.000 C 
BRANCH   9  18
ATOM     15  C   UNL     1       5.996   5.211  18.334  0.00  0.00    +0.000 A 
ATOM     16  C   UNL     1       5.106   4.932  19.369  0.00  0.00    +0.000 A 
ATOM     17  C   UNL     1       3.896   5.625  19.469  0.00  0.00    +0.000 A 
ATOM     18  C   UNL     1       3.540   6.630  18.561  0.00  0.00    +0.000 A 
ATOM     19  C   UNL     1       4.463   6.907  17.541  0.00  0.00    +0.000 A 
ATOM     20  C   UNL     1       5.675   6.210  17.424  0.00  0.00    +0.000 A 
BRANCH  15  22
ATOM     21  C   UNL     1       7.807   4.374  17.079  0.00  0.00    +0.000 C 
ATOM     22  O   UNL     1       7.147   4.475  18.334  0.00  0.00    +0.000 OA
ENDBRANCH  15  22
ENDBRANCH   9  18
ENDBRANCH   1  12
BRANCH   6  23
ATOM     23  C   UNL     1      -1.876  13.079  21.785  0.00  0.00    +0.000 A 
ATOM     24  C   UNL     1      -1.816  14.467  21.566  0.00  0.00    +0.000 A 
ATOM     25  C   UNL     1      -2.327  15.374  22.499  0.00  0.00    +0.000 A 
ATOM     26  C   UNL     1      -2.891  14.924  23.696  0.00  0.00    +0.000 A 
ATOM     27  C   UNL     1      -2.944  13.544  23.930  0.00  0.00    +0.000 A 
ATOM     28  C   UNL     1      -2.453  12.635  22.982  0.00  0.00    +0.000 A 
BRANCH  26  29
ATOM     29  C   UNL     1      -3.435  15.893  24.715  0.00  0.00    +0.000 C 
ATOM     30  F   UNL     1      -4.766  16.144  24.573  0.00  0.00    +0.000 F 
ATOM     31  F   UNL     1      -3.275  15.450  25.993  0.00  0.00    +0.000 F 
ATOM     32  F   UNL     1      -2.818  17.106  24.660  0.00  0.00    +0.000 F 
ENDBRANCH  26  29
ENDBRANCH   6  23
TORSDOF 5
ENDMDL
MODEL 4
REMARK VINA RESULT:      -6.9      1.581      2.353
REMARK  Name = 
REMARK  6 active torsions:
REMARK  status: ('A' for Active; 'I' for Inactive)
REMARK    1  A    between atoms: C_1  and  O_2
REMARK    2  A    between atoms: O_2  and  C_3
REMARK    3  A    between atoms: C_6  and  N_7
REMARK    4  A    between atoms: N_10  and  C_11
REMARK    5  A    between atoms: N_16  and  C_17
REMARK    6  A    between atoms: C_20  and  C_21
REMARK                            x       y       z     vdW  Elec       q    Type
REMARK                         _______ _______ _______ _____ _____    ______ ____
ROOT
ATOM      1  C   UNL     1      -0.508  11.076  19.970  0.00  0.00    +0.000 C 
ATOM      2  C   UNL     1      -1.651  11.655  19.590  0.00  0.00    +0.000 C 
ATOM      3 CL   UNL     1      -2.795  11.127  18.449  0.00  0.00    +0.000 Cl
ATOM      4  C   UNL     1      -1.913  12.847  20.408  0.00  0.00    +0.000 C 
ATOM      5  O   UNL     1      -2.867  13.588  20.227  0.00  0.00    +0.000 OA
ATOM      6  N   UNL     1      -0.891  12.949  21.307  0.00  0.00    +0.000 N 
ATOM      7  C   UNL     1       0.046  11.992  21.035  0.00  0.00    +0.000 C 
ATOM      8  O   UNL     1       1.155  11.843  21.530  0.00  0.00    +0.000 OA
ENDROOT
BRANCH   1  12
ATOM      9  N   UNL     1       2.263   8.027  19.064  0.00  0.00    +0.000 N 
ATOM     10  C   UNL     1       2.086   9.192  18.185  0.00  0.00    +0.000 C 
ATOM     11  C   UNL     1       0.618   9.667  18.177  0.00  0.00    +0.000 C 
ATOM     12  N   UNL     1       0.149   9.918  19.557  0.00  0.00    +0.000 N 
ATOM     13  C   UNL     1       0.302   8.714  20.420  0.00  0.00    +0.000 C 
ATOM     14  C   UNL     1       1.767   8.217  20.443  0.00  0.00    +0.000 C 
BRANCH   9  18
ATOM     15  C   UNL     1       3.578   4.259  17.688  0.00  0.00    +0.000 A 
ATOM     16  C   UNL     1       2.574   4.358  18.648  0.00  0.00    +0.000 A 
ATOM     17  C   UNL     1       2.135   5.610  19.087  0.00  0.00    +0.000 A 
ATOM     18  C   UNL     1       2.690   6.802  18.605  0.00  0.00    +0.000 A 
ATOM     19  C   UNL     1       3.716   6.674  17.655  0.00  0.00    +0.000 A 
ATOM     20  C   UNL     1       4.157   5.423  17.199  0.00  0.00    +0.000 A 
BRANCH  15  22
ATOM     21  C   UNL     1       3.224   1.949  18.003  0.00  0.00    +0.000 C 
ATOM     22  O   UNL     1       3.931   2.987  17.335  0.00  0.00    +0.000 OA
ENDBRANCH  15  22
ENDBRANCH   9  18
ENDBRANCH   1  12
BRANCH   6  23
ATOM     23  C   UNL     1      -0.817  13.918  22.343  0.00  0.00    +0.000 A 
ATOM     24  C   UNL     1      -0.056  15.087  22.165  0.00  0.00    +0.000 A 
ATOM     25  C   UNL     1      -0.007  16.082  23.145  0.00  0.00    +0.000 A 
ATOM     26  C   UNL     1      -0.700  15.929  24.350  0.00  0.00    +0.000 A 
ATOM     27  C   UNL     1      -1.451  14.763  24.543  0.00  0.00    +0.000 A 
ATOM     28  C   UNL     1      -1.517  13.777  23.548  0.00  0.00    +0.000 A 
BRANCH  26  29
ATOM     29  C   UNL     1      -0.647  16.990  25.420  0.00  0.00    +0.000 C 
ATOM     30  F   UNL     1      -1.365  16.677  26.534  0.00  0.00    +0.000 F 
ATOM     31  F   UNL     1       0.622  17.232  25.852  0.00  0.00    +0.000 F 
ATOM     32  F   UNL     1      -1.130  18.188  24.989  0.00  0.00    +0.000 F 
ENDBRANCH  26  29
ENDBRANCH   6  23
TORSDOF 5
ENDMDL
MODEL 5
REMARK VINA RESULT:      -6.9      5.859     11.029
REMARK  Name = 
REMARK  6 active torsions:
REMARK  status: ('A' for Active; 'I' for Inactive)
REMARK    1  A    between atoms: C_1  and  O_2
REMARK    2  A    between atoms: O_2  and  C_3
REMARK    3  A    between atoms: C_6  and  N_7
REMARK    4  A    between atoms: N_10  and  C_11
REMARK    5  A    between atoms: N_16  and  C_17
REMARK    6  A    between atoms: C_20  and  C_21
REMARK                            x       y       z     vdW  Elec       q    Type
REMARK                         _______ _______ _______ _____ _____    ______ ____
ROOT
ATOM      1  C   UNL     1       1.274   9.551  19.677  0.00  0.00    +0.000 C 
ATOM      2  C   UNL     1       1.951   9.706  18.535  0.00  0.00    +0.000 C 
ATOM      3 CL   UNL     1       2.342  11.136  17.704  0.00  0.00    +0.000 Cl
ATOM      4  C   UNL     1       2.476   8.413  18.077  0.00  0.00    +0.000 C 
ATOM      5  O   UNL     1       3.085   8.270  17.027  0.00  0.00    +0.000 OA
ATOM      6  N   UNL     1       2.103   7.478  18.999  0.00  0.00    +0.000 N 
ATOM      7  C   UNL     1       1.287   8.062  19.928  0.00  0.00    +0.000 C 
ATOM      8  O   UNL     1       0.651   7.532  20.829  0.00  0.00    +0.000 OA
ENDROOT
BRANCH   1  12
ATOM      9  N   UNL     1      -1.406  11.680  22.143  0.00  0.00    +0.000 N 
ATOM     10  C   UNL     1      -1.424  11.827  20.680  0.00  0.00    +0.000 C 
ATOM     11  C   UNL     1      -0.003  11.711  20.090  0.00  0.00    +0.000 C 
ATOM     12  N   UNL     1       0.638  10.452  20.529  0.00  0.00    +0.000 N 
ATOM     13  C   UNL     1       0.680  10.342  22.014  0.00  0.00    +0.000 C 
ATOM     14  C   UNL     1      -0.735  10.457  22.629  0.00  0.00    +0.000 C 
BRANCH   9  18
ATOM     15  C   UNL     1      -2.697  14.738  24.751  0.00  0.00    +0.000 A 
ATOM     16  C   UNL     1      -3.521  13.655  24.457  0.00  0.00    +0.000 A 
ATOM     17  C   UNL     1      -3.080  12.639  23.604  0.00  0.00    +0.000 A 
ATOM     18  C   UNL     1      -1.818  12.676  22.999  0.00  0.00    +0.000 A 
ATOM     19  C   UNL     1      -1.015  13.788  23.294  0.00  0.00    +0.000 A 
ATOM     20  C   UNL     1      -1.442  14.808  24.158  0.00  0.00    +0.000 A 
BRANCH  15  22
ATOM     21  C   UNL     1      -3.226  17.008  25.106  0.00  0.00    +0.000 C 
ATOM     22  O   UNL     1      -3.230  15.672  25.594  0.00  0.00    +0.000 OA
ENDBRANCH  15  22
ENDBRANCH   9  18
ENDBRANCH   1  12
BRANCH   6  23
ATOM     23  C   UNL     1       2.493   6.113  18.972  0.00  0.00    +0.000 A 
ATOM     24  C   UNL     1       1.716   5.169  18.277  0.00  0.00    +0.000 A 
ATOM     25  C   UNL     1       2.102   3.829  18.189  0.00  0.00    +0.000 A 
ATOM     26  C   UNL     1       3.269   3.382  18.817  0.00  0.00    +0.000 A 
ATOM     27  C   UNL     1       4.044   4.310  19.522  0.00  0.00    +0.000 A 
ATOM     28  C   UNL     1       3.666   5.659  19.589  0.00  0.00    +0.000 A 
BRANCH  26  29
ATOM     29  C   UNL     1       3.691   1.936  18.738  0.00  0.00    +0.000 C 
ATOM     30  F   UNL     1       2.677   1.059  18.976  0.00  0.00    +0.000 F 
ATOM     31  F   UNL     1       4.190   1.604  17.515  0.00  0.00    +0.000 F 
ATOM     32  F   UNL     1       4.668   1.630  19.636  0.00  0.00    +0.000 F 
ENDBRANCH  26  29
ENDBRANCH   6  23
TORSDOF 5
ENDMDL
MODEL 6
REMARK VINA RESULT:      -6.9      1.486      2.168
REMARK  Name = 
REMARK  6 active torsions:
REMARK  status: ('A' for Active; 'I' for Inactive)
REMARK    1  A    between atoms: C_1  and  O_2
REMARK    2  A    between atoms: O_2  and  C_3
REMARK    3  A    between atoms: C_6  and  N_7
REMARK    4  A    between atoms: N_10  and  C_11
REMARK    5  A    between atoms: N_16  and  C_17
REMARK    6  A    between atoms: C_20  and  C_21
REMARK                            x       y       z     vdW  Elec       q    Type
REMARK                         _______ _______ _______ _____ _____    ______ ____
ROOT
ATOM      1  C   UNL     1      -0.711  11.062  20.115  0.00  0.00    +0.000 C 
ATOM      2  C   UNL     1      -1.780  11.684  19.609  0.00  0.00    +0.000 C 
ATOM      3 CL   UNL     1      -2.777  11.222  18.311  0.00  0.00    +0.000 Cl
ATOM      4  C   UNL     1      -2.117  12.859  20.423  0.00  0.00    +0.000 C 
ATOM      5  O   UNL     1      -3.020  13.633  20.143  0.00  0.00    +0.000 OA
ATOM      6  N   UNL     1      -1.219  12.907  21.450  0.00  0.00    +0.000 N 
ATOM      7  C   UNL     1      -0.279  11.930  21.272  0.00  0.00    +0.000 C 
ATOM      8  O   UNL     1       0.752  11.736  21.902  0.00  0.00    +0.000 OA
ENDROOT
BRANCH   1  12
ATOM      9  N   UNL     1       2.098   7.996  19.404  0.00  0.00    +0.000 N 
ATOM     10  C   UNL     1       1.972   9.149  18.500  0.00  0.00    +0.000 C 
ATOM     11  C   UNL     1       0.508   9.626  18.406  0.00  0.00    +0.000 C 
ATOM     12  N   UNL     1      -0.036   9.896  19.755  0.00  0.00    +0.000 N 
ATOM     13  C   UNL     1       0.067   8.704  20.641  0.00  0.00    +0.000 C 
ATOM     14  C   UNL     1       1.528   8.206  20.751  0.00  0.00    +0.000 C 
BRANCH   9  18
ATOM     15  C   UNL     1       3.462   4.223  18.090  0.00  0.00    +0.000 A 
ATOM     16  C   UNL     1       3.811   5.386  17.408  0.00  0.00    +0.000 A 
ATOM     17  C   UNL     1       3.367   6.632  17.859  0.00  0.00    +0.000 A 
ATOM     18  C   UNL     1       2.547   6.764  18.986  0.00  0.00    +0.000 A 
ATOM     19  C   UNL     1       2.191   5.576  19.643  0.00  0.00    +0.000 A 
ATOM     20  C   UNL     1       2.640   4.320  19.206  0.00  0.00    +0.000 A 
BRANCH  15  22
ATOM     21  C   UNL     1       3.430   1.866  18.131  0.00  0.00    +0.000 C 
ATOM     22  O   UNL     1       3.948   3.061  17.561  0.00  0.00    +0.000 OA
ENDBRANCH  15  22
ENDBRANCH   9  18
ENDBRANCH   1  12
BRANCH   6  23
ATOM     23  C   UNL     1      -1.257  13.843  22.517  0.00  0.00    +0.000 A 
ATOM     24  C   UNL     1      -0.418  14.972  22.497  0.00  0.00    +0.000 A 
ATOM     25  C   UNL     1      -0.472  15.938  23.505  0.00  0.00    +0.000 A 
ATOM     26  C   UNL     1      -1.349  15.793  24.584  0.00  0.00    +0.000 A 
ATOM     27  C   UNL     1      -2.180  14.666  24.621  0.00  0.00    +0.000 A 
ATOM     28  C   UNL     1      -2.141  13.711  23.595  0.00  0.00    +0.000 A 
BRANCH  26  29
ATOM     29  C   UNL     1      -1.408  16.823  25.685  0.00  0.00    +0.000 C 
ATOM     30  F   UNL     1      -1.100  16.324  26.914  0.00  0.00    +0.000 F 
ATOM     31  F   UNL     1      -0.547  17.857  25.477  0.00  0.00    +0.000 F 
ATOM     32  F   UNL     1      -2.643  17.383  25.808  0.00  0.00    +0.000 F 
ENDBRANCH  26  29
ENDBRANCH   6  23
TORSDOF 5
ENDMDL
MODEL 7
REMARK VINA RESULT:      -6.9      0.649      1.313
REMARK  Name = 
REMARK  6 active torsions:
REMARK  status: ('A' for Active; 'I' for Inactive)
REMARK    1  A    between atoms: C_1  and  O_2
REMARK    2  A    between atoms: O_2  and  C_3
REMARK    3  A    between atoms: C_6  and  N_7
REMARK    4  A    between atoms: N_10  and  C_11
REMARK    5  A    between atoms: N_16  and  C_17
REMARK    6  A    between atoms: C_20  and  C_21
REMARK                            x       y       z     vdW  Elec       q    Type
REMARK                         _______ _______ _______ _____ _____    ______ ____
ROOT
ATOM      1  C   UNL     1       0.035  10.933  19.956  0.00  0.00    +0.000 C 
ATOM      2  C   UNL     1      -1.187  11.161  19.466  0.00  0.00    +0.000 C 
ATOM      3 CL   UNL     1      -2.075  10.259  18.331  0.00  0.00    +0.000 Cl
ATOM      4  C   UNL     1      -1.800  12.310  20.145  0.00  0.00    +0.000 C 
ATOM      5  O   UNL     1      -2.895  12.761  19.845  0.00  0.00    +0.000 OA
ATOM      6  N   UNL     1      -0.905  12.750  21.076  0.00  0.00    +0.000 N 
ATOM      7  C   UNL     1       0.262  12.048  20.948  0.00  0.00    +0.000 C 
ATOM      8  O   UNL     1       1.334  12.234  21.507  0.00  0.00    +0.000 OA
ENDROOT
BRANCH   1  12
ATOM      9  N   UNL     1       2.167   7.478  18.807  0.00  0.00    +0.000 N 
ATOM     10  C   UNL     1       1.417   7.535  20.070  0.00  0.00    +0.000 C 
ATOM     11  C   UNL     1       1.456   8.952  20.680  0.00  0.00    +0.000 C 
ATOM     12  N   UNL     1       0.991   9.952  19.694  0.00  0.00    +0.000 N 
ATOM     13  C   UNL     1       1.789   9.903  18.438  0.00  0.00    +0.000 C 
ATOM     14  C   UNL     1       1.765   8.490  17.808  0.00  0.00    +0.000 C 
BRANCH   9  18
ATOM     15  C   UNL     1       5.558   5.017  18.290  0.00  0.00    +0.000 A 
ATOM     16  C   UNL     1       4.704   4.837  19.375  0.00  0.00    +0.000 A 
ATOM     17  C   UNL     1       3.575   5.647  19.530  0.00  0.00    +0.000 A 
ATOM     18  C   UNL     1       3.269   6.674  18.628  0.00  0.00    +0.000 A 
ATOM     19  C   UNL     1       4.157   6.849  17.556  0.00  0.00    +0.000 A 
ATOM     20  C   UNL     1       5.287   6.035  17.383  0.00  0.00    +0.000 A 
BRANCH  15  22
ATOM     21  C   UNL     1       7.708   4.602  17.415  0.00  0.00    +0.000 C 
ATOM     22  O   UNL     1       6.630   4.173  18.238  0.00  0.00    +0.000 OA
ENDBRANCH  15  22
ENDBRANCH   9  18
ENDBRANCH   1  12
BRANCH   6  23
ATOM     23  C   UNL     1      -1.153  13.790  22.011  0.00  0.00    +0.000 A 
ATOM     24  C   UNL     1      -1.671  13.489  23.283  0.00  0.00    +0.000 A 
ATOM     25  C   UNL     1      -1.874  14.485  24.242  0.00  0.00    +0.000 A 
ATOM     26  C   UNL     1      -1.591  15.823  23.950  0.00  0.00    +0.000 A 
ATOM     27  C   UNL     1      -1.087  16.136  22.682  0.00  0.00    +0.000 A 
ATOM     28  C   UNL     1      -0.861  15.132  21.730  0.00  0.00    +0.000 A 
BRANCH  26  29
ATOM     29  C   UNL     1      -1.817  16.909  24.972  0.00  0.00    +0.000 C 
ATOM     30  F   UNL     1      -0.973  17.969  24.837  0.00  0.00    +0.000 F 
ATOM     31  F   UNL     1      -3.076  17.426  24.913  0.00  0.00    +0.000 F 
ATOM     32  F   UNL     1      -1.655  16.464  26.249  0.00  0.00    +0.000 F 
ENDBRANCH  26  29
ENDBRANCH   6  23
TORSDOF 5
ENDMDL
MODEL 8
REMARK VINA RESULT:      -6.8      1.645      2.234
REMARK  Name = 
REMARK  6 active torsions:
REMARK  status: ('A' for Active; 'I' for Inactive)
REMARK    1  A    between atoms: C_1  and  O_2
REMARK    2  A    between atoms: O_2  and  C_3
REMARK    3  A    between atoms: C_6  and  N_7
REMARK    4  A    between atoms: N_10  and  C_11
REMARK    5  A    between atoms: N_16  and  C_17
REMARK    6  A    between atoms: C_20  and  C_21
REMARK                            x       y       z     vdW  Elec       q    Type
REMARK                         _______ _______ _______ _____ _____    ______ ____
ROOT
ATOM      1  C   UNL     1      -0.593  11.171  20.098  0.00  0.00    +0.000 C 
ATOM      2  C   UNL     1      -1.719  11.762  19.685  0.00  0.00    +0.000 C 
ATOM      3 CL   UNL     1      -2.863  11.220  18.550  0.00  0.00    +0.000 Cl
ATOM      4  C   UNL     1      -1.960  12.988  20.457  0.00  0.00    +0.000 C 
ATOM      5  O   UNL     1      -2.895  13.745  20.239  0.00  0.00    +0.000 OA
ATOM      6  N   UNL     1      -0.946  13.099  21.362  0.00  0.00    +0.000 N 
ATOM      7  C   UNL     1      -0.029  12.111  21.135  0.00  0.00    +0.000 C 
ATOM      8  O   UNL     1       1.072  11.954  21.648  0.00  0.00    +0.000 OA
ENDROOT
BRANCH   1  12
ATOM      9  N   UNL     1       2.112   8.025  19.338  0.00  0.00    +0.000 N 
ATOM     10  C   UNL     1       1.979   9.163  18.418  0.00  0.00    +0.000 C 
ATOM     11  C   UNL     1       0.524   9.675  18.370  0.00  0.00    +0.000 C 
ATOM     12  N   UNL     1       0.039   9.983  19.734  0.00  0.00    +0.000 N 
ATOM     13  C   UNL     1       0.148   8.805  20.638  0.00  0.00    +0.000 C 
ATOM     14  C   UNL     1       1.599   8.273  20.701  0.00  0.00    +0.000 C 
BRANCH   9  18
ATOM     15  C   UNL     1       3.336   4.197  18.044  0.00  0.00    +0.000 A 
ATOM     16  C   UNL     1       3.758   5.344  17.378  0.00  0.00    +0.000 A 
ATOM     17  C   UNL     1       3.360   6.609  17.823  0.00  0.00    +0.000 A 
ATOM     18  C   UNL     1       2.515   6.774  18.927  0.00  0.00    +0.000 A 
ATOM     19  C   UNL     1       2.085   5.601  19.567  0.00  0.00    +0.000 A 
ATOM     20  C   UNL     1       2.487   4.328  19.137  0.00  0.00    +0.000 A 
BRANCH  15  22
ATOM     21  C   UNL     1       3.412   1.849  18.248  0.00  0.00    +0.000 C 
ATOM     22  O   UNL     1       3.782   3.016  17.523  0.00  0.00    +0.000 OA
ENDBRANCH  15  22
ENDBRANCH   9  18
ENDBRANCH   1  12
BRANCH   6  23
ATOM     23  C   UNL     1      -0.859  14.103  22.364  0.00  0.00    +0.000 A 
ATOM     24  C   UNL     1      -1.532  13.940  23.588  0.00  0.00    +0.000 A 
ATOM     25  C   UNL     1      -1.422  14.885  24.612  0.00  0.00    +0.000 A 
ATOM     26  C   UNL     1      -0.655  16.041  24.434  0.00  0.00    +0.000 A 
ATOM     27  C   UNL     1       0.008  16.220  23.214  0.00  0.00    +0.000 A 
ATOM     28  C   UNL     1      -0.084  15.258  22.198  0.00  0.00    +0.000 A 
BRANCH  26  29
ATOM     29  C   UNL     1      -0.537  17.074  25.527  0.00  0.00    +0.000 C 
ATOM     30  F   UNL     1       0.034  18.240  25.115  0.00  0.00    +0.000 F 
ATOM     31  F   UNL     1      -1.746  17.418  26.051  0.00  0.00    +0.000 F 
ATOM     32  F   UNL     1       0.215  16.639  26.575  0.00  0.00    +0.000 F 
ENDBRANCH  26  29
ENDBRANCH   6  23
TORSDOF 5
ENDMDL
MODEL 9
REMARK VINA RESULT:      -6.8      1.353      1.727
REMARK  Name = 
REMARK  6 active torsions:
REMARK  status: ('A' for Active; 'I' for Inactive)
REMARK    1  A    between atoms: C_1  and  O_2
REMARK    2  A    between atoms: O_2  and  C_3
REMARK    3  A    between atoms: C_6  and  N_7
REMARK    4  A    between atoms: N_10  and  C_11
REMARK    5  A    between atoms: N_16  and  C_17
REMARK    6  A    between atoms: C_20  and  C_21
REMARK                            x       y       z     vdW  Elec       q    Type
REMARK                         _______ _______ _______ _____ _____    ______ ____
ROOT
ATOM      1  C   UNL     1      -0.741  11.123  19.924  0.00  0.00    +0.000 C 
ATOM      2  C   UNL     1      -1.914  11.643  19.549  0.00  0.00    +0.000 C 
ATOM      3 CL   UNL     1      -3.007  11.089  18.371  0.00  0.00    +0.000 Cl
ATOM      4  C   UNL     1      -2.260  12.784  20.408  0.00  0.00    +0.000 C 
ATOM      5  O   UNL     1      -3.257  13.470  20.241  0.00  0.00    +0.000 OA
ATOM      6  N   UNL     1      -1.259  12.915  21.325  0.00  0.00    +0.000 N 
ATOM      7  C   UNL     1      -0.259  12.029  21.031  0.00  0.00    +0.000 C 
ATOM      8  O   UNL     1       0.851  11.931  21.537  0.00  0.00    +0.000 OA
ENDROOT
BRANCH   1  12
ATOM      9  N   UNL     1       2.235   8.321  18.883  0.00  0.00    +0.000 N 
ATOM     10  C   UNL     1       1.922   9.467  18.017  0.00  0.00    +0.000 C 
ATOM     11  C   UNL     1       0.419   9.816  18.076  0.00  0.00    +0.000 C 
ATOM     12  N   UNL     1      -0.008  10.024  19.477  0.00  0.00    +0.000 N 
ATOM     13  C   UNL     1       0.285   8.837  20.327  0.00  0.00    +0.000 C 
ATOM     14  C   UNL     1       1.786   8.467  20.283  0.00  0.00    +0.000 C 
BRANCH   9  18
ATOM     15  C   UNL     1       3.794   4.700  17.370  0.00  0.00    +0.000 A 
ATOM     16  C   UNL     1       4.390   5.920  17.059  0.00  0.00    +0.000 A 
ATOM     17  C   UNL     1       3.876   7.112  17.577  0.00  0.00    +0.000 A 
ATOM     18  C   UNL     1       2.744   7.136  18.400  0.00  0.00    +0.000 A 
ATOM     19  C   UNL     1       2.148   5.897  18.680  0.00  0.00    +0.000 A 
ATOM     20  C   UNL     1       2.662   4.692  18.175  0.00  0.00    +0.000 A 
BRANCH  15  22
ATOM     21  C   UNL     1       5.509   3.860  15.988  0.00  0.00    +0.000 C 
ATOM     22  O   UNL     1       4.377   3.600  16.808  0.00  0.00    +0.000 OA
ENDBRANCH  15  22
ENDBRANCH   9  18
ENDBRANCH   1  12
BRANCH   6  23
ATOM     23  C   UNL     1      -1.259  13.846  22.398  0.00  0.00    +0.000 A 
ATOM     24  C   UNL     1      -2.058  13.617  23.532  0.00  0.00    +0.000 A 
ATOM     25  C   UNL     1      -2.039  14.487  24.625  0.00  0.00    +0.000 A 
ATOM     26  C   UNL     1      -1.236  15.632  24.610  0.00  0.00    +0.000 A 
ATOM     27  C   UNL     1      -0.446  15.877  23.480  0.00  0.00    +0.000 A 
ATOM     28  C   UNL     1      -0.450  14.989  22.394  0.00  0.00    +0.000 A 
BRANCH  26  29
ATOM     29  C   UNL     1      -1.215  16.585  25.778  0.00  0.00    +0.000 C 
ATOM     30  F   UNL     1      -2.375  17.281  25.935  0.00  0.00    +0.000 F 
ATOM     31  F   UNL     1      -0.999  15.951  26.964  0.00  0.00    +0.000 F 
ATOM     32  F   UNL     1      -0.231  17.520  25.669  0.00  0.00    +0.000 F 
ENDBRANCH  26  29
ENDBRANCH   6  23
TORSDOF 5
ENDMDL
