MODEL 1
REMARK VINA RESULT:      -6.5      0.000      0.000
REMARK  Name = 
REMARK  5 active torsions:
REMARK  status: ('A' for Active; 'I' for Inactive)
REMARK    1  A    between atoms: C_1  and  C_2
REMARK    2  A    between atoms: C_2  and  C_4
REMARK    3  A    between atoms: C_5  and  C_6
REMARK    4  A    between atoms: C_8  and  O_9
REMARK    5  A    between atoms: C_10  and  O_11
REMARK                            x       y       z     vdW  Elec       q    Type
REMARK                         _______ _______ _______ _____ _____    ______ ____
ROOT
ATOM      1  C   UNL     1       4.571   4.395  17.567  0.00  0.00    +0.000 A 
ATOM      2  C   UNL     1       4.855   3.672  16.400  0.00  0.00    +0.000 A 
ATOM      3  C   UNL     1       5.899   4.079  15.577  0.00  0.00    +0.000 A 
ATOM      4  C   UNL     1       6.680   5.186  15.907  0.00  0.00    +0.000 A 
ATOM      5  C   UNL     1       6.428   5.890  17.080  0.00  0.00    +0.000 A 
ATOM      6 BR   UNL     1       7.468   7.391  17.583  0.00  0.00    +0.000 Br
ATOM      7  C   UNL     1       5.379   5.491  17.912  0.00  0.00    +0.000 A 
ENDROOT
BRANCH   1   9
ATOM      8  C   UNL     1       2.224   3.708  17.900  0.00  0.00    +0.000 C 
ATOM      9  C   UNL     1       3.440   3.969  18.401  0.00  0.00    +0.000 C 
BRANCH   8  11
ATOM     10  C   UNL     1       0.986   3.910  20.110  0.00  0.00    +0.000 C 
ATOM     11  C   UNL     1       1.138   3.209  18.788  0.00  0.00    +0.000 C 
ATOM     12  O   UNL     1       0.403   2.288  18.450  0.00  0.00    +0.000 OA
ENDBRANCH   8  11
ENDBRANCH   1   9
BRANCH   3  13
ATOM     13  O   UNL     1       6.196   3.419  14.414  0.00  0.00    +0.000 OA
ATOM     14  H   UNL     1       6.981   2.864  14.566  0.00  0.00    +0.000 HD
ENDBRANCH   3  13
BRANCH   4  15
ATOM     15  O   UNL     1       7.684   5.555  15.054  0.00  0.00    +0.000 OA
ATOM     16  H   UNL     1       8.416   5.842  15.633  0.00  0.00    +0.000 HD
ENDBRANCH   4  15
TORSDOF 4
ENDMDL
MODEL 2
REMARK VINA RESULT:      -6.4      2.057      5.814
REMARK  Name = 
REMARK  5 active torsions:
REMARK  status: ('A' for Active; 'I' for Inactive)
REMARK    1  A    between atoms: C_1  and  C_2
REMARK    2  A    between atoms: C_2  and  C_4
REMARK    3  A    between atoms: C_5  and  C_6
REMARK    4  A    between atoms: C_8  and  O_9
REMARK    5  A    between atoms: C_10  and  O_11
REMARK                            x       y       z     vdW  Elec       q    Type
REMARK                         _______ _______ _______ _____ _____    ______ ____
ROOT
ATOM      1  C   UNL     1       3.503   3.969  17.380  0.00  0.00    +0.000 A 
ATOM      2  C   UNL     1       2.700   2.827  17.499  0.00  0.00    +0.000 A 
ATOM      3  C   UNL     1       1.706   2.785  18.471  0.00  0.00    +0.000 A 
ATOM      4  C   UNL     1       1.486   3.871  19.317  0.00  0.00    +0.000 A 
ATOM      5  C   UNL     1       2.256   5.021  19.184  0.00  0.00    +0.000 A 
ATOM      6 BR   UNL     1       1.989   6.532  20.297  0.00  0.00    +0.000 Br
ATOM      7  C   UNL     1       3.259   5.074  18.213  0.00  0.00    +0.000 A 
ENDROOT
BRANCH   1   9
ATOM      8  C   UNL     1       5.380   5.029  16.176  0.00  0.00    +0.000 C 
ATOM      9  C   UNL     1       4.570   3.977  16.371  0.00  0.00    +0.000 C 
BRANCH   8  11
ATOM     10  C   UNL     1       6.283   4.006  14.032  0.00  0.00    +0.000 C 
ATOM     11  C   UNL     1       6.490   4.947  15.187  0.00  0.00    +0.000 C 
ATOM     12  O   UNL     1       7.506   5.621  15.306  0.00  0.00    +0.000 OA
ENDBRANCH   8  11
ENDBRANCH   1   9
BRANCH   3  13
ATOM     13  O   UNL     1       0.914   1.680  18.641  0.00  0.00    +0.000 OA
ATOM     14  H   UNL     1       0.680   1.331  17.763  0.00  0.00    +0.000 HD
ENDBRANCH   3  13
BRANCH   4  15
ATOM     15  O   UNL     1       0.508   3.771  20.268  0.00  0.00    +0.000 OA
ATOM     16  H   UNL     1      -0.255   4.257  19.898  0.00  0.00    +0.000 HD
ENDBRANCH   4  15
TORSDOF 4
ENDMDL
MODEL 3
REMARK VINA RESULT:      -6.3      1.419      1.550
REMARK  Name = 
REMARK  5 active torsions:
REMARK  status: ('A' for Active; 'I' for Inactive)
REMARK    1  A    between atoms: C_1  and  C_2
REMARK    2  A    between atoms: C_2  and  C_4
REMARK    3  A    between atoms: C_5  and  C_6
REMARK    4  A    between atoms: C_8  and  O_9
REMARK    5  A    between atoms: C_10  and  O_11
REMARK                            x       y       z     vdW  Elec       q    Type
REMARK                         _______ _______ _______ _____ _____    ______ ____
ROOT
ATOM      1  C   UNL     1       4.728   4.669  18.154  0.00  0.00    +0.000 A 
ATOM      2  C   UNL     1       4.907   3.821  17.052  0.00  0.00    +0.000 A 
ATOM      3  C   UNL     1       5.874   4.127  16.100  0.00  0.00    +0.000 A 
ATOM      4  C   UNL     1       6.680   5.255  16.237  0.00  0.00    +0.000 A 
ATOM      5  C   UNL     1       6.533   6.085  17.344  0.00  0.00    +0.000 A 
ATOM      6 BR   UNL     1       7.613   7.622  17.586  0.00  0.00    +0.000 Br
ATOM      7  C   UNL     1       5.563   5.789  18.305  0.00  0.00    +0.000 A 
ENDROOT
BRANCH   1   9
ATOM      8  C   UNL     1       3.627   3.178  19.785  0.00  0.00    +0.000 C 
ATOM      9  C   UNL     1       3.676   4.346  19.127  0.00  0.00    +0.000 C 
BRANCH   8  11
ATOM     10  C   UNL     1       1.163   3.248  20.402  0.00  0.00    +0.000 C 
ATOM     11  C   UNL     1       2.577   2.941  20.814  0.00  0.00    +0.000 C 
ATOM     12  O   UNL     1       2.853   2.505  21.925  0.00  0.00    +0.000 OA
ENDBRANCH   8  11
ENDBRANCH   1   9
BRANCH   3  13
ATOM     13  O   UNL     1       6.065   3.341  14.994  0.00  0.00    +0.000 OA
ATOM     14  H   UNL     1       6.724   3.773  14.421  0.00  0.00    +0.000 HD
ENDBRANCH   3  13
BRANCH   4  15
ATOM     15  O   UNL     1       7.604   5.520  15.263  0.00  0.00    +0.000 OA
ATOM     16  H   UNL     1       8.470   5.452  15.710  0.00  0.00    +0.000 HD
ENDBRANCH   4  15
TORSDOF 4
ENDMDL
MODEL 4
REMARK VINA RESULT:      -6.3      3.072      6.129
REMARK  Name = 
REMARK  5 active torsions:
REMARK  status: ('A' for Active; 'I' for Inactive)
REMARK    1  A    between atoms: C_1  and  C_2
REMARK    2  A    between atoms: C_2  and  C_4
REMARK    3  A    between atoms: C_5  and  C_6
REMARK    4  A    between atoms: C_8  and  O_9
REMARK    5  A    between atoms: C_10  and  O_11
REMARK                            x       y       z     vdW  Elec       q    Type
REMARK                         _______ _______ _______ _____ _____    ______ ____
ROOT
ATOM      1  C   UNL     1       3.866   5.164  17.447  0.00  0.00    +0.000 A 
ATOM      2  C   UNL     1       3.694   6.211  18.363  0.00  0.00    +0.000 A 
ATOM      3  C   UNL     1       2.762   6.081  19.388  0.00  0.00    +0.000 A 
ATOM      4  C   UNL     1       2.009   4.917  19.527  0.00  0.00    +0.000 A 
ATOM      5  C   UNL     1       2.196   3.859  18.643  0.00  0.00    +0.000 A 
ATOM      6 BR   UNL     1       1.210   2.248  18.795  0.00  0.00    +0.000 Br
ATOM      7  C   UNL     1       3.127   3.979  17.609  0.00  0.00    +0.000 A 
ENDROOT
BRANCH   1   9
ATOM      8  C   UNL     1       5.702   4.385  15.994  0.00  0.00    +0.000 C 
ATOM      9  C   UNL     1       4.829   5.337  16.352  0.00  0.00    +0.000 C 
BRANCH   8  11
ATOM     10  C   UNL     1       6.219   3.887  13.556  0.00  0.00    +0.000 C 
ATOM     11  C   UNL     1       6.603   4.594  14.827  0.00  0.00    +0.000 C 
ATOM     12  O   UNL     1       7.592   5.314  14.899  0.00  0.00    +0.000 OA
ENDBRANCH   8  11
ENDBRANCH   1   9
BRANCH   3  13
ATOM     13  O   UNL     1       2.542   7.089  20.290  0.00  0.00    +0.000 OA
ATOM     14  H   UNL     1       3.131   6.953  21.053  0.00  0.00    +0.000 HD
ENDBRANCH   3  13
BRANCH   4  15
ATOM     15  O   UNL     1       1.094   4.848  20.541  0.00  0.00    +0.000 OA
ATOM     16  H   UNL     1       1.600   5.044  21.353  0.00  0.00    +0.000 HD
ENDBRANCH   4  15
TORSDOF 4
ENDMDL
MODEL 5
REMARK VINA RESULT:      -6.3      4.364      7.307
REMARK  Name = 
REMARK  5 active torsions:
REMARK  status: ('A' for Active; 'I' for Inactive)
REMARK    1  A    between atoms: C_1  and  C_2
REMARK    2  A    between atoms: C_2  and  C_4
REMARK    3  A    between atoms: C_5  and  C_6
REMARK    4  A    between atoms: C_8  and  O_9
REMARK    5  A    between atoms: C_10  and  O_11
REMARK                            x       y       z     vdW  Elec       q    Type
REMARK                         _______ _______ _______ _____ _____    ______ ____
ROOT
ATOM      1  C   UNL     1       7.733   7.901  17.852  0.00  0.00    +0.000 A 
ATOM      2  C   UNL     1       8.284   7.178  18.919  0.00  0.00    +0.000 A 
ATOM      3  C   UNL     1       7.891   5.861  19.131  0.00  0.00    +0.000 A 
ATOM      4  C   UNL     1       6.968   5.244  18.287  0.00  0.00    +0.000 A 
ATOM      5  C   UNL     1       6.440   5.943  17.207  0.00  0.00    +0.000 A 
ATOM      6 BR   UNL     1       5.196   5.149  16.020  0.00  0.00    +0.000 Br
ATOM      7  C   UNL     1       6.827   7.267  16.985  0.00  0.00    +0.000 A 
ENDROOT
BRANCH   1   9
ATOM      8  C   UNL     1       8.947   9.943  18.522  0.00  0.00    +0.000 C 
ATOM      9  C   UNL     1       8.135   9.301  17.668  0.00  0.00    +0.000 C 
BRANCH   8  11
ATOM     10  C   UNL     1      10.743  11.727  18.739  0.00  0.00    +0.000 C 
ATOM     11  C   UNL     1       9.377  11.340  18.241  0.00  0.00    +0.000 C 
ATOM     12  O   UNL     1       8.662  12.122  17.626  0.00  0.00    +0.000 OA
ENDBRANCH   8  11
ENDBRANCH   1   9
BRANCH   3  13
ATOM     13  O   UNL     1       8.384   5.124  20.176  0.00  0.00    +0.000 OA
ATOM     14  H   UNL     1       8.195   4.184  20.007  0.00  0.00    +0.000 HD
ENDBRANCH   3  13
BRANCH   4  15
ATOM     15  O   UNL     1       6.602   3.953  18.552  0.00  0.00    +0.000 OA
ATOM     16  H   UNL     1       5.625   3.959  18.538  0.00  0.00    +0.000 HD
ENDBRANCH   4  15
TORSDOF 4
ENDMDL
MODEL 6
REMARK VINA RESULT:      -6.2      3.045      5.644
REMARK  Name = 
REMARK  5 active torsions:
REMARK  status: ('A' for Active; 'I' for Inactive)
REMARK    1  A    between atoms: C_1  and  C_2
REMARK    2  A    between atoms: C_2  and  C_4
REMARK    3  A    between atoms: C_5  and  C_6
REMARK    4  A    between atoms: C_8  and  O_9
REMARK    5  A    between atoms: C_10  and  O_11
REMARK                            x       y       z     vdW  Elec       q    Type
REMARK                         _______ _______ _______ _____ _____    ______ ____
ROOT
ATOM      1  C   UNL     1       6.002   4.433  16.142  0.00  0.00    +0.000 A 
ATOM      2  C   UNL     1       6.909   4.686  17.181  0.00  0.00    +0.000 A 
ATOM      3  C   UNL     1       6.431   5.016  18.445  0.00  0.00    +0.000 A 
ATOM      4  C   UNL     1       5.061   5.080  18.697  0.00  0.00    +0.000 A 
ATOM      5  C   UNL     1       4.154   4.798  17.682  0.00  0.00    +0.000 A 
ATOM      6 BR   UNL     1       2.283   4.856  17.974  0.00  0.00    +0.000 Br
ATOM      7  C   UNL     1       4.623   4.468  16.408  0.00  0.00    +0.000 A 
ENDROOT
BRANCH   1   9
ATOM      8  C   UNL     1       5.743   3.790  13.773  0.00  0.00    +0.000 C 
ATOM      9  C   UNL     1       6.530   4.123  14.807  0.00  0.00    +0.000 C 
BRANCH   8  11
ATOM     10  C   UNL     1       5.735   2.436  11.623  0.00  0.00    +0.000 C 
ATOM     11  C   UNL     1       6.333   3.559  12.426  0.00  0.00    +0.000 C 
ATOM     12  O   UNL     1       7.243   4.256  11.995  0.00  0.00    +0.000 OA
ENDBRANCH   8  11
ENDBRANCH   1   9
BRANCH   3  13
ATOM     13  O   UNL     1       7.280   5.297  19.482  0.00  0.00    +0.000 OA
ATOM     14  H   UNL     1       8.181   5.392  19.126  0.00  0.00    +0.000 HD
ENDBRANCH   3  13
BRANCH   4  15
ATOM     15  O   UNL     1       4.644   5.427  19.953  0.00  0.00    +0.000 OA
ATOM     16  H   UNL     1       4.692   6.402  19.976  0.00  0.00    +0.000 HD
ENDBRANCH   4  15
TORSDOF 4
ENDMDL
MODEL 7
REMARK VINA RESULT:      -6.2      1.699      2.367
REMARK  Name = 
REMARK  5 active torsions:
REMARK  status: ('A' for Active; 'I' for Inactive)
REMARK    1  A    between atoms: C_1  and  C_2
REMARK    2  A    between atoms: C_2  and  C_4
REMARK    3  A    between atoms: C_5  and  C_6
REMARK    4  A    between atoms: C_8  and  O_9
REMARK    5  A    between atoms: C_10  and  O_11
REMARK                            x       y       z     vdW  Elec       q    Type
REMARK                         _______ _______ _______ _____ _____    ______ ____
ROOT
ATOM      1  C   UNL     1       4.394   4.592  17.671  0.00  0.00    +0.000 A 
ATOM      2  C   UNL     1       5.277   5.531  18.224  0.00  0.00    +0.000 A 
ATOM      3  C   UNL     1       6.374   5.960  17.485  0.00  0.00    +0.000 A 
ATOM      4  C   UNL     1       6.599   5.482  16.194  0.00  0.00    +0.000 A 
ATOM      5  C   UNL     1       5.711   4.575  15.625  0.00  0.00    +0.000 A 
ATOM      6 BR   UNL     1       5.960   3.906  13.871  0.00  0.00    +0.000 Br
ATOM      7  C   UNL     1       4.606   4.136  16.359  0.00  0.00    +0.000 A 
ENDROOT
BRANCH   1   9
ATOM      8  C   UNL     1       2.176   3.547  17.953  0.00  0.00    +0.000 C 
ATOM      9  C   UNL     1       3.263   4.127  18.484  0.00  0.00    +0.000 C 
BRANCH   8  11
ATOM     10  C   UNL     1       1.022   3.626  20.216  0.00  0.00    +0.000 C 
ATOM     11  C   UNL     1       1.095   3.030  18.837  0.00  0.00    +0.000 C 
ATOM     12  O   UNL     1       0.303   2.178  18.452  0.00  0.00    +0.000 OA
ENDBRANCH   8  11
ENDBRANCH   1   9
BRANCH   3  13
ATOM     13  O   UNL     1       7.277   6.856  17.994  0.00  0.00    +0.000 OA
ATOM     14  H   UNL     1       6.987   7.754  17.756  0.00  0.00    +0.000 HD
ENDBRANCH   3  13
BRANCH   4  15
ATOM     15  O   UNL     1       7.703   5.922  15.518  0.00  0.00    +0.000 OA
ATOM     16  H   UNL     1       8.347   6.162  16.212  0.00  0.00    +0.000 HD
ENDBRANCH   4  15
TORSDOF 4
ENDMDL
MODEL 8
REMARK VINA RESULT:      -6.2      0.894      1.008
REMARK  Name = 
REMARK  5 active torsions:
REMARK  status: ('A' for Active; 'I' for Inactive)
REMARK    1  A    between atoms: C_1  and  C_2
REMARK    2  A    between atoms: C_2  and  C_4
REMARK    3  A    between atoms: C_5  and  C_6
REMARK    4  A    between atoms: C_8  and  O_9
REMARK    5  A    between atoms: C_10  and  O_11
REMARK                            x       y       z     vdW  Elec       q    Type
REMARK                         _______ _______ _______ _____ _____    ______ ____
ROOT
ATOM      1  C   UNL     1       4.709   4.238  17.437  0.00  0.00    +0.000 A 
ATOM      2  C   UNL     1       5.002   3.588  16.230  0.00  0.00    +0.000 A 
ATOM      3  C   UNL     1       6.023   4.072  15.419  0.00  0.00    +0.000 A 
ATOM      4  C   UNL     1       6.771   5.186  15.799  0.00  0.00    +0.000 A 
ATOM      5  C   UNL     1       6.509   5.818  17.010  0.00  0.00    +0.000 A 
ATOM      6 BR   UNL     1       7.506   7.325  17.581  0.00  0.00    +0.000 Br
ATOM      7  C   UNL     1       5.485   5.341  17.831  0.00  0.00    +0.000 A 
ENDROOT
BRANCH   1   9
ATOM      8  C   UNL     1       2.524   4.468  18.562  0.00  0.00    +0.000 C 
ATOM      9  C   UNL     1       3.603   3.731  18.259  0.00  0.00    +0.000 C 
BRANCH   8  11
ATOM     10  C   UNL     1       0.862   2.564  18.827  0.00  0.00    +0.000 C 
ATOM     11  C   UNL     1       1.403   3.872  19.339  0.00  0.00    +0.000 C 
ATOM     12  O   UNL     1       0.959   4.412  20.345  0.00  0.00    +0.000 OA
ENDBRANCH   8  11
ENDBRANCH   1   9
BRANCH   3  13
ATOM     13  O   UNL     1       6.327   3.484  14.219  0.00  0.00    +0.000 OA
ATOM     14  H   UNL     1       5.891   3.989  13.510  0.00  0.00    +0.000 HD
ENDBRANCH   3  13
BRANCH   4  15
ATOM     15  O   UNL     1       7.752   5.632  14.956  0.00  0.00    +0.000 OA
ATOM     16  H   UNL     1       8.504   5.856  15.538  0.00  0.00    +0.000 HD
ENDBRANCH   4  15
TORSDOF 4
ENDMDL
MODEL 9
REMARK VINA RESULT:      -6.2      2.041      2.478
REMARK  Name = 
REMARK  5 active torsions:
REMARK  status: ('A' for Active; 'I' for Inactive)
REMARK    1  A    between atoms: C_1  and  C_2
REMARK    2  A    between atoms: C_2  and  C_4
REMARK    3  A    between atoms: C_5  and  C_6
REMARK    4  A    between atoms: C_8  and  O_9
REMARK    5  A    between atoms: C_10  and  O_11
REMARK                            x       y       z     vdW  Elec       q    Type
REMARK                         _______ _______ _______ _____ _____    ______ ____
ROOT
ATOM      1  C   UNL     1       4.212   4.123  17.901  0.00  0.00    +0.000 A 
ATOM      2  C   UNL     1       5.321   4.411  18.710  0.00  0.00    +0.000 A 
ATOM      3  C   UNL     1       6.571   4.584  18.125  0.00  0.00    +0.000 A 
ATOM      4  C   UNL     1       6.733   4.492  16.744  0.00  0.00    +0.000 A 
ATOM      5  C   UNL     1       5.634   4.239  15.930  0.00  0.00    +0.000 A 
ATOM      6 BR   UNL     1       5.796   4.120  14.046  0.00  0.00    +0.000 Br
ATOM      7  C   UNL     1       4.374   4.061  16.507  0.00  0.00    +0.000 A 
ENDROOT
BRANCH   1   9
ATOM      8  C   UNL     1       2.630   2.821  19.277  0.00  0.00    +0.000 C 
ATOM      9  C   UNL     1       2.909   3.908  18.543  0.00  0.00    +0.000 C 
BRANCH   8  11
ATOM     10  C   UNL     1       1.342   2.753  21.467  0.00  0.00    +0.000 C 
ATOM     11  C   UNL     1       1.315   2.696  19.964  0.00  0.00    +0.000 C 
ATOM     12  O   UNL     1       0.271   2.570  19.335  0.00  0.00    +0.000 OA
ENDBRANCH   8  11
ENDBRANCH   1   9
BRANCH   3  13
ATOM     13  O   UNL     1       7.686   4.841  18.878  0.00  0.00    +0.000 OA
ATOM     14  H   UNL     1       8.094   5.663  18.554  0.00  0.00    +0.000 HD
ENDBRANCH   3  13
BRANCH   4  15
ATOM     15  O   UNL     1       7.987   4.652  16.222  0.00  0.00    +0.000 OA
ATOM     16  H   UNL     1       8.073   3.950  15.548  0.00  0.00    +0.000 HD
ENDBRANCH   4  15
TORSDOF 4
ENDMDL
