MODEL 1
REMARK VINA RESULT:      -7.3      0.000      0.000
REMARK  Name = 
REMARK  9 active torsions:
REMARK  status: ('A' for Active; 'I' for Inactive)
REMARK    1  A    between atoms: C_1  and  N_2
REMARK    2  A    between atoms: N_2  and  C_15
REMARK    3  A    between atoms: C_3  and  C_5
REMARK    4  A    between atoms: C_5  and  C_6
REMARK    5  A    between atoms: C_6  and  N_7
REMARK    6  A    between atoms: C_6  and  C_8
REMARK    7  A    between atoms: C_8  and  C_9
REMARK    8  A    between atoms: C_9  and  C_10
REMARK    9  A    between atoms: C_10  and  N_11
REMARK                            x       y       z     vdW  Elec       q    Type
REMARK                         _______ _______ _______ _____ _____    ______ ____
ROOT
ATOM      1  C   UNL     1       7.760   6.091  19.147  0.00  0.00    +0.000 C 
ATOM      2  N   UNL     1       7.673   6.887  17.923  0.00  0.00    +0.000 N 
ATOM      3  C   UNL     1       8.101   8.214  17.811  0.00  0.00    +0.000 C 
ATOM      4  O   UNL     1       8.027   8.825  16.747  0.00  0.00    +0.000 OA
ENDROOT
BRANCH   2   5
ATOM      5  C   UNL     1       6.823   6.376  16.823  0.00  0.00    +0.000 C 
ATOM      6  C   UNL     1       7.186   4.979  16.330  0.00  0.00    +0.000 C 
ATOM      7  N   UNL     1       6.302   3.887  16.736  0.00  0.00    +0.000 NA
ATOM      8  C   UNL     1       5.090   4.124  17.095  0.00  0.00    +0.000 C 
ATOM      9  N   UNL     1       4.278   3.070  17.366  0.00  0.00    +0.000 N 
ATOM     10  C   UNL     1       3.167   3.063  18.196  0.00  0.00    +0.000 A 
ATOM     11  N   UNL     1       2.503   4.206  18.453  0.00  0.00    +0.000 NA
ATOM     12  C   UNL     1       1.463   4.133  19.307  0.00  0.00    +0.000 A 
ATOM     13  C   UNL     1       1.072   2.973  19.925  0.00  0.00    +0.000 A 
ATOM     14  C   UNL     1       1.807   1.860  19.599  0.00  0.00    +0.000 A 
ATOM     15  N   UNL     1       2.840   1.878  18.735  0.00  0.00    +0.000 NA
ATOM     16  N   UNL     1       4.605   5.393  17.210  0.00  0.00    +0.000 N 
ATOM     17  C   UNL     1       5.358   6.528  17.217  0.00  0.00    +0.000 C 
ATOM     18  O   UNL     1       4.872   7.587  17.621  0.00  0.00    +0.000 OA
ATOM     19  H   UNL     1       4.706   2.158  17.325  0.00  0.00    +0.000 HD
ATOM     20  H   UNL     1       3.657   5.494  17.561  0.00  0.00    +0.000 HD
ENDBRANCH   2   5
BRANCH   3  21
ATOM     21  C   UNL     1       8.661   8.867  19.058  0.00  0.00    +0.000 C 
BRANCH  21  22
ATOM     22  C   UNL     1       9.376  10.205  18.784  0.00  0.00    +0.000 C 
BRANCH  22  23
ATOM     23  N   UNL     1       8.495  11.197  18.146  0.00  0.00    +0.000 NA
ATOM     24  H   UNL     1       8.042  11.775  18.855  0.00  0.00    +0.000 HD
ATOM     25  H   UNL     1       7.727  10.678  17.700  0.00  0.00    +0.000 HD
ENDBRANCH  22  23
BRANCH  22  26
ATOM     26  C   UNL     1       9.925  10.833  20.080  0.00  0.00    +0.000 C 
BRANCH  26  27
ATOM     27  C   UNL     1      10.272  12.324  19.977  0.00  0.00    +0.000 C 
BRANCH  27  28
ATOM     28  C   UNL     1      11.364  12.599  18.944  0.00  0.00    +0.000 C 
BRANCH  28  29
ATOM     29  N   UNL     1      10.934  13.692  18.075  0.00  0.00    +0.000 NA
ATOM     30  C   UNL     1      11.435  13.734  16.899  0.00  0.00    +0.000 C 
ATOM     31  N   UNL     1      12.325  12.904  16.310  0.00  0.00    +0.000 N 
ATOM     32  N   UNL     1      11.101  14.727  16.051  0.00  0.00    +0.000 N 
ATOM     33  H   UNL     1      12.461  12.019  16.781  0.00  0.00    +0.000 HD
ATOM     34  H   UNL     1      12.123  12.755  15.326  0.00  0.00    +0.000 HD
ATOM     35  H   UNL     1      10.621  15.462  16.558  0.00  0.00    +0.000 HD
ATOM     36  H   UNL     1      11.893  15.091  15.540  0.00  0.00    +0.000 HD
ENDBRANCH  28  29
ENDBRANCH  27  28
ENDBRANCH  26  27
ENDBRANCH  22  26
ENDBRANCH  21  22
ENDBRANCH   3  21
TORSDOF 8
ENDMDL
MODEL 2
REMARK VINA RESULT:      -7.1      6.875     10.157
REMARK  Name = 
REMARK  9 active torsions:
REMARK  status: ('A' for Active; 'I' for Inactive)
REMARK    1  A    between atoms: C_1  and  N_2
REMARK    2  A    between atoms: N_2  and  C_15
REMARK    3  A    between atoms: C_3  and  C_5
REMARK    4  A    between atoms: C_5  and  C_6
REMARK    5  A    between atoms: C_6  and  N_7
REMARK    6  A    between atoms: C_6  and  C_8
REMARK    7  A    between atoms: C_8  and  C_9
REMARK    8  A    between atoms: C_9  and  C_10
REMARK    9  A    between atoms: C_10  and  N_11
REMARK                            x       y       z     vdW  Elec       q    Type
REMARK                         _______ _______ _______ _____ _____    ______ ____
ROOT
ATOM      1  C   UNL     1      -0.620   9.371  17.600  0.00  0.00    +0.000 C 
ATOM      2  N   UNL     1      -0.173  10.282  18.653  0.00  0.00    +0.000 N 
ATOM      3  C   UNL     1      -0.686  11.567  18.857  0.00  0.00    +0.000 C 
ATOM      4  O   UNL     1      -0.288  12.279  19.777  0.00  0.00    +0.000 OA
ENDROOT
BRANCH   2   5
ATOM      5  C   UNL     1       1.088   9.958  19.360  0.00  0.00    +0.000 C 
ATOM      6  C   UNL     1       0.910   9.471  20.795  0.00  0.00    +0.000 C 
ATOM      7  N   UNL     1       1.094   8.040  21.032  0.00  0.00    +0.000 NA
ATOM      8  C   UNL     1       1.778   7.322  20.213  0.00  0.00    +0.000 C 
ATOM      9  N   UNL     1       2.006   6.021  20.526  0.00  0.00    +0.000 N 
ATOM     10  C   UNL     1       2.260   4.980  19.645  0.00  0.00    +0.000 A 
ATOM     11  N   UNL     1       2.770   5.233  18.425  0.00  0.00    +0.000 NA
ATOM     12  C   UNL     1       2.946   4.180  17.604  0.00  0.00    +0.000 A 
ATOM     13  C   UNL     1       2.619   2.892  17.944  0.00  0.00    +0.000 A 
ATOM     14  C   UNL     1       2.110   2.733  19.209  0.00  0.00    +0.000 A 
ATOM     15  N   UNL     1       1.936   3.751  20.074  0.00  0.00    +0.000 NA
ATOM     16  N   UNL     1       2.273   7.829  19.048  0.00  0.00    +0.000 N 
ATOM     17  C   UNL     1       1.918   9.020  18.491  0.00  0.00    +0.000 C 
ATOM     18  O   UNL     1       2.186   9.252  17.309  0.00  0.00    +0.000 OA
ATOM     19  H   UNL     1       1.564   5.684  21.368  0.00  0.00    +0.000 HD
ATOM     20  H   UNL     1       2.747   7.179  18.427  0.00  0.00    +0.000 HD
ENDBRANCH   2   5
BRANCH   3  21
ATOM     21  C   UNL     1      -1.753  12.045  17.894  0.00  0.00    +0.000 C 
BRANCH  21  22
ATOM     22  C   UNL     1      -3.169  11.547  18.249  0.00  0.00    +0.000 C 
BRANCH  22  23
ATOM     23  N   UNL     1      -3.895  12.482  19.123  0.00  0.00    +0.000 NA
ATOM     24  H   UNL     1      -3.359  13.341  19.246  0.00  0.00    +0.000 HD
ATOM     25  H   UNL     1      -3.928  12.058  20.060  0.00  0.00    +0.000 HD
ENDBRANCH  22  23
BRANCH  22  26
ATOM     26  C   UNL     1      -4.027  11.324  16.988  0.00  0.00    +0.000 C 
BRANCH  26  27
ATOM     27  C   UNL     1      -3.229  11.104  15.696  0.00  0.00    +0.000 C 
BRANCH  27  28
ATOM     28  C   UNL     1      -3.777   9.948  14.862  0.00  0.00    +0.000 C 
BRANCH  28  29
ATOM     29  N   UNL     1      -3.401  10.148  13.464  0.00  0.00    +0.000 NA
ATOM     30  C   UNL     1      -4.276   9.860  12.577  0.00  0.00    +0.000 C 
ATOM     31  N   UNL     1      -5.534   9.388  12.727  0.00  0.00    +0.000 N 
ATOM     32  N   UNL     1      -3.991   9.999  11.267  0.00  0.00    +0.000 N 
ATOM     33  H   UNL     1      -5.910   9.462  13.663  0.00  0.00    +0.000 HD
ATOM     34  H   UNL     1      -6.180   9.786  12.053  0.00  0.00    +0.000 HD
ATOM     35  H   UNL     1      -2.992  10.132  11.148  0.00  0.00    +0.000 HD
ATOM     36  H   UNL     1      -4.327   9.228  10.707  0.00  0.00    +0.000 HD
ENDBRANCH  28  29
ENDBRANCH  27  28
ENDBRANCH  26  27
ENDBRANCH  22  26
ENDBRANCH  21  22
ENDBRANCH   3  21
TORSDOF 8
ENDMDL
MODEL 3
REMARK VINA RESULT:      -7.0      2.276      9.391
REMARK  Name = 
REMARK  9 active torsions:
REMARK  status: ('A' for Active; 'I' for Inactive)
REMARK    1  A    between atoms: C_1  and  N_2
REMARK    2  A    between atoms: N_2  and  C_15
REMARK    3  A    between atoms: C_3  and  C_5
REMARK    4  A    between atoms: C_5  and  C_6
REMARK    5  A    between atoms: C_6  and  N_7
REMARK    6  A    between atoms: C_6  and  C_8
REMARK    7  A    between atoms: C_8  and  C_9
REMARK    8  A    between atoms: C_9  and  C_10
REMARK    9  A    between atoms: C_10  and  N_11
REMARK                            x       y       z     vdW  Elec       q    Type
REMARK                         _______ _______ _______ _____ _____    ______ ____
ROOT
ATOM      1  C   UNL     1       4.059   6.452  18.705  0.00  0.00    +0.000 C 
ATOM      2  N   UNL     1       4.879   5.248  18.829  0.00  0.00    +0.000 N 
ATOM      3  C   UNL     1       4.625   4.208  19.728  0.00  0.00    +0.000 C 
ATOM      4  O   UNL     1       5.337   3.206  19.769  0.00  0.00    +0.000 OA
ENDROOT
BRANCH   2   5
ATOM      5  C   UNL     1       6.214   5.250  18.186  0.00  0.00    +0.000 C 
ATOM      6  C   UNL     1       6.238   5.799  16.763  0.00  0.00    +0.000 C 
ATOM      7  N   UNL     1       6.796   7.138  16.582  0.00  0.00    +0.000 NA
ATOM      8  C   UNL     1       7.600   7.636  17.453  0.00  0.00    +0.000 C 
ATOM      9  N   UNL     1       8.170   8.841  17.194  0.00  0.00    +0.000 N 
ATOM     10  C   UNL     1       8.640   9.761  18.120  0.00  0.00    +0.000 A 
ATOM     11  N   UNL     1       9.007   9.358  19.351  0.00  0.00    +0.000 NA
ATOM     12  C   UNL     1       9.407  10.312  20.214  0.00  0.00    +0.000 A 
ATOM     13  C   UNL     1       9.440  11.648  19.904  0.00  0.00    +0.000 A 
ATOM     14  C   UNL     1       9.051  11.961  18.626  0.00  0.00    +0.000 A 
ATOM     15  N   UNL     1       8.664  11.041  17.720  0.00  0.00    +0.000 NA
ATOM     16  N   UNL     1       7.890   6.993  18.620  0.00  0.00    +0.000 N 
ATOM     17  C   UNL     1       7.213   5.922  19.121  0.00  0.00    +0.000 C 
ATOM     18  O   UNL     1       7.354   5.603  20.304  0.00  0.00    +0.000 OA
ATOM     19  H   UNL     1       7.871   9.299  16.346  0.00  0.00    +0.000 HD
ATOM     20  H   UNL     1       8.484   7.484  19.282  0.00  0.00    +0.000 HD
ENDBRANCH   2   5
BRANCH   3  21
ATOM     21  C   UNL     1       3.435   4.368  20.652  0.00  0.00    +0.000 C 
BRANCH  21  22
ATOM     22  C   UNL     1       2.630   3.067  20.849  0.00  0.00    +0.000 C 
BRANCH  22  23
ATOM     23  N   UNL     1       2.610   2.621  22.251  0.00  0.00    +0.000 NA
ATOM     24  H   UNL     1       3.327   1.912  22.407  0.00  0.00    +0.000 HD
ATOM     25  H   UNL     1       1.719   2.129  22.399  0.00  0.00    +0.000 HD
ENDBRANCH  22  23
BRANCH  22  26
ATOM     26  C   UNL     1       1.167   3.228  20.388  0.00  0.00    +0.000 C 
BRANCH  26  27
ATOM     27  C   UNL     1       0.996   3.644  18.922  0.00  0.00    +0.000 C 
BRANCH  27  28
ATOM     28  C   UNL     1       1.300   2.503  17.953  0.00  0.00    +0.000 C 
BRANCH  28  29
ATOM     29  N   UNL     1       2.486   2.844  17.171  0.00  0.00    +0.000 NA
ATOM     30  C   UNL     1       3.534   2.137  17.360  0.00  0.00    +0.000 C 
ATOM     31  N   UNL     1       3.729   1.089  18.192  0.00  0.00    +0.000 N 
ATOM     32  N   UNL     1       4.671   2.408  16.690  0.00  0.00    +0.000 N 
ATOM     33  H   UNL     1       2.884   0.677  18.567  0.00  0.00    +0.000 HD
ATOM     34  H   UNL     1       4.321   0.374  17.783  0.00  0.00    +0.000 HD
ATOM     35  H   UNL     1       4.596   3.316  16.244  0.00  0.00    +0.000 HD
ATOM     36  H   UNL     1       5.494   2.353  17.272  0.00  0.00    +0.000 HD
ENDBRANCH  28  29
ENDBRANCH  27  28
ENDBRANCH  26  27
ENDBRANCH  22  26
ENDBRANCH  21  22
ENDBRANCH   3  21
TORSDOF 8
ENDMDL
MODEL 4
REMARK VINA RESULT:      -6.9      1.051      1.342
REMARK  Name = 
REMARK  9 active torsions:
REMARK  status: ('A' for Active; 'I' for Inactive)
REMARK    1  A    between atoms: C_1  and  N_2
REMARK    2  A    between atoms: N_2  and  C_15
REMARK    3  A    between atoms: C_3  and  C_5
REMARK    4  A    between atoms: C_5  and  C_6
REMARK    5  A    between atoms: C_6  and  N_7
REMARK    6  A    between atoms: C_6  and  C_8
REMARK    7  A    between atoms: C_8  and  C_9
REMARK    8  A    between atoms: C_9  and  C_10
REMARK    9  A    between atoms: C_10  and  N_11
REMARK                            x       y       z     vdW  Elec       q    Type
REMARK                         _______ _______ _______ _____ _____    ______ ____
ROOT
ATOM      1  C   UNL     1       7.732   6.039  19.130  0.00  0.00    +0.000 C 
ATOM      2  N   UNL     1       7.649   6.843  17.912  0.00  0.00    +0.000 N 
ATOM      3  C   UNL     1       8.065   8.175  17.814  0.00  0.00    +0.000 C 
ATOM      4  O   UNL     1       7.994   8.794  16.754  0.00  0.00    +0.000 OA
ENDROOT
BRANCH   2   5
ATOM      5  C   UNL     1       6.814   6.333  16.800  0.00  0.00    +0.000 C 
ATOM      6  C   UNL     1       7.175   4.930  16.321  0.00  0.00    +0.000 C 
ATOM      7  N   UNL     1       6.275   3.847  16.717  0.00  0.00    +0.000 NA
ATOM      8  C   UNL     1       5.059   4.095  17.053  0.00  0.00    +0.000 C 
ATOM      9  N   UNL     1       4.234   3.049  17.317  0.00  0.00    +0.000 N 
ATOM     10  C   UNL     1       3.109   3.055  18.127  0.00  0.00    +0.000 A 
ATOM     11  N   UNL     1       2.449   4.204  18.366  0.00  0.00    +0.000 NA
ATOM     12  C   UNL     1       1.395   4.144  19.202  0.00  0.00    +0.000 A 
ATOM     13  C   UNL     1       0.984   2.991  19.820  0.00  0.00    +0.000 A 
ATOM     14  C   UNL     1       1.715   1.870  19.512  0.00  0.00    +0.000 A 
ATOM     15  N   UNL     1       2.764   1.876  18.666  0.00  0.00    +0.000 NA
ATOM     16  N   UNL     1       4.583   5.368  17.154  0.00  0.00    +0.000 N 
ATOM     17  C   UNL     1       5.344   6.498  17.167  0.00  0.00    +0.000 C 
ATOM     18  O   UNL     1       4.859   7.563  17.557  0.00  0.00    +0.000 OA
ATOM     19  H   UNL     1       4.656   2.134  17.288  0.00  0.00    +0.000 HD
ATOM     20  H   UNL     1       3.629   5.479  17.487  0.00  0.00    +0.000 HD
ENDBRANCH   2   5
BRANCH   3  21
ATOM     21  C   UNL     1       8.606   8.824  19.072  0.00  0.00    +0.000 C 
BRANCH  21  22
ATOM     22  C   UNL     1       9.333  10.158  18.811  0.00  0.00    +0.000 C 
BRANCH  22  23
ATOM     23  N   UNL     1       8.525  11.097  18.015  0.00  0.00    +0.000 NA
ATOM     24  H   UNL     1       7.553  10.788  17.983  0.00  0.00    +0.000 HD
ATOM     25  H   UNL     1       8.854  11.028  17.042  0.00  0.00    +0.000 HD
ENDBRANCH  22  23
BRANCH  22  26
ATOM     26  C   UNL     1       9.710  10.867  20.127  0.00  0.00    +0.000 C 
BRANCH  26  27
ATOM     27  C   UNL     1      10.995  11.704  20.063  0.00  0.00    +0.000 C 
BRANCH  27  28
ATOM     28  C   UNL     1      10.718  13.204  20.134  0.00  0.00    +0.000 C 
BRANCH  28  29
ATOM     29  N   UNL     1      10.314  13.678  18.812  0.00  0.00    +0.000 NA
ATOM     30  C   UNL     1       9.319  14.478  18.757  0.00  0.00    +0.000 C 
ATOM     31  N   UNL     1       8.554  14.973  19.755  0.00  0.00    +0.000 N 
ATOM     32  N   UNL     1       8.878  14.938  17.569  0.00  0.00    +0.000 N 
ATOM     33  H   UNL     1       8.939  14.864  20.685  0.00  0.00    +0.000 HD
ATOM     34  H   UNL     1       8.284  15.939  19.595  0.00  0.00    +0.000 HD
ATOM     35  H   UNL     1       9.295  14.399  16.818  0.00  0.00    +0.000 HD
ATOM     36  H   UNL     1       7.870  14.944  17.499  0.00  0.00    +0.000 HD
ENDBRANCH  28  29
ENDBRANCH  27  28
ENDBRANCH  26  27
ENDBRANCH  22  26
ENDBRANCH  21  22
ENDBRANCH   3  21
TORSDOF 8
ENDMDL
MODEL 5
REMARK VINA RESULT:      -6.9      7.467     10.081
REMARK  Name = 
REMARK  9 active torsions:
REMARK  status: ('A' for Active; 'I' for Inactive)
REMARK    1  A    between atoms: C_1  and  N_2
REMARK    2  A    between atoms: N_2  and  C_15
REMARK    3  A    between atoms: C_3  and  C_5
REMARK    4  A    between atoms: C_5  and  C_6
REMARK    5  A    between atoms: C_6  and  N_7
REMARK    6  A    between atoms: C_6  and  C_8
REMARK    7  A    between atoms: C_8  and  C_9
REMARK    8  A    between atoms: C_9  and  C_10
REMARK    9  A    between atoms: C_10  and  N_11
REMARK                            x       y       z     vdW  Elec       q    Type
REMARK                         _______ _______ _______ _____ _____    ______ ____
ROOT
ATOM      1  C   UNL     1       0.230   9.281  20.774  0.00  0.00    +0.000 C 
ATOM      2  N   UNL     1       0.660   9.704  19.442  0.00  0.00    +0.000 N 
ATOM      3  C   UNL     1       1.607   9.029  18.665  0.00  0.00    +0.000 C 
ATOM      4  O   UNL     1       1.910   9.420  17.539  0.00  0.00    +0.000 OA
ENDROOT
BRANCH   2   5
ATOM      5  C   UNL     1       0.305  11.074  19.002  0.00  0.00    +0.000 C 
ATOM      6  C   UNL     1      -1.054  11.194  18.321  0.00  0.00    +0.000 C 
ATOM      7  N   UNL     1      -2.132  11.797  19.103  0.00  0.00    +0.000 NA
ATOM      8  C   UNL     1      -1.868  12.562  20.102  0.00  0.00    +0.000 C 
ATOM      9  N   UNL     1      -2.900  13.177  20.737  0.00  0.00    +0.000 N 
ATOM     10  C   UNL     1      -2.930  13.617  22.052  0.00  0.00    +0.000 A 
ATOM     11  N   UNL     1      -1.784  13.902  22.699  0.00  0.00    +0.000 NA
ATOM     12  C   UNL     1      -1.886  14.276  23.990  0.00  0.00    +0.000 A 
ATOM     13  C   UNL     1      -3.079  14.361  24.661  0.00  0.00    +0.000 A 
ATOM     14  C   UNL     1      -4.191  14.056  23.917  0.00  0.00    +0.000 A 
ATOM     15  N   UNL     1      -4.142  13.698  22.619  0.00  0.00    +0.000 NA
ATOM     16  N   UNL     1      -0.593  12.767  20.539  0.00  0.00    +0.000 N 
ATOM     17  C   UNL     1       0.495  12.034  20.171  0.00  0.00    +0.000 C 
ATOM     18  O   UNL     1       1.533  12.098  20.834  0.00  0.00    +0.000 OA
ATOM     19  H   UNL     1      -3.824  12.941  20.411  0.00  0.00    +0.000 HD
ATOM     20  H   UNL     1      -0.477  13.335  21.374  0.00  0.00    +0.000 HD
ENDBRANCH   2   5
BRANCH   3  21
ATOM     21  C   UNL     1       2.246   7.796  19.271  0.00  0.00    +0.000 C 
BRANCH  21  22
ATOM     22  C   UNL     1       2.745   6.784  18.221  0.00  0.00    +0.000 C 
BRANCH  22  23
ATOM     23  N   UNL     1       3.941   7.255  17.503  0.00  0.00    +0.000 NA
ATOM     24  H   UNL     1       4.261   6.545  16.844  0.00  0.00    +0.000 HD
ATOM     25  H   UNL     1       4.698   7.332  18.195  0.00  0.00    +0.000 HD
ENDBRANCH  22  23
BRANCH  22  26
ATOM     26  C   UNL     1       3.090   5.424  18.860  0.00  0.00    +0.000 C 
BRANCH  26  27
ATOM     27  C   UNL     1       4.591   5.153  19.028  0.00  0.00    +0.000 C 
BRANCH  27  28
ATOM     28  C   UNL     1       5.095   4.059  18.088  0.00  0.00    +0.000 C 
BRANCH  28  29
ATOM     29  N   UNL     1       5.624   4.678  16.875  0.00  0.00    +0.000 NA
ATOM     30  C   UNL     1       6.895   4.758  16.766  0.00  0.00    +0.000 C 
ATOM     31  N   UNL     1       7.861   4.348  17.618  0.00  0.00    +0.000 N 
ATOM     32  N   UNL     1       7.452   5.336  15.684  0.00  0.00    +0.000 N 
ATOM     33  H   UNL     1       7.552   3.712  18.342  0.00  0.00    +0.000 HD
ATOM     34  H   UNL     1       8.669   3.968  17.134  0.00  0.00    +0.000 HD
ATOM     35  H   UNL     1       6.743   5.839  15.162  0.00  0.00    +0.000 HD
ATOM     36  H   UNL     1       8.231   5.937  15.915  0.00  0.00    +0.000 HD
ENDBRANCH  28  29
ENDBRANCH  27  28
ENDBRANCH  26  27
ENDBRANCH  22  26
ENDBRANCH  21  22
ENDBRANCH   3  21
TORSDOF 8
ENDMDL
MODEL 6
REMARK VINA RESULT:      -6.8      3.267      5.170
REMARK  Name = 
REMARK  9 active torsions:
REMARK  status: ('A' for Active; 'I' for Inactive)
REMARK    1  A    between atoms: C_1  and  N_2
REMARK    2  A    between atoms: N_2  and  C_15
REMARK    3  A    between atoms: C_3  and  C_5
REMARK    4  A    between atoms: C_5  and  C_6
REMARK    5  A    between atoms: C_6  and  N_7
REMARK    6  A    between atoms: C_6  and  C_8
REMARK    7  A    between atoms: C_8  and  C_9
REMARK    8  A    between atoms: C_9  and  C_10
REMARK    9  A    between atoms: C_10  and  N_11
REMARK                            x       y       z     vdW  Elec       q    Type
REMARK                         _______ _______ _______ _____ _____    ______ ____
ROOT
ATOM      1  C   UNL     1       5.917   5.288  19.665  0.00  0.00    +0.000 C 
ATOM      2  N   UNL     1       5.299   4.623  18.518  0.00  0.00    +0.000 N 
ATOM      3  C   UNL     1       5.942   4.393  17.297  0.00  0.00    +0.000 C 
ATOM      4  O   UNL     1       5.378   3.805  16.376  0.00  0.00    +0.000 OA
ENDROOT
BRANCH   2   5
ATOM      5  C   UNL     1       3.829   4.444  18.531  0.00  0.00    +0.000 C 
ATOM      6  C   UNL     1       3.265   3.875  19.830  0.00  0.00    +0.000 C 
ATOM      7  N   UNL     1       2.571   4.812  20.712  0.00  0.00    +0.000 NA
ATOM      8  C   UNL     1       2.084   5.908  20.250  0.00  0.00    +0.000 C 
ATOM      9  N   UNL     1       1.362   6.699  21.087  0.00  0.00    +0.000 N 
ATOM     10  C   UNL     1       1.170   8.068  20.985  0.00  0.00    +0.000 A 
ATOM     11  N   UNL     1       1.289   8.685  19.794  0.00  0.00    +0.000 NA
ATOM     12  C   UNL     1       1.139  10.023  19.778  0.00  0.00    +0.000 A 
ATOM     13  C   UNL     1       0.890  10.770  20.902  0.00  0.00    +0.000 A 
ATOM     14  C   UNL     1       0.782  10.054  22.068  0.00  0.00    +0.000 A 
ATOM     15  N   UNL     1       0.903   8.713  22.131  0.00  0.00    +0.000 NA
ATOM     16  N   UNL     1       2.272   6.296  18.957  0.00  0.00    +0.000 N 
ATOM     17  C   UNL     1       3.167   5.744  18.090  0.00  0.00    +0.000 C 
ATOM     18  O   UNL     1       3.474   6.344  17.057  0.00  0.00    +0.000 OA
ATOM     19  H   UNL     1       1.307   6.394  22.047  0.00  0.00    +0.000 HD
ATOM     20  H   UNL     1       1.907   7.206  18.690  0.00  0.00    +0.000 HD
ENDBRANCH   2   5
BRANCH   3  21
ATOM     21  C   UNL     1       7.362   4.901  17.157  0.00  0.00    +0.000 C 
BRANCH  21  22
ATOM     22  C   UNL     1       7.447   6.370  16.696  0.00  0.00    +0.000 C 
BRANCH  22  23
ATOM     23  N   UNL     1       6.154   6.890  16.222  0.00  0.00    +0.000 NA
ATOM     24  H   UNL     1       5.966   6.561  15.275  0.00  0.00    +0.000 HD
ATOM     25  H   UNL     1       6.254   7.910  16.129  0.00  0.00    +0.000 HD
ENDBRANCH  22  23
BRANCH  22  26
ATOM     26  C   UNL     1       7.935   7.295  17.830  0.00  0.00    +0.000 C 
BRANCH  26  27
ATOM     27  C   UNL     1       7.518   8.765  17.686  0.00  0.00    +0.000 C 
BRANCH  27  28
ATOM     28  C   UNL     1       8.680   9.726  17.927  0.00  0.00    +0.000 C 
BRANCH  28  29
ATOM     29  N   UNL     1       8.964   9.782  19.360  0.00  0.00    +0.000 NA
ATOM     30  C   UNL     1       9.325  10.910  19.840  0.00  0.00    +0.000 C 
ATOM     31  N   UNL     1       9.491  12.099  19.219  0.00  0.00    +0.000 N 
ATOM     32  N   UNL     1       9.624  11.030  21.149  0.00  0.00    +0.000 N 
ATOM     33  H   UNL     1       9.082  12.160  18.295  0.00  0.00    +0.000 HD
ATOM     34  H   UNL     1       9.190  12.882  19.792  0.00  0.00    +0.000 HD
ATOM     35  H   UNL     1       9.720  10.109  21.563  0.00  0.00    +0.000 HD
ATOM     36  H   UNL     1      10.446  11.594  21.315  0.00  0.00    +0.000 HD
ENDBRANCH  28  29
ENDBRANCH  27  28
ENDBRANCH  26  27
ENDBRANCH  22  26
ENDBRANCH  21  22
ENDBRANCH   3  21
TORSDOF 8
ENDMDL
MODEL 7
REMARK VINA RESULT:      -6.8      7.126     10.911
REMARK  Name = 
REMARK  9 active torsions:
REMARK  status: ('A' for Active; 'I' for Inactive)
REMARK    1  A    between atoms: C_1  and  N_2
REMARK    2  A    between atoms: N_2  and  C_15
REMARK    3  A    between atoms: C_3  and  C_5
REMARK    4  A    between atoms: C_5  and  C_6
REMARK    5  A    between atoms: C_6  and  N_7
REMARK    6  A    between atoms: C_6  and  C_8
REMARK    7  A    between atoms: C_8  and  C_9
REMARK    8  A    between atoms: C_9  and  C_10
REMARK    9  A    between atoms: C_10  and  N_11
REMARK                            x       y       z     vdW  Elec       q    Type
REMARK                         _______ _______ _______ _____ _____    ______ ____
ROOT
ATOM      1  C   UNL     1       0.523   8.948  20.735  0.00  0.00    +0.000 C 
ATOM      2  N   UNL     1       0.866   9.418  19.394  0.00  0.00    +0.000 N 
ATOM      3  C   UNL     1       1.796   8.799  18.553  0.00  0.00    +0.000 C 
ATOM      4  O   UNL     1       2.025   9.227  17.423  0.00  0.00    +0.000 OA
ENDROOT
BRANCH   2   5
ATOM      5  C   UNL     1       0.436  10.782  19.007  0.00  0.00    +0.000 C 
ATOM      6  C   UNL     1      -0.832  10.837  18.161  0.00  0.00    +0.000 C 
ATOM      7  N   UNL     1      -2.054  11.277  18.833  0.00  0.00    +0.000 NA
ATOM      8  C   UNL     1      -1.993  11.978  19.909  0.00  0.00    +0.000 C 
ATOM      9  N   UNL     1      -3.151  12.447  20.442  0.00  0.00    +0.000 N 
ATOM     10  C   UNL     1      -3.389  12.774  21.769  0.00  0.00    +0.000 A 
ATOM     11  N   UNL     1      -2.367  13.105  22.581  0.00  0.00    +0.000 NA
ATOM     12  C   UNL     1      -2.666  13.363  23.869  0.00  0.00    +0.000 A 
ATOM     13  C   UNL     1      -3.936  13.289  24.381  0.00  0.00    +0.000 A 
ATOM     14  C   UNL     1      -4.911  12.947  23.477  0.00  0.00    +0.000 A 
ATOM     15  N   UNL     1      -4.665  12.701  22.175  0.00  0.00    +0.000 NA
ATOM     16  N   UNL     1      -0.809  12.259  20.524  0.00  0.00    +0.000 N 
ATOM     17  C   UNL     1       0.383  11.658  20.253  0.00  0.00    +0.000 C 
ATOM     18  O   UNL     1       1.319  11.759  21.050  0.00  0.00    +0.000 OA
ATOM     19  H   UNL     1      -4.000  12.157  19.982  0.00  0.00    +0.000 HD
ATOM     20  H   UNL     1      -0.855  12.766  21.404  0.00  0.00    +0.000 HD
ENDBRANCH   2   5
BRANCH   3  21
ATOM     21  C   UNL     1       2.512   7.579  19.095  0.00  0.00    +0.000 C 
BRANCH  21  22
ATOM     22  C   UNL     1       2.990   6.608  17.996  0.00  0.00    +0.000 C 
BRANCH  22  23
ATOM     23  N   UNL     1       4.408   6.241  18.143  0.00  0.00    +0.000 NA
ATOM     24  H   UNL     1       4.956   6.630  17.375  0.00  0.00    +0.000 HD
ATOM     25  H   UNL     1       4.470   5.221  18.019  0.00  0.00    +0.000 HD
ENDBRANCH  22  23
BRANCH  22  26
ATOM     26  C   UNL     1       2.167   5.304  17.991  0.00  0.00    +0.000 C 
BRANCH  26  27
ATOM     27  C   UNL     1       2.990   4.025  17.787  0.00  0.00    +0.000 C 
BRANCH  27  28
ATOM     28  C   UNL     1       2.285   2.786  18.336  0.00  0.00    +0.000 C 
BRANCH  28  29
ATOM     29  N   UNL     1       2.697   2.579  19.723  0.00  0.00    +0.000 NA
ATOM     30  C   UNL     1       1.822   2.795  20.630  0.00  0.00    +0.000 C 
ATOM     31  N   UNL     1       0.537   3.196  20.511  0.00  0.00    +0.000 N 
ATOM     32  N   UNL     1       2.138   2.645  21.932  0.00  0.00    +0.000 N 
ATOM     33  H   UNL     1       0.149   3.121  19.580  0.00  0.00    +0.000 HD
ATOM     34  H   UNL     1      -0.074   2.747  21.187  0.00  0.00    +0.000 HD
ATOM     35  H   UNL     1       3.144   2.568  22.033  0.00  0.00    +0.000 HD
ATOM     36  H   UNL     1       1.767   3.382  22.514  0.00  0.00    +0.000 HD
ENDBRANCH  28  29
ENDBRANCH  27  28
ENDBRANCH  26  27
ENDBRANCH  22  26
ENDBRANCH  21  22
ENDBRANCH   3  21
TORSDOF 8
ENDMDL
MODEL 8
REMARK VINA RESULT:      -6.8      7.440     10.757
REMARK  Name = 
REMARK  9 active torsions:
REMARK  status: ('A' for Active; 'I' for Inactive)
REMARK    1  A    between atoms: C_1  and  N_2
REMARK    2  A    between atoms: N_2  and  C_15
REMARK    3  A    between atoms: C_3  and  C_5
REMARK    4  A    between atoms: C_5  and  C_6
REMARK    5  A    between atoms: C_6  and  N_7
REMARK    6  A    between atoms: C_6  and  C_8
REMARK    7  A    between atoms: C_8  and  C_9
REMARK    8  A    between atoms: C_9  and  C_10
REMARK    9  A    between atoms: C_10  and  N_11
REMARK                            x       y       z     vdW  Elec       q    Type
REMARK                         _______ _______ _______ _____ _____    ______ ____
ROOT
ATOM      1  C   UNL     1      -0.186   9.137  20.414  0.00  0.00    +0.000 C 
ATOM      2  N   UNL     1       0.377   9.782  19.228  0.00  0.00    +0.000 N 
ATOM      3  C   UNL     1       1.526   9.345  18.560  0.00  0.00    +0.000 C 
ATOM      4  O   UNL     1       1.938   9.914  17.551  0.00  0.00    +0.000 OA
ENDROOT
BRANCH   2   5
ATOM      5  C   UNL     1      -0.109  11.137  18.880  0.00  0.00    +0.000 C 
ATOM      6  C   UNL     1      -1.383  11.163  18.040  0.00  0.00    +0.000 C 
ATOM      7  N   UNL     1      -2.618  11.534  18.729  0.00  0.00    +0.000 NA
ATOM      8  C   UNL     1      -2.581  12.208  19.823  0.00  0.00    +0.000 C 
ATOM      9  N   UNL     1      -3.755  12.615  20.373  0.00  0.00    +0.000 N 
ATOM     10  C   UNL     1      -4.000  12.896  21.709  0.00  0.00    +0.000 A 
ATOM     11  N   UNL     1      -2.989  13.246  22.526  0.00  0.00    +0.000 NA
ATOM     12  C   UNL     1      -3.292  13.457  23.821  0.00  0.00    +0.000 A 
ATOM     13  C   UNL     1      -4.556  13.316  24.336  0.00  0.00    +0.000 A 
ATOM     14  C   UNL     1      -5.520  12.960  23.426  0.00  0.00    +0.000 A 
ATOM     15  N   UNL     1      -5.270  12.760  22.117  0.00  0.00    +0.000 NA
ATOM     16  N   UNL     1      -1.407  12.520  20.441  0.00  0.00    +0.000 N 
ATOM     17  C   UNL     1      -0.192  11.976  20.150  0.00  0.00    +0.000 C 
ATOM     18  O   UNL     1       0.742  12.093  20.946  0.00  0.00    +0.000 OA
ATOM     19  H   UNL     1      -4.594  12.302  19.908  0.00  0.00    +0.000 HD
ATOM     20  H   UNL     1      -1.469  13.000  21.335  0.00  0.00    +0.000 HD
ENDBRANCH   2   5
BRANCH   3  21
ATOM     21  C   UNL     1       2.242   8.140  19.135  0.00  0.00    +0.000 C 
BRANCH  21  22
ATOM     22  C   UNL     1       2.513   7.033  18.096  0.00  0.00    +0.000 C 
BRANCH  22  23
ATOM     23  N   UNL     1       3.812   7.194  17.423  0.00  0.00    +0.000 NA
ATOM     24  H   UNL     1       4.389   7.870  17.925  0.00  0.00    +0.000 HD
ATOM     25  H   UNL     1       3.628   7.633  16.511  0.00  0.00    +0.000 HD
ENDBRANCH  22  23
BRANCH  22  26
ATOM     26  C   UNL     1       2.490   5.631  18.739  0.00  0.00    +0.000 C 
BRANCH  26  27
ATOM     27  C   UNL     1       2.050   4.500  17.801  0.00  0.00    +0.000 C 
BRANCH  27  28
ATOM     28  C   UNL     1       3.204   3.574  17.421  0.00  0.00    +0.000 C 
BRANCH  28  29
ATOM     29  N   UNL     1       3.466   2.659  18.530  0.00  0.00    +0.000 NA
ATOM     30  C   UNL     1       4.585   2.780  19.135  0.00  0.00    +0.000 C 
ATOM     31  N   UNL     1       5.599   3.646  18.910  0.00  0.00    +0.000 N 
ATOM     32  N   UNL     1       4.903   1.956  20.153  0.00  0.00    +0.000 N 
ATOM     33  H   UNL     1       5.364   4.436  18.322  0.00  0.00    +0.000 HD
ATOM     34  H   UNL     1       6.037   3.962  19.770  0.00  0.00    +0.000 HD
ATOM     35  H   UNL     1       4.257   1.174  20.174  0.00  0.00    +0.000 HD
ATOM     36  H   UNL     1       5.861   1.637  20.117  0.00  0.00    +0.000 HD
ENDBRANCH  28  29
ENDBRANCH  27  28
ENDBRANCH  26  27
ENDBRANCH  22  26
ENDBRANCH  21  22
ENDBRANCH   3  21
TORSDOF 8
ENDMDL
MODEL 9
REMARK VINA RESULT:      -6.7      7.556     10.350
REMARK  Name = 
REMARK  9 active torsions:
REMARK  status: ('A' for Active; 'I' for Inactive)
REMARK    1  A    between atoms: C_1  and  N_2
REMARK    2  A    between atoms: N_2  and  C_15
REMARK    3  A    between atoms: C_3  and  C_5
REMARK    4  A    between atoms: C_5  and  C_6
REMARK    5  A    between atoms: C_6  and  N_7
REMARK    6  A    between atoms: C_6  and  C_8
REMARK    7  A    between atoms: C_8  and  C_9
REMARK    8  A    between atoms: C_9  and  C_10
REMARK    9  A    between atoms: C_10  and  N_11
REMARK                            x       y       z     vdW  Elec       q    Type
REMARK                         _______ _______ _______ _____ _____    ______ ____
ROOT
ATOM      1  C   UNL     1       0.058   9.328  20.662  0.00  0.00    +0.000 C 
ATOM      2  N   UNL     1       0.580   9.815  19.386  0.00  0.00    +0.000 N 
ATOM      3  C   UNL     1       1.557   9.160  18.630  0.00  0.00    +0.000 C 
ATOM      4  O   UNL     1       1.939   9.606  17.549  0.00  0.00    +0.000 OA
ENDROOT
BRANCH   2   5
ATOM      5  C   UNL     1       0.286  11.217  19.007  0.00  0.00    +0.000 C 
ATOM      6  C   UNL     1      -1.064  11.427  18.329  0.00  0.00    +0.000 C 
ATOM      7  N   UNL     1      -2.118  12.041  19.136  0.00  0.00    +0.000 NA
ATOM      8  C   UNL     1      -1.825  12.748  20.168  0.00  0.00    +0.000 C 
ATOM      9  N   UNL     1      -2.831  13.379  20.828  0.00  0.00    +0.000 N 
ATOM     10  C   UNL     1      -2.847  13.761  22.161  0.00  0.00    +0.000 A 
ATOM     11  N   UNL     1      -1.692  13.967  22.823  0.00  0.00    +0.000 NA
ATOM     12  C   UNL     1      -1.782  14.287  24.128  0.00  0.00    +0.000 A 
ATOM     13  C   UNL     1      -2.973  14.395  24.801  0.00  0.00    +0.000 A 
ATOM     14  C   UNL     1      -4.095  14.171  24.042  0.00  0.00    +0.000 A 
ATOM     15  N   UNL     1      -4.057  13.869  22.729  0.00  0.00    +0.000 NA
ATOM     16  N   UNL     1      -0.544  12.878  20.616  0.00  0.00    +0.000 N 
ATOM     17  C   UNL     1       0.513  12.116  20.217  0.00  0.00    +0.000 C 
ATOM     18  O   UNL     1       1.551  12.105  20.884  0.00  0.00    +0.000 OA
ATOM     19  H   UNL     1      -3.763  13.198  20.491  0.00  0.00    +0.000 HD
ATOM     20  H   UNL     1      -0.406  13.403  21.475  0.00  0.00    +0.000 HD
ENDBRANCH   2   5
BRANCH   3  21
ATOM     21  C   UNL     1       2.126   7.877  19.199  0.00  0.00    +0.000 C 
BRANCH  21  22
ATOM     22  C   UNL     1       2.540   6.856  18.121  0.00  0.00    +0.000 C 
BRANCH  22  23
ATOM     23  N   UNL     1       3.864   7.145  17.546  0.00  0.00    +0.000 NA
ATOM     24  H   UNL     1       3.795   7.248  16.533  0.00  0.00    +0.000 HD
ATOM     25  H   UNL     1       4.443   6.306  17.684  0.00  0.00    +0.000 HD
ENDBRANCH  22  23
BRANCH  22  26
ATOM     26  C   UNL     1       2.577   5.420  18.681  0.00  0.00    +0.000 C 
BRANCH  26  27
ATOM     27  C   UNL     1       2.961   4.340  17.660  0.00  0.00    +0.000 C 
BRANCH  27  28
ATOM     28  C   UNL     1       4.276   3.648  18.011  0.00  0.00    +0.000 C 
BRANCH  28  29
ATOM     29  N   UNL     1       5.007   4.470  18.973  0.00  0.00    +0.000 NA
ATOM     30  C   UNL     1       6.255   4.649  18.759  0.00  0.00    +0.000 C 
ATOM     31  N   UNL     1       7.033   4.187  17.756  0.00  0.00    +0.000 N 
ATOM     32  N   UNL     1       6.996   5.378  19.617  0.00  0.00    +0.000 N 
ATOM     33  H   UNL     1       6.530   3.822  16.957  0.00  0.00    +0.000 HD
ATOM     34  H   UNL     1       7.726   4.867  17.458  0.00  0.00    +0.000 HD
ATOM     35  H   UNL     1       6.475   5.531  20.474  0.00  0.00    +0.000 HD
ATOM     36  H   UNL     1       7.898   4.966  19.806  0.00  0.00    +0.000 HD
ENDBRANCH  28  29
ENDBRANCH  27  28
ENDBRANCH  26  27
ENDBRANCH  22  26
ENDBRANCH  21  22
ENDBRANCH   3  21
TORSDOF 8
ENDMDL
