MODEL 1
REMARK VINA RESULT:      -7.9      0.000      0.000
REMARK  Name = 
REMARK  10 active torsions:
REMARK  status: ('A' for Active; 'I' for Inactive)
REMARK    1  A    between atoms: C_1  and  C_2
REMARK    2  A    between atoms: C_4  and  O_5
REMARK    3  A    between atoms: O_5  and  C_6
REMARK    4  A    between atoms: C_6  and  C_7
REMARK    5  A    between atoms: C_8  and  C_9
REMARK    6  A    between atoms: C_10  and  C_11
REMARK    7  A    between atoms: C_26  and  N_27
REMARK    8  A    between atoms: N_27  and  C_28
REMARK    9  A    between atoms: N_27  and  C_29
REMARK   10  A    between atoms: C_29  and  C_30
REMARK                            x       y       z     vdW  Elec       q    Type
REMARK                         _______ _______ _______ _____ _____    ______ ____
ROOT
ATOM      1  C   UNL     1       2.537   7.832  18.288  0.00  0.00    +0.000 C 
ATOM      2  C   UNL     1       2.899   6.701  18.492  0.00  0.00    +0.000 C 
ENDROOT
BRANCH   2   3
ATOM      3  C   UNL     1       3.384   5.362  18.554  0.00  0.00    +0.000 A 
ATOM      4  C   UNL     1       4.721   5.037  18.360  0.00  0.00    +0.000 A 
ATOM      5  S   UNL     1       4.919   3.334  18.370  0.00  0.00    +0.000 S 
ATOM      6  C   UNL     1       3.253   3.043  18.678  0.00  0.00    +0.000 A 
ATOM      7  C   UNL     1       2.614   1.787  18.774  0.00  0.00    +0.000 A 
ATOM      8  C   UNL     1       1.263   1.744  19.109  0.00  0.00    +0.000 A 
ATOM      9  C   UNL     1       0.556   2.910  19.359  0.00  0.00    +0.000 A 
ATOM     10  C   UNL     1       1.181   4.150  19.220  0.00  0.00    +0.000 A 
ATOM     11  C   UNL     1       2.553   4.230  18.845  0.00  0.00    +0.000 A 
BRANCH   4  12
ATOM     12  C   UNL     1       5.881   5.933  18.141  0.00  0.00    +0.000 A 
ATOM     13  C   UNL     1       7.047   5.794  18.919  0.00  0.00    +0.000 A 
ATOM     14  C   UNL     1       8.093   6.716  18.840  0.00  0.00    +0.000 A 
ATOM     15  C   UNL     1       8.021   7.762  17.925  0.00  0.00    +0.000 A 
ATOM     16  C   UNL     1       6.910   7.876  17.095  0.00  0.00    +0.000 A 
ATOM     17  C   UNL     1       5.846   6.975  17.206  0.00  0.00    +0.000 A 
ENDBRANCH   4  12
ENDBRANCH   2   3
BRANCH   1  18
ATOM     18  C   UNL     1       2.290   9.191  17.838  0.00  0.00    +0.000 C 
BRANCH  18  19
ATOM     19  O   UNL     1       0.980   9.640  18.174  0.00  0.00    +0.000 OA
BRANCH  19  23
ATOM     20  C   UNL     1       0.379   9.385  22.333  0.00  0.00    +0.000 C 
ATOM     21  C   UNL     1       0.020   9.999  20.984  0.00  0.00    +0.000 C 
ATOM     22  O   UNL     1       1.232  10.444  20.366  0.00  0.00    +0.000 OA
ATOM     23  C   UNL     1       1.096  10.803  18.994  0.00  0.00    +0.000 C 
ATOM     24  C   UNL     1      -0.055  11.770  18.707  0.00  0.00    +0.000 C 
ATOM     25  C   UNL     1      -1.311  11.453  19.507  0.00  0.00    +0.000 C 
ATOM     26  C   UNL     1      -1.032  11.152  21.003  0.00  0.00    +0.000 C 
BRANCH  26  27
ATOM     27  N   UNL     1      -0.745  12.336  21.871  0.00  0.00    +0.000 NA
ATOM     28  C   UNL     1      -0.888  13.652  21.248  0.00  0.00    +0.000 C 
BRANCH  27  29
ATOM     29  C   UNL     1      -1.502  12.263  23.151  0.00  0.00    +0.000 C 
BRANCH  29  30
ATOM     30  C   UNL     1      -2.980  12.295  23.037  0.00  0.00    +0.000 C 
ATOM     31  N   UNL     1      -4.136  12.386  22.927  0.00  0.00    +0.000 NA
ENDBRANCH  29  30
ENDBRANCH  27  29
ENDBRANCH  26  27
ENDBRANCH  19  23
ENDBRANCH  18  19
ENDBRANCH   1  18
TORSDOF 8
ENDMDL
MODEL 2
REMARK VINA RESULT:      -7.8      1.642      1.897
REMARK  Name = 
REMARK  10 active torsions:
REMARK  status: ('A' for Active; 'I' for Inactive)
REMARK    1  A    between atoms: C_1  and  C_2
REMARK    2  A    between atoms: C_4  and  O_5
REMARK    3  A    between atoms: O_5  and  C_6
REMARK    4  A    between atoms: C_6  and  C_7
REMARK    5  A    between atoms: C_8  and  C_9
REMARK    6  A    between atoms: C_10  and  C_11
REMARK    7  A    between atoms: C_26  and  N_27
REMARK    8  A    between atoms: N_27  and  C_28
REMARK    9  A    between atoms: N_27  and  C_29
REMARK   10  A    between atoms: C_29  and  C_30
REMARK                            x       y       z     vdW  Elec       q    Type
REMARK                         _______ _______ _______ _____ _____    ______ ____
ROOT
ATOM      1  C   UNL     1       3.217   7.490  17.677  0.00  0.00    +0.000 C 
ATOM      2  C   UNL     1       3.378   6.312  17.865  0.00  0.00    +0.000 C 
ENDROOT
BRANCH   2   3
ATOM      3  C   UNL     1       3.404   4.920  18.177  0.00  0.00    +0.000 A 
ATOM      4  C   UNL     1       4.214   4.014  17.504  0.00  0.00    +0.000 A 
ATOM      5  S   UNL     1       3.889   2.420  18.044  0.00  0.00    +0.000 S 
ATOM      6  C   UNL     1       2.720   2.942  19.192  0.00  0.00    +0.000 A 
ATOM      7  C   UNL     1       1.935   2.126  20.035  0.00  0.00    +0.000 A 
ATOM      8  C   UNL     1       1.092   2.732  20.962  0.00  0.00    +0.000 A 
ATOM      9  C   UNL     1       1.031   4.113  21.071  0.00  0.00    +0.000 A 
ATOM     10  C   UNL     1       1.776   4.915  20.205  0.00  0.00    +0.000 A 
ATOM     11  C   UNL     1       2.622   4.327  19.222  0.00  0.00    +0.000 A 
BRANCH   4  12
ATOM     12  C   UNL     1       5.222   4.264  16.446  0.00  0.00    +0.000 A 
ATOM     13  C   UNL     1       6.494   4.770  16.777  0.00  0.00    +0.000 A 
ATOM     14  C   UNL     1       7.406   5.158  15.792  0.00  0.00    +0.000 A 
ATOM     15  C   UNL     1       7.087   4.979  14.450  0.00  0.00    +0.000 A 
ATOM     16  C   UNL     1       5.864   4.412  14.102  0.00  0.00    +0.000 A 
ATOM     17  C   UNL     1       4.937   4.064  15.089  0.00  0.00    +0.000 A 
ENDBRANCH   4  12
ENDBRANCH   2   3
BRANCH   1  18
ATOM     18  C   UNL     1       2.753   8.853  17.484  0.00  0.00    +0.000 C 
BRANCH  18  19
ATOM     19  O   UNL     1       1.403   9.027  17.904  0.00  0.00    +0.000 OA
BRANCH  19  23
ATOM     20  C   UNL     1       1.379   8.961  22.113  0.00  0.00    +0.000 C 
ATOM     21  C   UNL     1       0.719   9.358  20.797  0.00  0.00    +0.000 C 
ATOM     22  O   UNL     1       1.695  10.040  20.002  0.00  0.00    +0.000 OA
ATOM     23  C   UNL     1       1.311  10.243  18.645  0.00  0.00    +0.000 C 
ATOM     24  C   UNL     1      -0.074  10.868  18.470  0.00  0.00    +0.000 C 
ATOM     25  C   UNL     1      -1.105  10.314  19.444  0.00  0.00    +0.000 C 
ATOM     26  C   UNL     1      -0.584  10.211  20.901  0.00  0.00    +0.000 C 
BRANCH  26  27
ATOM     27  N   UNL     1      -0.510  11.494  21.668  0.00  0.00    +0.000 NA
ATOM     28  C   UNL     1      -0.948  12.700  20.964  0.00  0.00    +0.000 C 
BRANCH  27  29
ATOM     29  C   UNL     1      -1.180  11.373  22.991  0.00  0.00    +0.000 C 
BRANCH  29  30
ATOM     30  C   UNL     1      -2.576  11.868  23.063  0.00  0.00    +0.000 C 
ATOM     31  N   UNL     1      -3.665  12.282  23.055  0.00  0.00    +0.000 NA
ENDBRANCH  29  30
ENDBRANCH  27  29
ENDBRANCH  26  27
ENDBRANCH  19  23
ENDBRANCH  18  19
ENDBRANCH   1  18
TORSDOF 8
ENDMDL
MODEL 3
REMARK VINA RESULT:      -7.7      1.698      2.091
REMARK  Name = 
REMARK  10 active torsions:
REMARK  status: ('A' for Active; 'I' for Inactive)
REMARK    1  A    between atoms: C_1  and  C_2
REMARK    2  A    between atoms: C_4  and  O_5
REMARK    3  A    between atoms: O_5  and  C_6
REMARK    4  A    between atoms: C_6  and  C_7
REMARK    5  A    between atoms: C_8  and  C_9
REMARK    6  A    between atoms: C_10  and  C_11
REMARK    7  A    between atoms: C_26  and  N_27
REMARK    8  A    between atoms: N_27  and  C_28
REMARK    9  A    between atoms: N_27  and  C_29
REMARK   10  A    between atoms: C_29  and  C_30
REMARK                            x       y       z     vdW  Elec       q    Type
REMARK                         _______ _______ _______ _____ _____    ______ ____
ROOT
ATOM      1  C   UNL     1       2.964   7.592  17.768  0.00  0.00    +0.000 C 
ATOM      2  C   UNL     1       3.210   6.426  17.945  0.00  0.00    +0.000 C 
ENDROOT
BRANCH   2   3
ATOM      3  C   UNL     1       3.318   5.027  18.195  0.00  0.00    +0.000 A 
ATOM      4  C   UNL     1       4.168   4.198  17.474  0.00  0.00    +0.000 A 
ATOM      5  S   UNL     1       3.941   2.566  17.948  0.00  0.00    +0.000 S 
ATOM      6  C   UNL     1       2.761   2.971  19.132  0.00  0.00    +0.000 A 
ATOM      7  C   UNL     1       2.035   2.076  19.948  0.00  0.00    +0.000 A 
ATOM      8  C   UNL     1       1.173   2.594  20.911  0.00  0.00    +0.000 A 
ATOM      9  C   UNL     1       1.036   3.963  21.080  0.00  0.00    +0.000 A 
ATOM     10  C   UNL     1       1.723   4.842  20.241  0.00  0.00    +0.000 A 
ATOM     11  C   UNL     1       2.586   4.345  19.223  0.00  0.00    +0.000 A 
BRANCH   4  12
ATOM     12  C   UNL     1       5.145   4.549  16.416  0.00  0.00    +0.000 A 
ATOM     13  C   UNL     1       4.947   4.118  15.090  0.00  0.00    +0.000 A 
ATOM     14  C   UNL     1       5.922   4.302  14.107  0.00  0.00    +0.000 A 
ATOM     15  C   UNL     1       7.092   4.989  14.418  0.00  0.00    +0.000 A 
ATOM     16  C   UNL     1       7.276   5.488  15.704  0.00  0.00    +0.000 A 
ATOM     17  C   UNL     1       6.316   5.265  16.696  0.00  0.00    +0.000 A 
ENDBRANCH   4  12
ENDBRANCH   2   3
BRANCH   1  18
ATOM     18  C   UNL     1       2.409   8.909  17.509  0.00  0.00    +0.000 C 
BRANCH  18  19
ATOM     19  O   UNL     1       1.243   9.164  18.286  0.00  0.00    +0.000 OA
BRANCH  19  23
ATOM     20  C   UNL     1      -0.395   8.891  22.155  0.00  0.00    +0.000 C 
ATOM     21  C   UNL     1      -0.175   9.681  20.869  0.00  0.00    +0.000 C 
ATOM     22  O   UNL     1       1.227   9.669  20.579  0.00  0.00    +0.000 OA
ATOM     23  C   UNL     1       1.563  10.140  19.277  0.00  0.00    +0.000 C 
ATOM     24  C   UNL     1       0.939  11.489  18.915  0.00  0.00    +0.000 C 
ATOM     25  C   UNL     1      -0.502  11.624  19.390  0.00  0.00    +0.000 C 
ATOM     26  C   UNL     1      -0.718  11.144  20.850  0.00  0.00    +0.000 C 
BRANCH  26  27
ATOM     27  N   UNL     1      -0.247  12.071  21.926  0.00  0.00    +0.000 NA
ATOM     28  C   UNL     1       0.349  13.332  21.485  0.00  0.00    +0.000 C 
BRANCH  27  29
ATOM     29  C   UNL     1      -1.310  12.305  22.940  0.00  0.00    +0.000 C 
BRANCH  29  30
ATOM     30  C   UNL     1      -1.347  13.659  23.546  0.00  0.00    +0.000 C 
ATOM     31  N   UNL     1      -1.383  14.691  24.083  0.00  0.00    +0.000 NA
ENDBRANCH  29  30
ENDBRANCH  27  29
ENDBRANCH  26  27
ENDBRANCH  19  23
ENDBRANCH  18  19
ENDBRANCH   1  18
TORSDOF 8
ENDMDL
MODEL 4
REMARK VINA RESULT:      -7.6      1.141      4.543
REMARK  Name = 
REMARK  10 active torsions:
REMARK  status: ('A' for Active; 'I' for Inactive)
REMARK    1  A    between atoms: C_1  and  C_2
REMARK    2  A    between atoms: C_4  and  O_5
REMARK    3  A    between atoms: O_5  and  C_6
REMARK    4  A    between atoms: C_6  and  C_7
REMARK    5  A    between atoms: C_8  and  C_9
REMARK    6  A    between atoms: C_10  and  C_11
REMARK    7  A    between atoms: C_26  and  N_27
REMARK    8  A    between atoms: N_27  and  C_28
REMARK    9  A    between atoms: N_27  and  C_29
REMARK   10  A    between atoms: C_29  and  C_30
REMARK                            x       y       z     vdW  Elec       q    Type
REMARK                         _______ _______ _______ _____ _____    ______ ____
ROOT
ATOM      1  C   UNL     1       2.209   8.036  17.731  0.00  0.00    +0.000 C 
ATOM      2  C   UNL     1       3.092   7.231  17.889  0.00  0.00    +0.000 C 
ENDROOT
BRANCH   2   3
ATOM      3  C   UNL     1       4.170   6.366  18.237  0.00  0.00    +0.000 A 
ATOM      4  C   UNL     1       3.974   5.091  18.754  0.00  0.00    +0.000 A 
ATOM      5  S   UNL     1       5.479   4.392  19.183  0.00  0.00    +0.000 S 
ATOM      6  C   UNL     1       6.378   5.754  18.640  0.00  0.00    +0.000 A 
ATOM      7  C   UNL     1       7.776   5.936  18.723  0.00  0.00    +0.000 A 
ATOM      8  C   UNL     1       8.339   7.076  18.156  0.00  0.00    +0.000 A 
ATOM      9  C   UNL     1       7.549   8.012  17.507  0.00  0.00    +0.000 A 
ATOM     10  C   UNL     1       6.163   7.848  17.467  0.00  0.00    +0.000 A 
ATOM     11  C   UNL     1       5.552   6.711  18.068  0.00  0.00    +0.000 A 
BRANCH   4  12
ATOM     12  C   UNL     1       2.706   4.353  18.973  0.00  0.00    +0.000 A 
ATOM     13  C   UNL     1       1.937   4.585  20.129  0.00  0.00    +0.000 A 
ATOM     14  C   UNL     1       0.823   3.799  20.437  0.00  0.00    +0.000 A 
ATOM     15  C   UNL     1       0.415   2.807  19.550  0.00  0.00    +0.000 A 
ATOM     16  C   UNL     1       1.119   2.610  18.366  0.00  0.00    +0.000 A 
ATOM     17  C   UNL     1       2.258   3.370  18.082  0.00  0.00    +0.000 A 
ENDBRANCH   4  12
ENDBRANCH   2   3
BRANCH   1  18
ATOM     18  C   UNL     1       1.151   9.028  17.820  0.00  0.00    +0.000 C 
BRANCH  18  19
ATOM     19  O   UNL     1       1.417  10.013  18.813  0.00  0.00    +0.000 OA
BRANCH  19  23
ATOM     20  C   UNL     1      -2.426  11.710  18.542  0.00  0.00    +0.000 C 
ATOM     21  C   UNL     1      -1.101  11.558  19.282  0.00  0.00    +0.000 C 
ATOM     22  O   UNL     1      -0.841  10.159  19.438  0.00  0.00    +0.000 OA
ATOM     23  C   UNL     1       0.479   9.850  19.876  0.00  0.00    +0.000 C 
ATOM     24  C   UNL     1       0.932  10.634  21.109  0.00  0.00    +0.000 C 
ATOM     25  C   UNL     1       0.496  12.093  21.080  0.00  0.00    +0.000 C 
ATOM     26  C   UNL     1      -0.984  12.286  20.657  0.00  0.00    +0.000 C 
BRANCH  26  27
ATOM     27  N   UNL     1      -2.013  11.970  21.696  0.00  0.00    +0.000 NA
ATOM     28  C   UNL     1      -1.516  11.454  22.972  0.00  0.00    +0.000 C 
BRANCH  27  29
ATOM     29  C   UNL     1      -2.939  13.117  21.906  0.00  0.00    +0.000 C 
BRANCH  29  30
ATOM     30  C   UNL     1      -4.287  12.780  22.425  0.00  0.00    +0.000 C 
ATOM     31  N   UNL     1      -5.349  12.580  22.860  0.00  0.00    +0.000 NA
ENDBRANCH  29  30
ENDBRANCH  27  29
ENDBRANCH  26  27
ENDBRANCH  19  23
ENDBRANCH  18  19
ENDBRANCH   1  18
TORSDOF 8
ENDMDL
MODEL 5
REMARK VINA RESULT:      -7.6      0.589      1.045
REMARK  Name = 
REMARK  10 active torsions:
REMARK  status: ('A' for Active; 'I' for Inactive)
REMARK    1  A    between atoms: C_1  and  C_2
REMARK    2  A    between atoms: C_4  and  O_5
REMARK    3  A    between atoms: O_5  and  C_6
REMARK    4  A    between atoms: C_6  and  C_7
REMARK    5  A    between atoms: C_8  and  C_9
REMARK    6  A    between atoms: C_10  and  C_11
REMARK    7  A    between atoms: C_26  and  N_27
REMARK    8  A    between atoms: N_27  and  C_28
REMARK    9  A    between atoms: N_27  and  C_29
REMARK   10  A    between atoms: C_29  and  C_30
REMARK                            x       y       z     vdW  Elec       q    Type
REMARK                         _______ _______ _______ _____ _____    ______ ____
ROOT
ATOM      1  C   UNL     1       2.392   7.836  18.078  0.00  0.00    +0.000 C 
ATOM      2  C   UNL     1       2.917   6.759  18.200  0.00  0.00    +0.000 C 
ENDROOT
BRANCH   2   3
ATOM      3  C   UNL     1       3.381   5.431  18.431  0.00  0.00    +0.000 A 
ATOM      4  C   UNL     1       4.730   5.102  18.471  0.00  0.00    +0.000 A 
ATOM      5  S   UNL     1       4.918   3.406  18.631  0.00  0.00    +0.000 S 
ATOM      6  C   UNL     1       3.222   3.126  18.697  0.00  0.00    +0.000 A 
ATOM      7  C   UNL     1       2.571   1.875  18.780  0.00  0.00    +0.000 A 
ATOM      8  C   UNL     1       1.185   1.846  18.903  0.00  0.00    +0.000 A 
ATOM      9  C   UNL     1       0.452   3.022  18.958  0.00  0.00    +0.000 A 
ATOM     10  C   UNL     1       1.096   4.254  18.831  0.00  0.00    +0.000 A 
ATOM     11  C   UNL     1       2.510   4.316  18.669  0.00  0.00    +0.000 A 
BRANCH   4  12
ATOM     12  C   UNL     1       5.914   5.989  18.372  0.00  0.00    +0.000 A 
ATOM     13  C   UNL     1       5.956   7.019  17.413  0.00  0.00    +0.000 A 
ATOM     14  C   UNL     1       7.115   7.769  17.194  0.00  0.00    +0.000 A 
ATOM     15  C   UNL     1       8.238   7.547  17.986  0.00  0.00    +0.000 A 
ATOM     16  C   UNL     1       8.193   6.583  18.989  0.00  0.00    +0.000 A 
ATOM     17  C   UNL     1       7.046   5.806  19.177  0.00  0.00    +0.000 A 
ENDBRANCH   4  12
ENDBRANCH   2   3
BRANCH   1  18
ATOM     18  C   UNL     1       1.521   8.993  17.955  0.00  0.00    +0.000 C 
BRANCH  18  19
ATOM     19  O   UNL     1       0.688   9.164  19.098  0.00  0.00    +0.000 OA
BRANCH  19  23
ATOM     20  C   UNL     1      -0.238   9.696  23.170  0.00  0.00    +0.000 C 
ATOM     21  C   UNL     1      -0.303  10.187  21.728  0.00  0.00    +0.000 C 
ATOM     22  O   UNL     1       1.024  10.166  21.194  0.00  0.00    +0.000 OA
ATOM     23  C   UNL     1       1.095  10.348  19.783  0.00  0.00    +0.000 C 
ATOM     24  C   UNL     1       0.313  11.556  19.264  0.00  0.00    +0.000 C 
ATOM     25  C   UNL     1      -1.031  11.737  19.956  0.00  0.00    +0.000 C 
ATOM     26  C   UNL     1      -0.955  11.586  21.498  0.00  0.00    +0.000 C 
BRANCH  26  27
ATOM     27  N   UNL     1      -0.382  12.748  22.248  0.00  0.00    +0.000 NA
ATOM     28  C   UNL     1       0.088  13.875  21.443  0.00  0.00    +0.000 C 
BRANCH  27  29
ATOM     29  C   UNL     1      -1.303  13.205  23.324  0.00  0.00    +0.000 C 
BRANCH  29  30
ATOM     30  C   UNL     1      -2.683  12.665  23.274  0.00  0.00    +0.000 C 
ATOM     31  N   UNL     1      -3.752  12.202  23.291  0.00  0.00    +0.000 NA
ENDBRANCH  29  30
ENDBRANCH  27  29
ENDBRANCH  26  27
ENDBRANCH  19  23
ENDBRANCH  18  19
ENDBRANCH   1  18
TORSDOF 8
ENDMDL
MODEL 6
REMARK VINA RESULT:      -7.5      0.842      1.585
REMARK  Name = 
REMARK  10 active torsions:
REMARK  status: ('A' for Active; 'I' for Inactive)
REMARK    1  A    between atoms: C_1  and  C_2
REMARK    2  A    between atoms: C_4  and  O_5
REMARK    3  A    between atoms: O_5  and  C_6
REMARK    4  A    between atoms: C_6  and  C_7
REMARK    5  A    between atoms: C_8  and  C_9
REMARK    6  A    between atoms: C_10  and  C_11
REMARK    7  A    between atoms: C_26  and  N_27
REMARK    8  A    between atoms: N_27  and  C_28
REMARK    9  A    between atoms: N_27  and  C_29
REMARK   10  A    between atoms: C_29  and  C_30
REMARK                            x       y       z     vdW  Elec       q    Type
REMARK                         _______ _______ _______ _____ _____    ______ ____
ROOT
ATOM      1  C   UNL     1       2.467   7.779  18.143  0.00  0.00    +0.000 C 
ATOM      2  C   UNL     1       2.960   6.705  18.375  0.00  0.00    +0.000 C 
ENDROOT
BRANCH   2   3
ATOM      3  C   UNL     1       3.441   5.370  18.507  0.00  0.00    +0.000 A 
ATOM      4  C   UNL     1       4.784   5.039  18.380  0.00  0.00    +0.000 A 
ATOM      5  S   UNL     1       4.981   3.338  18.461  0.00  0.00    +0.000 S 
ATOM      6  C   UNL     1       3.303   3.056  18.711  0.00  0.00    +0.000 A 
ATOM      7  C   UNL     1       2.661   1.804  18.826  0.00  0.00    +0.000 A 
ATOM      8  C   UNL     1       1.297   1.772  19.107  0.00  0.00    +0.000 A 
ATOM      9  C   UNL     1       0.581   2.946  19.285  0.00  0.00    +0.000 A 
ATOM     10  C   UNL     1       1.212   4.181  19.126  0.00  0.00    +0.000 A 
ATOM     11  C   UNL     1       2.598   4.248  18.805  0.00  0.00    +0.000 A 
BRANCH   4  12
ATOM     12  C   UNL     1       5.953   5.927  18.176  0.00  0.00    +0.000 A 
ATOM     13  C   UNL     1       7.111   5.776  18.963  0.00  0.00    +0.000 A 
ATOM     14  C   UNL     1       8.165   6.691  18.899  0.00  0.00    +0.000 A 
ATOM     15  C   UNL     1       8.109   7.742  17.989  0.00  0.00    +0.000 A 
ATOM     16  C   UNL     1       7.006   7.868  17.149  0.00  0.00    +0.000 A 
ATOM     17  C   UNL     1       5.934   6.975  17.246  0.00  0.00    +0.000 A 
ENDBRANCH   4  12
ENDBRANCH   2   3
BRANCH   1  18
ATOM     18  C   UNL     1       1.835   8.973  17.606  0.00  0.00    +0.000 C 
BRANCH  18  19
ATOM     19  O   UNL     1       1.731  10.010  18.576  0.00  0.00    +0.000 OA
BRANCH  19  23
ATOM     20  C   UNL     1      -1.181  13.024  18.982  0.00  0.00    +0.000 C 
ATOM     21  C   UNL     1      -0.197  12.047  19.617  0.00  0.00    +0.000 C 
ATOM     22  O   UNL     1      -0.444  10.750  19.064  0.00  0.00    +0.000 OA
ATOM     23  C   UNL     1       0.560   9.783  19.360  0.00  0.00    +0.000 C 
ATOM     24  C   UNL     1       0.924   9.687  20.842  0.00  0.00    +0.000 C 
ATOM     25  C   UNL     1       0.997  11.046  21.526  0.00  0.00    +0.000 C 
ATOM     26  C   UNL     1      -0.194  11.977  21.176  0.00  0.00    +0.000 C 
BRANCH  26  27
ATOM     27  N   UNL     1      -1.491  11.673  21.857  0.00  0.00    +0.000 NA
ATOM     28  C   UNL     1      -1.407  10.966  23.135  0.00  0.00    +0.000 C 
BRANCH  27  29
ATOM     29  C   UNL     1      -2.339  12.892  21.973  0.00  0.00    +0.000 C 
BRANCH  29  30
ATOM     30  C   UNL     1      -3.774  12.662  22.266  0.00  0.00    +0.000 C 
ATOM     31  N   UNL     1      -4.907  12.549  22.510  0.00  0.00    +0.000 NA
ENDBRANCH  29  30
ENDBRANCH  27  29
ENDBRANCH  26  27
ENDBRANCH  19  23
ENDBRANCH  18  19
ENDBRANCH   1  18
TORSDOF 8
ENDMDL
MODEL 7
REMARK VINA RESULT:      -7.5      1.223      4.407
REMARK  Name = 
REMARK  10 active torsions:
REMARK  status: ('A' for Active; 'I' for Inactive)
REMARK    1  A    between atoms: C_1  and  C_2
REMARK    2  A    between atoms: C_4  and  O_5
REMARK    3  A    between atoms: O_5  and  C_6
REMARK    4  A    between atoms: C_6  and  C_7
REMARK    5  A    between atoms: C_8  and  C_9
REMARK    6  A    between atoms: C_10  and  C_11
REMARK    7  A    between atoms: C_26  and  N_27
REMARK    8  A    between atoms: N_27  and  C_28
REMARK    9  A    between atoms: N_27  and  C_29
REMARK   10  A    between atoms: C_29  and  C_30
REMARK                            x       y       z     vdW  Elec       q    Type
REMARK                         _______ _______ _______ _____ _____    ______ ____
ROOT
ATOM      1  C   UNL     1       2.244   8.118  17.771  0.00  0.00    +0.000 C 
ATOM      2  C   UNL     1       3.094   7.279  17.926  0.00  0.00    +0.000 C 
ENDROOT
BRANCH   2   3
ATOM      3  C   UNL     1       4.169   6.398  18.243  0.00  0.00    +0.000 A 
ATOM      4  C   UNL     1       3.970   5.116  18.742  0.00  0.00    +0.000 A 
ATOM      5  S   UNL     1       5.475   4.397  19.135  0.00  0.00    +0.000 S 
ATOM      6  C   UNL     1       6.378   5.759  18.600  0.00  0.00    +0.000 A 
ATOM      7  C   UNL     1       7.778   5.927  18.664  0.00  0.00    +0.000 A 
ATOM      8  C   UNL     1       8.344   7.071  18.107  0.00  0.00    +0.000 A 
ATOM      9  C   UNL     1       7.552   8.025  17.486  0.00  0.00    +0.000 A 
ATOM     10  C   UNL     1       6.164   7.875  17.466  0.00  0.00    +0.000 A 
ATOM     11  C   UNL     1       5.552   6.733  18.057  0.00  0.00    +0.000 A 
BRANCH   4  12
ATOM     12  C   UNL     1       2.699   4.387  18.969  0.00  0.00    +0.000 A 
ATOM     13  C   UNL     1       1.940   4.621  20.132  0.00  0.00    +0.000 A 
ATOM     14  C   UNL     1       0.824   3.842  20.446  0.00  0.00    +0.000 A 
ATOM     15  C   UNL     1       0.402   2.854  19.561  0.00  0.00    +0.000 A 
ATOM     16  C   UNL     1       1.096   2.655  18.370  0.00  0.00    +0.000 A 
ATOM     17  C   UNL     1       2.237   3.408  18.079  0.00  0.00    +0.000 A 
ENDBRANCH   4  12
ENDBRANCH   2   3
BRANCH   1  18
ATOM     18  C   UNL     1       1.279   9.201  17.846  0.00  0.00    +0.000 C 
BRANCH  18  19
ATOM     19  O   UNL     1       0.705   9.323  19.144  0.00  0.00    +0.000 OA
BRANCH  19  23
ATOM     20  C   UNL     1      -0.602  10.472  22.977  0.00  0.00    +0.000 C 
ATOM     21  C   UNL     1      -0.606  10.678  21.466  0.00  0.00    +0.000 C 
ATOM     22  O   UNL     1       0.754  10.728  21.024  0.00  0.00    +0.000 OA
ATOM     23  C   UNL     1       0.918  10.654  19.611  0.00  0.00    +0.000 C 
ATOM     24  C   UNL     1       0.049  11.637  18.825  0.00  0.00    +0.000 C 
ATOM     25  C   UNL     1      -1.359  11.771  19.390  0.00  0.00    +0.000 C 
ATOM     26  C   UNL     1      -1.393  11.916  20.934  0.00  0.00    +0.000 C 
BRANCH  26  27
ATOM     27  N   UNL     1      -1.018  13.259  21.478  0.00  0.00    +0.000 NA
ATOM     28  C   UNL     1      -0.831  14.330  20.499  0.00  0.00    +0.000 C 
BRANCH  27  29
ATOM     29  C   UNL     1      -1.945  13.680  22.564  0.00  0.00    +0.000 C 
BRANCH  29  30
ATOM     30  C   UNL     1      -1.322  14.354  23.728  0.00  0.00    +0.000 C 
ATOM     31  N   UNL     1      -0.891  14.920  24.651  0.00  0.00    +0.000 NA
ENDBRANCH  29  30
ENDBRANCH  27  29
ENDBRANCH  26  27
ENDBRANCH  19  23
ENDBRANCH  18  19
ENDBRANCH   1  18
TORSDOF 8
ENDMDL
MODEL 8
REMARK VINA RESULT:      -7.5      0.972      4.339
REMARK  Name = 
REMARK  10 active torsions:
REMARK  status: ('A' for Active; 'I' for Inactive)
REMARK    1  A    between atoms: C_1  and  C_2
REMARK    2  A    between atoms: C_4  and  O_5
REMARK    3  A    between atoms: O_5  and  C_6
REMARK    4  A    between atoms: C_6  and  C_7
REMARK    5  A    between atoms: C_8  and  C_9
REMARK    6  A    between atoms: C_10  and  C_11
REMARK    7  A    between atoms: C_26  and  N_27
REMARK    8  A    between atoms: N_27  and  C_28
REMARK    9  A    between atoms: N_27  and  C_29
REMARK   10  A    between atoms: C_29  and  C_30
REMARK                            x       y       z     vdW  Elec       q    Type
REMARK                         _______ _______ _______ _____ _____    ______ ____
ROOT
ATOM      1  C   UNL     1       2.200   7.949  17.946  0.00  0.00    +0.000 C 
ATOM      2  C   UNL     1       3.056   7.126  18.151  0.00  0.00    +0.000 C 
ENDROOT
BRANCH   2   3
ATOM      3  C   UNL     1       4.189   6.297  18.403  0.00  0.00    +0.000 A 
ATOM      4  C   UNL     1       4.079   5.007  18.905  0.00  0.00    +0.000 A 
ATOM      5  S   UNL     1       5.637   4.360  19.210  0.00  0.00    +0.000 S 
ATOM      6  C   UNL     1       6.442   5.765  18.631  0.00  0.00    +0.000 A 
ATOM      7  C   UNL     1       7.834   6.000  18.616  0.00  0.00    +0.000 A 
ATOM      8  C   UNL     1       8.311   7.171  18.034  0.00  0.00    +0.000 A 
ATOM      9  C   UNL     1       7.441   8.087  17.464  0.00  0.00    +0.000 A 
ATOM     10  C   UNL     1       6.063   7.870  17.521  0.00  0.00    +0.000 A 
ATOM     11  C   UNL     1       5.540   6.699  18.140  0.00  0.00    +0.000 A 
BRANCH   4  12
ATOM     12  C   UNL     1       2.860   4.217  19.201  0.00  0.00    +0.000 A 
ATOM     13  C   UNL     1       2.178   3.545  18.168  0.00  0.00    +0.000 A 
ATOM     14  C   UNL     1       0.947   2.922  18.389  0.00  0.00    +0.000 A 
ATOM     15  C   UNL     1       0.408   2.898  19.672  0.00  0.00    +0.000 A 
ATOM     16  C   UNL     1       1.101   3.494  20.721  0.00  0.00    +0.000 A 
ATOM     17  C   UNL     1       2.312   4.153  20.489  0.00  0.00    +0.000 A 
ENDBRANCH   4  12
ENDBRANCH   2   3
BRANCH   1  18
ATOM     18  C   UNL     1       1.343   9.116  17.826  0.00  0.00    +0.000 C 
BRANCH  18  19
ATOM     19  O   UNL     1       0.500   9.284  18.961  0.00  0.00    +0.000 OA
BRANCH  19  23
ATOM     20  C   UNL     1      -0.102   9.594  23.117  0.00  0.00    +0.000 C 
ATOM     21  C   UNL     1      -0.306  10.146  21.710  0.00  0.00    +0.000 C 
ATOM     22  O   UNL     1       0.973  10.205  21.069  0.00  0.00    +0.000 OA
ATOM     23  C   UNL     1       0.918  10.452  19.667  0.00  0.00    +0.000 C 
ATOM     24  C   UNL     1       0.051  11.649  19.273  0.00  0.00    +0.000 C 
ATOM     25  C   UNL     1      -1.236  11.743  20.080  0.00  0.00    +0.000 C 
ATOM     26  C   UNL     1      -1.027  11.526  21.602  0.00  0.00    +0.000 C 
BRANCH  26  27
ATOM     27  N   UNL     1      -0.437  12.675  22.357  0.00  0.00    +0.000 NA
ATOM     28  C   UNL     1       0.469  13.549  21.612  0.00  0.00    +0.000 C 
BRANCH  27  29
ATOM     29  C   UNL     1      -1.492  13.464  23.052  0.00  0.00    +0.000 C 
BRANCH  29  30
ATOM     30  C   UNL     1      -2.663  12.697  23.541  0.00  0.00    +0.000 C 
ATOM     31  N   UNL     1      -3.597  12.078  23.858  0.00  0.00    +0.000 NA
ENDBRANCH  29  30
ENDBRANCH  27  29
ENDBRANCH  26  27
ENDBRANCH  19  23
ENDBRANCH  18  19
ENDBRANCH   1  18
TORSDOF 8
ENDMDL
MODEL 9
REMARK VINA RESULT:      -7.5      1.751      2.432
REMARK  Name = 
REMARK  10 active torsions:
REMARK  status: ('A' for Active; 'I' for Inactive)
REMARK    1  A    between atoms: C_1  and  C_2
REMARK    2  A    between atoms: C_4  and  O_5
REMARK    3  A    between atoms: O_5  and  C_6
REMARK    4  A    between atoms: C_6  and  C_7
REMARK    5  A    between atoms: C_8  and  C_9
REMARK    6  A    between atoms: C_10  and  C_11
REMARK    7  A    between atoms: C_26  and  N_27
REMARK    8  A    between atoms: N_27  and  C_28
REMARK    9  A    between atoms: N_27  and  C_29
REMARK   10  A    between atoms: C_29  and  C_30
REMARK                            x       y       z     vdW  Elec       q    Type
REMARK                         _______ _______ _______ _____ _____    ______ ____
ROOT
ATOM      1  C   UNL     1       2.917   7.650  17.726  0.00  0.00    +0.000 C 
ATOM      2  C   UNL     1       3.068   6.458  17.819  0.00  0.00    +0.000 C 
ENDROOT
BRANCH   2   3
ATOM      3  C   UNL     1       3.239   5.074  18.113  0.00  0.00    +0.000 A 
ATOM      4  C   UNL     1       4.145   4.267  17.436  0.00  0.00    +0.000 A 
ATOM      5  S   UNL     1       3.987   2.641  17.954  0.00  0.00    +0.000 S 
ATOM      6  C   UNL     1       2.763   3.022  19.100  0.00  0.00    +0.000 A 
ATOM      7  C   UNL     1       2.063   2.116  19.928  0.00  0.00    +0.000 A 
ATOM      8  C   UNL     1       1.155   2.618  20.856  0.00  0.00    +0.000 A 
ATOM      9  C   UNL     1       0.948   3.983  20.980  0.00  0.00    +0.000 A 
ATOM     10  C   UNL     1       1.609   4.871  20.130  0.00  0.00    +0.000 A 
ATOM     11  C   UNL     1       2.518   4.387  19.146  0.00  0.00    +0.000 A 
BRANCH   4  12
ATOM     12  C   UNL     1       5.127   4.636  16.388  0.00  0.00    +0.000 A 
ATOM     13  C   UNL     1       5.059   4.050  15.109  0.00  0.00    +0.000 A 
ATOM     14  C   UNL     1       6.057   4.261  14.154  0.00  0.00    +0.000 A 
ATOM     15  C   UNL     1       7.111   5.124  14.439  0.00  0.00    +0.000 A 
ATOM     16  C   UNL     1       7.158   5.771  15.671  0.00  0.00    +0.000 A 
ATOM     17  C   UNL     1       6.180   5.525  16.640  0.00  0.00    +0.000 A 
ENDBRANCH   4  12
ENDBRANCH   2   3
BRANCH   1  18
ATOM     18  C   UNL     1       2.620   9.065  17.868  0.00  0.00    +0.000 C 
BRANCH  18  19
ATOM     19  O   UNL     1       1.234   9.344  17.704  0.00  0.00    +0.000 OA
BRANCH  19  23
ATOM     20  C   UNL     1      -2.798  10.510  18.046  0.00  0.00    +0.000 C 
ATOM     21  C   UNL     1      -1.316  10.807  18.257  0.00  0.00    +0.000 C 
ATOM     22  O   UNL     1      -0.735   9.689  18.936  0.00  0.00    +0.000 OA
ATOM     23  C   UNL     1       0.689   9.699  18.974  0.00  0.00    +0.000 C 
ATOM     24  C   UNL     1       1.296  11.015  19.463  0.00  0.00    +0.000 C 
ATOM     25  C   UNL     1       0.573  12.241  18.923  0.00  0.00    +0.000 C 
ATOM     26  C   UNL     1      -0.972  12.132  19.006  0.00  0.00    +0.000 C 
BRANCH  26  27
ATOM     27  N   UNL     1      -1.577  12.338  20.359  0.00  0.00    +0.000 NA
ATOM     28  C   UNL     1      -0.729  12.987  21.360  0.00  0.00    +0.000 C 
BRANCH  27  29
ATOM     29  C   UNL     1      -2.902  13.010  20.263  0.00  0.00    +0.000 C 
BRANCH  29  30
ATOM     30  C   UNL     1      -3.853  12.735  21.366  0.00  0.00    +0.000 C 
ATOM     31  N   UNL     1      -4.572  12.456  22.239  0.00  0.00    +0.000 NA
ENDBRANCH  29  30
ENDBRANCH  27  29
ENDBRANCH  26  27
ENDBRANCH  19  23
ENDBRANCH  18  19
ENDBRANCH   1  18
TORSDOF 8
ENDMDL
