MODEL 1
REMARK VINA RESULT:      -6.7      0.000      0.000
REMARK  Name = 
REMARK  14 active torsions:
REMARK  status: ('A' for Active; 'I' for Inactive)
REMARK    1  A    between atoms: C_1  and  C_2
REMARK    2  A    between atoms: C_2  and  C_3
REMARK    3  A    between atoms: C_3  and  C_4
REMARK    4  A    between atoms: C_4  and  C_5
REMARK    5  A    between atoms: C_5  and  C_6
REMARK    6  A    between atoms: C_6  and  C_7
REMARK    7  A    between atoms: C_7  and  C_8
REMARK    8  A    between atoms: C_8  and  O_9
REMARK    9  A    between atoms: O_9  and  C_10
REMARK   10  A    between atoms: C_10  and  S_12
REMARK   11  A    between atoms: S_12  and  C_13
REMARK   12  A    between atoms: C_13  and  C_14
REMARK   13  A    between atoms: C_13  and  C_20
REMARK   14  A    between atoms: C_14  and  N_15
REMARK                            x       y       z     vdW  Elec       q    Type
REMARK                         _______ _______ _______ _____ _____    ______ ____
ROOT
ATOM      1  C   UNL     1       3.678   7.014  17.845  0.00  0.00    +0.000 C 
ENDROOT
BRANCH   1   2
ATOM      2  C   UNL     1       3.184   5.570  18.165  0.00  0.00    +0.000 A 
ATOM      3  C   UNL     1       1.995   5.055  17.595  0.00  0.00    +0.000 A 
ATOM      4  C   UNL     1       1.474   3.806  17.938  0.00  0.00    +0.000 A 
ATOM      5  C   UNL     1       2.122   3.027  18.878  0.00  0.00    +0.000 A 
ATOM      6 CL   UNL     1       1.455   1.513  19.343  0.00  0.00    +0.000 Cl
ATOM      7  C   UNL     1       3.319   3.464  19.429  0.00  0.00    +0.000 A 
ATOM      8  C   UNL     1       3.867   4.700  19.046  0.00  0.00    +0.000 A 
ATOM      9 CL   UNL     1       5.438   5.046  19.682  0.00  0.00    +0.000 Cl
ENDBRANCH   1   2
BRANCH   1  10
ATOM     10  S   UNL     1       4.740   7.054  16.316  0.00  0.00    +0.000 S 
BRANCH  10  11
ATOM     11  C   UNL     1       6.282   6.361  16.746  0.00  0.00    +0.000 C 
ATOM     12  S   UNL     1       7.418   7.273  17.568  0.00  0.00    +0.000 S 
BRANCH  11  13
ATOM     13  O   UNL     1       6.509   5.076  16.389  0.00  0.00    +0.000 OA
BRANCH  13  14
ATOM     14  C   UNL     1       7.012   4.691  15.087  0.00  0.00    +0.000 C 
BRANCH  14  15
ATOM     15  C   UNL     1       5.860   4.030  14.340  0.00  0.00    +0.000 C 
BRANCH  15  16
ATOM     16  C   UNL     1       6.007   4.238  12.832  0.00  0.00    +0.000 C 
BRANCH  16  17
ATOM     17  C   UNL     1       6.466   2.972  12.119  0.00  0.00    +0.000 C 
BRANCH  17  18
ATOM     18  C   UNL     1       5.314   2.386  11.304  0.00  0.00    +0.000 C 
BRANCH  18  19
ATOM     19  C   UNL     1       4.019   3.164  11.522  0.00  0.00    +0.000 C 
BRANCH  19  21
ATOM     20  C   UNL     1       3.060   4.295   9.489  0.00  0.00    +0.000 C 
ATOM     21  C   UNL     1       3.087   3.023  10.320  0.00  0.00    +0.000 C 
ENDBRANCH  19  21
ENDBRANCH  18  19
ENDBRANCH  17  18
ENDBRANCH  16  17
ENDBRANCH  15  16
ENDBRANCH  14  15
ENDBRANCH  13  14
ENDBRANCH  11  13
ENDBRANCH  10  11
ENDBRANCH   1  10
BRANCH   1  22
ATOM     22  C   UNL     1       2.520   8.048  17.762  0.00  0.00    +0.000 C 
BRANCH  22  23
ATOM     23  N   UNL     1       1.869   8.372  19.014  0.00  0.00    +0.000 N 
ATOM     24  C   UNL     1       1.928   7.654  20.176  0.00  0.00    +0.000 A 
ATOM     25  C   UNL     1       1.202   8.388  21.078  0.00  0.00    +0.000 A 
ATOM     26  N   UNL     1       0.750   9.551  20.514  0.00  0.00    +0.000 NA
ATOM     27  C   UNL     1       1.186   9.523  19.277  0.00  0.00    +0.000 A 
ENDBRANCH  22  23
ENDBRANCH   1  22
TORSDOF 13
ENDMDL
MODEL 2
REMARK VINA RESULT:      -6.4      2.564      4.388
REMARK  Name = 
REMARK  14 active torsions:
REMARK  status: ('A' for Active; 'I' for Inactive)
REMARK    1  A    between atoms: C_1  and  C_2
REMARK    2  A    between atoms: C_2  and  C_3
REMARK    3  A    between atoms: C_3  and  C_4
REMARK    4  A    between atoms: C_4  and  C_5
REMARK    5  A    between atoms: C_5  and  C_6
REMARK    6  A    between atoms: C_6  and  C_7
REMARK    7  A    between atoms: C_7  and  C_8
REMARK    8  A    between atoms: C_8  and  O_9
REMARK    9  A    between atoms: O_9  and  C_10
REMARK   10  A    between atoms: C_10  and  S_12
REMARK   11  A    between atoms: S_12  and  C_13
REMARK   12  A    between atoms: C_13  and  C_14
REMARK   13  A    between atoms: C_13  and  C_20
REMARK   14  A    between atoms: C_14  and  N_15
REMARK                            x       y       z     vdW  Elec       q    Type
REMARK                         _______ _______ _______ _____ _____    ______ ____
ROOT
ATOM      1  C   UNL     1       3.025   6.099  17.886  0.00  0.00    +0.000 C 
ENDROOT
BRANCH   1   2
ATOM      2  C   UNL     1       2.364   7.404  18.426  0.00  0.00    +0.000 A 
ATOM      3  C   UNL     1       2.206   8.544  17.602  0.00  0.00    +0.000 A 
ATOM      4  C   UNL     1       1.711   9.758  18.082  0.00  0.00    +0.000 A 
ATOM      5  C   UNL     1       1.366   9.880  19.416  0.00  0.00    +0.000 A 
ATOM      6 CL   UNL     1       0.809  11.388  20.022  0.00  0.00    +0.000 Cl
ATOM      7  C   UNL     1       1.455   8.776  20.254  0.00  0.00    +0.000 A 
ATOM      8  C   UNL     1       1.907   7.542  19.757  0.00  0.00    +0.000 A 
ATOM      9 CL   UNL     1       1.812   6.216  20.863  0.00  0.00    +0.000 Cl
ENDBRANCH   1   2
BRANCH   1  10
ATOM     10  S   UNL     1       4.736   5.857  18.581  0.00  0.00    +0.000 S 
BRANCH  10  11
ATOM     11  C   UNL     1       5.864   6.350  17.345  0.00  0.00    +0.000 C 
ATOM     12  S   UNL     1       6.971   7.566  17.650  0.00  0.00    +0.000 S 
BRANCH  11  13
ATOM     13  O   UNL     1       5.799   5.715  16.152  0.00  0.00    +0.000 OA
BRANCH  13  14
ATOM     14  C   UNL     1       5.899   4.277  16.014  0.00  0.00    +0.000 C 
BRANCH  14  15
ATOM     15  C   UNL     1       5.574   3.943  14.563  0.00  0.00    +0.000 C 
BRANCH  15  16
ATOM     16  C   UNL     1       6.812   4.117  13.681  0.00  0.00    +0.000 C 
BRANCH  16  17
ATOM     17  C   UNL     1       6.501   3.895  12.206  0.00  0.00    +0.000 C 
BRANCH  17  18
ATOM     18  C   UNL     1       6.045   2.455  11.980  0.00  0.00    +0.000 C 
BRANCH  18  19
ATOM     19  C   UNL     1       4.801   2.392  11.096  0.00  0.00    +0.000 C 
BRANCH  19  21
ATOM     20  C   UNL     1       3.092   3.812   9.917  0.00  0.00    +0.000 C 
ATOM     21  C   UNL     1       4.086   3.741  11.063  0.00  0.00    +0.000 C 
ENDBRANCH  19  21
ENDBRANCH  18  19
ENDBRANCH  17  18
ENDBRANCH  16  17
ENDBRANCH  15  16
ENDBRANCH  14  15
ENDBRANCH  13  14
ENDBRANCH  11  13
ENDBRANCH  10  11
ENDBRANCH   1  10
BRANCH   1  22
ATOM     22  C   UNL     1       2.140   4.837  18.098  0.00  0.00    +0.000 C 
BRANCH  22  23
ATOM     23  N   UNL     1       2.850   3.604  18.362  0.00  0.00    +0.000 N 
ATOM     24  C   UNL     1       3.295   3.160  19.576  0.00  0.00    +0.000 A 
ATOM     25  C   UNL     1       3.849   1.932  19.318  0.00  0.00    +0.000 A 
ATOM     26  N   UNL     1       3.708   1.598  17.998  0.00  0.00    +0.000 NA
ATOM     27  C   UNL     1       3.083   2.615  17.453  0.00  0.00    +0.000 A 
ENDBRANCH  22  23
ENDBRANCH   1  22
TORSDOF 13
ENDMDL
MODEL 3
REMARK VINA RESULT:      -6.3      2.754      4.551
REMARK  Name = 
REMARK  14 active torsions:
REMARK  status: ('A' for Active; 'I' for Inactive)
REMARK    1  A    between atoms: C_1  and  C_2
REMARK    2  A    between atoms: C_2  and  C_3
REMARK    3  A    between atoms: C_3  and  C_4
REMARK    4  A    between atoms: C_4  and  C_5
REMARK    5  A    between atoms: C_5  and  C_6
REMARK    6  A    between atoms: C_6  and  C_7
REMARK    7  A    between atoms: C_7  and  C_8
REMARK    8  A    between atoms: C_8  and  O_9
REMARK    9  A    between atoms: O_9  and  C_10
REMARK   10  A    between atoms: C_10  and  S_12
REMARK   11  A    between atoms: S_12  and  C_13
REMARK   12  A    between atoms: C_13  and  C_14
REMARK   13  A    between atoms: C_13  and  C_20
REMARK   14  A    between atoms: C_14  and  N_15
REMARK                            x       y       z     vdW  Elec       q    Type
REMARK                         _______ _______ _______ _____ _____    ______ ____
ROOT
ATOM      1  C   UNL     1       2.601   6.689  18.898  0.00  0.00    +0.000 C 
ENDROOT
BRANCH   1   2
ATOM      2  C   UNL     1       1.920   7.802  19.750  0.00  0.00    +0.000 A 
ATOM      3  C   UNL     1       1.760   7.664  21.151  0.00  0.00    +0.000 A 
ATOM      4  C   UNL     1       1.066   8.596  21.926  0.00  0.00    +0.000 A 
ATOM      5  C   UNL     1       0.492   9.700  21.322  0.00  0.00    +0.000 A 
ATOM      6 CL   UNL     1      -0.409  10.819  22.264  0.00  0.00    +0.000 Cl
ATOM      7  C   UNL     1       0.663   9.907  19.960  0.00  0.00    +0.000 A 
ATOM      8  C   UNL     1       1.404   8.994  19.190  0.00  0.00    +0.000 A 
ATOM      9 CL   UNL     1       1.677   9.457  17.546  0.00  0.00    +0.000 Cl
ENDBRANCH   1   2
BRANCH   1  10
ATOM     10  S   UNL     1       3.963   7.378  17.831  0.00  0.00    +0.000 S 
BRANCH  10  11
ATOM     11  C   UNL     1       5.057   6.064  17.485  0.00  0.00    +0.000 C 
ATOM     12  S   UNL     1       6.440   5.854  18.401  0.00  0.00    +0.000 S 
BRANCH  11  13
ATOM     13  O   UNL     1       4.737   5.241  16.460  0.00  0.00    +0.000 OA
BRANCH  13  14
ATOM     14  C   UNL     1       4.832   3.798  16.541  0.00  0.00    +0.000 C 
BRANCH  14  15
ATOM     15  C   UNL     1       5.750   3.346  15.412  0.00  0.00    +0.000 C 
BRANCH  15  16
ATOM     16  C   UNL     1       5.506   4.180  14.154  0.00  0.00    +0.000 C 
BRANCH  16  17
ATOM     17  C   UNL     1       6.645   4.051  13.150  0.00  0.00    +0.000 C 
BRANCH  17  18
ATOM     18  C   UNL     1       6.187   3.230  11.945  0.00  0.00    +0.000 C 
BRANCH  18  19
ATOM     19  C   UNL     1       4.666   3.117  11.888  0.00  0.00    +0.000 C 
BRANCH  19  21
ATOM     20  C   UNL     1       2.965   3.333  10.046  0.00  0.00    +0.000 C 
ATOM     21  C   UNL     1       4.091   4.021  10.799  0.00  0.00    +0.000 C 
ENDBRANCH  19  21
ENDBRANCH  18  19
ENDBRANCH  17  18
ENDBRANCH  16  17
ENDBRANCH  15  16
ENDBRANCH  14  15
ENDBRANCH  13  14
ENDBRANCH  11  13
ENDBRANCH  10  11
ENDBRANCH   1  10
BRANCH   1  22
ATOM     22  C   UNL     1       3.099   5.488  19.752  0.00  0.00    +0.000 C 
BRANCH  22  23
ATOM     23  N   UNL     1       2.572   4.190  19.387  0.00  0.00    +0.000 N 
ATOM     24  C   UNL     1       1.458   3.942  18.634  0.00  0.00    +0.000 A 
ATOM     25  C   UNL     1       1.408   2.576  18.522  0.00  0.00    +0.000 A 
ATOM     26  N   UNL     1       2.483   1.994  19.139  0.00  0.00    +0.000 NA
ATOM     27  C   UNL     1       3.177   2.993  19.631  0.00  0.00    +0.000 A 
ENDBRANCH  22  23
ENDBRANCH   1  22
TORSDOF 13
ENDMDL
MODEL 4
REMARK VINA RESULT:      -6.3      4.521      7.897
REMARK  Name = 
REMARK  14 active torsions:
REMARK  status: ('A' for Active; 'I' for Inactive)
REMARK    1  A    between atoms: C_1  and  C_2
REMARK    2  A    between atoms: C_2  and  C_3
REMARK    3  A    between atoms: C_3  and  C_4
REMARK    4  A    between atoms: C_4  and  C_5
REMARK    5  A    between atoms: C_5  and  C_6
REMARK    6  A    between atoms: C_6  and  C_7
REMARK    7  A    between atoms: C_7  and  C_8
REMARK    8  A    between atoms: C_8  and  O_9
REMARK    9  A    between atoms: O_9  and  C_10
REMARK   10  A    between atoms: C_10  and  S_12
REMARK   11  A    between atoms: S_12  and  C_13
REMARK   12  A    between atoms: C_13  and  C_14
REMARK   13  A    between atoms: C_13  and  C_20
REMARK   14  A    between atoms: C_14  and  N_15
REMARK                            x       y       z     vdW  Elec       q    Type
REMARK                         _______ _______ _______ _____ _____    ______ ____
ROOT
ATOM      1  C   UNL     1       3.766   6.065  17.745  0.00  0.00    +0.000 C 
ENDROOT
BRANCH   1   2
ATOM      2  C   UNL     1       2.828   7.181  18.296  0.00  0.00    +0.000 A 
ATOM      3  C   UNL     1       2.585   8.368  17.563  0.00  0.00    +0.000 A 
ATOM      4  C   UNL     1       1.831   9.427  18.072  0.00  0.00    +0.000 A 
ATOM      5  C   UNL     1       1.300   9.342  19.346  0.00  0.00    +0.000 A 
ATOM      6 CL   UNL     1       0.418  10.666  19.996  0.00  0.00    +0.000 Cl
ATOM      7  C   UNL     1       1.466   8.179  20.086  0.00  0.00    +0.000 A 
ATOM      8  C   UNL     1       2.183   7.095  19.552  0.00  0.00    +0.000 A 
ATOM      9 CL   UNL     1       2.173   5.654  20.509  0.00  0.00    +0.000 Cl
ENDBRANCH   1   2
BRANCH   1  10
ATOM     10  S   UNL     1       5.089   6.765  16.638  0.00  0.00    +0.000 S 
BRANCH  10  11
ATOM     11  C   UNL     1       6.620   6.181  17.237  0.00  0.00    +0.000 C 
ATOM     12  S   UNL     1       7.135   4.633  16.868  0.00  0.00    +0.000 S 
BRANCH  11  13
ATOM     13  O   UNL     1       7.354   7.025  17.999  0.00  0.00    +0.000 OA
BRANCH  13  14
ATOM     14  C   UNL     1       7.914   8.262  17.498  0.00  0.00    +0.000 C 
BRANCH  14  15
ATOM     15  C   UNL     1       8.620   8.939  18.666  0.00  0.00    +0.000 C 
BRANCH  15  16
ATOM     16  C   UNL     1       8.823  10.428  18.381  0.00  0.00    +0.000 C 
BRANCH  16  17
ATOM     17  C   UNL     1      10.192  10.919  18.839  0.00  0.00    +0.000 C 
BRANCH  17  18
ATOM     18  C   UNL     1      10.174  11.182  20.344  0.00  0.00    +0.000 C 
BRANCH  18  19
ATOM     19  C   UNL     1       9.240  12.334  20.702  0.00  0.00    +0.000 C 
BRANCH  19  21
ATOM     20  C   UNL     1      10.670  14.361  20.279  0.00  0.00    +0.000 C 
ATOM     21  C   UNL     1      10.014  13.489  21.336  0.00  0.00    +0.000 C 
ENDBRANCH  19  21
ENDBRANCH  18  19
ENDBRANCH  17  18
ENDBRANCH  16  17
ENDBRANCH  15  16
ENDBRANCH  14  15
ENDBRANCH  13  14
ENDBRANCH  11  13
ENDBRANCH  10  11
ENDBRANCH   1  10
BRANCH   1  22
ATOM     22  C   UNL     1       4.373   5.173  18.865  0.00  0.00    +0.000 C 
BRANCH  22  23
ATOM     23  N   UNL     1       4.124   3.752  18.747  0.00  0.00    +0.000 N 
ATOM     24  C   UNL     1       4.493   2.780  19.635  0.00  0.00    +0.000 A 
ATOM     25  C   UNL     1       3.988   1.617  19.111  0.00  0.00    +0.000 A 
ATOM     26  N   UNL     1       3.282   1.862  17.964  0.00  0.00    +0.000 NA
ATOM     27  C   UNL     1       3.364   3.159  17.782  0.00  0.00    +0.000 A 
ENDBRANCH  22  23
ENDBRANCH   1  22
TORSDOF 13
ENDMDL
MODEL 5
REMARK VINA RESULT:      -6.2      2.874      4.604
REMARK  Name = 
REMARK  14 active torsions:
REMARK  status: ('A' for Active; 'I' for Inactive)
REMARK    1  A    between atoms: C_1  and  C_2
REMARK    2  A    between atoms: C_2  and  C_3
REMARK    3  A    between atoms: C_3  and  C_4
REMARK    4  A    between atoms: C_4  and  C_5
REMARK    5  A    between atoms: C_5  and  C_6
REMARK    6  A    between atoms: C_6  and  C_7
REMARK    7  A    between atoms: C_7  and  C_8
REMARK    8  A    between atoms: C_8  and  O_9
REMARK    9  A    between atoms: O_9  and  C_10
REMARK   10  A    between atoms: C_10  and  S_12
REMARK   11  A    between atoms: S_12  and  C_13
REMARK   12  A    between atoms: C_13  and  C_14
REMARK   13  A    between atoms: C_13  and  C_20
REMARK   14  A    between atoms: C_14  and  N_15
REMARK                            x       y       z     vdW  Elec       q    Type
REMARK                         _______ _______ _______ _____ _____    ______ ____
ROOT
ATOM      1  C   UNL     1       2.843   6.366  18.635  0.00  0.00    +0.000 C 
ENDROOT
BRANCH   1   2
ATOM      2  C   UNL     1       2.129   7.471  19.471  0.00  0.00    +0.000 A 
ATOM      3  C   UNL     1       1.792   7.264  20.830  0.00  0.00    +0.000 A 
ATOM      4  C   UNL     1       1.064   8.193  21.576  0.00  0.00    +0.000 A 
ATOM      5  C   UNL     1       0.635   9.366  20.982  0.00  0.00    +0.000 A 
ATOM      6 CL   UNL     1      -0.307  10.486  21.882  0.00  0.00    +0.000 Cl
ATOM      7  C   UNL     1       0.983   9.639  19.666  0.00  0.00    +0.000 A 
ATOM      8  C   UNL     1       1.758   8.725  18.932  0.00  0.00    +0.000 A 
ATOM      9 CL   UNL     1       2.257   9.263  17.366  0.00  0.00    +0.000 Cl
ENDBRANCH   1   2
BRANCH   1  10
ATOM     10  S   UNL     1       4.125   5.464  19.641  0.00  0.00    +0.000 S 
BRANCH  10  11
ATOM     11  C   UNL     1       5.587   5.424  18.690  0.00  0.00    +0.000 C 
ATOM     12  S   UNL     1       7.080   5.547  19.433  0.00  0.00    +0.000 S 
BRANCH  11  13
ATOM     13  O   UNL     1       5.455   5.292  17.350  0.00  0.00    +0.000 OA
BRANCH  13  14
ATOM     14  C   UNL     1       5.940   6.276  16.405  0.00  0.00    +0.000 C 
BRANCH  14  15
ATOM     15  C   UNL     1       5.330   5.935  15.051  0.00  0.00    +0.000 C 
BRANCH  15  16
ATOM     16  C   UNL     1       5.107   4.427  14.927  0.00  0.00    +0.000 C 
BRANCH  16  17
ATOM     17  C   UNL     1       6.325   3.712  14.355  0.00  0.00    +0.000 C 
BRANCH  17  18
ATOM     18  C   UNL     1       6.527   4.114  12.895  0.00  0.00    +0.000 C 
BRANCH  18  19
ATOM     19  C   UNL     1       5.850   3.131  11.943  0.00  0.00    +0.000 C 
BRANCH  19  21
ATOM     20  C   UNL     1       6.172   0.808  11.031  0.00  0.00    +0.000 C 
ATOM     21  C   UNL     1       6.854   2.113  11.404  0.00  0.00    +0.000 C 
ENDBRANCH  19  21
ENDBRANCH  18  19
ENDBRANCH  17  18
ENDBRANCH  16  17
ENDBRANCH  15  16
ENDBRANCH  14  15
ENDBRANCH  13  14
ENDBRANCH  11  13
ENDBRANCH  10  11
ENDBRANCH   1  10
BRANCH   1  22
ATOM     22  C   UNL     1       1.851   5.378  17.958  0.00  0.00    +0.000 C 
BRANCH  22  23
ATOM     23  N   UNL     1       1.751   4.067  18.564  0.00  0.00    +0.000 N 
ATOM     24  C   UNL     1       2.289   2.904  18.089  0.00  0.00    +0.000 A 
ATOM     25  C   UNL     1       1.971   1.960  19.032  0.00  0.00    +0.000 A 
ATOM     26  N   UNL     1       1.303   2.525  20.085  0.00  0.00    +0.000 NA
ATOM     27  C   UNL     1       1.205   3.798  19.785  0.00  0.00    +0.000 A 
ENDBRANCH  22  23
ENDBRANCH   1  22
TORSDOF 13
ENDMDL
MODEL 6
REMARK VINA RESULT:      -6.2      2.578      4.174
REMARK  Name = 
REMARK  14 active torsions:
REMARK  status: ('A' for Active; 'I' for Inactive)
REMARK    1  A    between atoms: C_1  and  C_2
REMARK    2  A    between atoms: C_2  and  C_3
REMARK    3  A    between atoms: C_3  and  C_4
REMARK    4  A    between atoms: C_4  and  C_5
REMARK    5  A    between atoms: C_5  and  C_6
REMARK    6  A    between atoms: C_6  and  C_7
REMARK    7  A    between atoms: C_7  and  C_8
REMARK    8  A    between atoms: C_8  and  O_9
REMARK    9  A    between atoms: O_9  and  C_10
REMARK   10  A    between atoms: C_10  and  S_12
REMARK   11  A    between atoms: S_12  and  C_13
REMARK   12  A    between atoms: C_13  and  C_14
REMARK   13  A    between atoms: C_13  and  C_20
REMARK   14  A    between atoms: C_14  and  N_15
REMARK                            x       y       z     vdW  Elec       q    Type
REMARK                         _______ _______ _______ _____ _____    ______ ____
ROOT
ATOM      1  C   UNL     1       3.714   5.776  17.871  0.00  0.00    +0.000 C 
ENDROOT
BRANCH   1   2
ATOM      2  C   UNL     1       2.816   6.921  18.428  0.00  0.00    +0.000 A 
ATOM      3  C   UNL     1       2.558   8.090  17.671  0.00  0.00    +0.000 A 
ATOM      4  C   UNL     1       1.842   9.175  18.179  0.00  0.00    +0.000 A 
ATOM      5  C   UNL     1       1.365   9.135  19.477  0.00  0.00    +0.000 A 
ATOM      6 CL   UNL     1       0.530  10.491  20.124  0.00  0.00    +0.000 Cl
ATOM      7  C   UNL     1       1.547   7.992  20.243  0.00  0.00    +0.000 A 
ATOM      8  C   UNL     1       2.225   6.882  19.712  0.00  0.00    +0.000 A 
ATOM      9 CL   UNL     1       2.236   5.470  20.711  0.00  0.00    +0.000 Cl
ENDBRANCH   1   2
BRANCH   1  10
ATOM     10  S   UNL     1       4.842   5.088  19.184  0.00  0.00    +0.000 S 
BRANCH  10  11
ATOM     11  C   UNL     1       6.452   5.060  18.512  0.00  0.00    +0.000 C 
ATOM     12  S   UNL     1       7.723   5.764  19.339  0.00  0.00    +0.000 S 
BRANCH  11  13
ATOM     13  O   UNL     1       6.617   4.453  17.314  0.00  0.00    +0.000 OA
BRANCH  13  14
ATOM     14  C   UNL     1       6.469   5.142  16.049  0.00  0.00    +0.000 C 
BRANCH  14  15
ATOM     15  C   UNL     1       5.951   4.122  15.042  0.00  0.00    +0.000 C 
BRANCH  15  16
ATOM     16  C   UNL     1       6.968   3.913  13.919  0.00  0.00    +0.000 C 
BRANCH  16  17
ATOM     17  C   UNL     1       6.337   4.056  12.539  0.00  0.00    +0.000 C 
BRANCH  17  18
ATOM     18  C   UNL     1       4.894   3.554  12.571  0.00  0.00    +0.000 C 
BRANCH  18  19
ATOM     19  C   UNL     1       4.417   3.130  11.184  0.00  0.00    +0.000 C 
BRANCH  19  21
ATOM     20  C   UNL     1       2.808   3.657   9.323  0.00  0.00    +0.000 C 
ATOM     21  C   UNL     1       3.470   4.171  10.590  0.00  0.00    +0.000 C 
ENDBRANCH  19  21
ENDBRANCH  18  19
ENDBRANCH  17  18
ENDBRANCH  16  17
ENDBRANCH  15  16
ENDBRANCH  14  15
ENDBRANCH  13  14
ENDBRANCH  11  13
ENDBRANCH  10  11
ENDBRANCH   1  10
BRANCH   1  22
ATOM     22  C   UNL     1       2.901   4.650  17.171  0.00  0.00    +0.000 C 
BRANCH  22  23
ATOM     23  N   UNL     1       2.553   3.514  17.997  0.00  0.00    +0.000 N 
ATOM     24  C   UNL     1       1.342   3.269  18.582  0.00  0.00    +0.000 A 
ATOM     25  C   UNL     1       1.494   2.058  19.207  0.00  0.00    +0.000 A 
ATOM     26  N   UNL     1       2.739   1.539  18.975  0.00  0.00    +0.000 NA
ATOM     27  C   UNL     1       3.346   2.429  18.225  0.00  0.00    +0.000 A 
ENDBRANCH  22  23
ENDBRANCH   1  22
TORSDOF 13
ENDMDL
MODEL 7
REMARK VINA RESULT:      -6.2      4.382      7.262
REMARK  Name = 
REMARK  14 active torsions:
REMARK  status: ('A' for Active; 'I' for Inactive)
REMARK    1  A    between atoms: C_1  and  C_2
REMARK    2  A    between atoms: C_2  and  C_3
REMARK    3  A    between atoms: C_3  and  C_4
REMARK    4  A    between atoms: C_4  and  C_5
REMARK    5  A    between atoms: C_5  and  C_6
REMARK    6  A    between atoms: C_6  and  C_7
REMARK    7  A    between atoms: C_7  and  C_8
REMARK    8  A    between atoms: C_8  and  O_9
REMARK    9  A    between atoms: O_9  and  C_10
REMARK   10  A    between atoms: C_10  and  S_12
REMARK   11  A    between atoms: S_12  and  C_13
REMARK   12  A    between atoms: C_13  and  C_14
REMARK   13  A    between atoms: C_13  and  C_20
REMARK   14  A    between atoms: C_14  and  N_15
REMARK                            x       y       z     vdW  Elec       q    Type
REMARK                         _______ _______ _______ _____ _____    ______ ____
ROOT
ATOM      1  C   UNL     1       3.361   4.931  18.382  0.00  0.00    +0.000 C 
ENDROOT
BRANCH   1   2
ATOM      2  C   UNL     1       2.811   6.341  18.756  0.00  0.00    +0.000 A 
ATOM      3  C   UNL     1       2.102   6.559  19.962  0.00  0.00    +0.000 A 
ATOM      4  C   UNL     1       1.511   7.785  20.278  0.00  0.00    +0.000 A 
ATOM      5  C   UNL     1       1.599   8.839  19.388  0.00  0.00    +0.000 A 
ATOM      6 CL   UNL     1       0.827  10.331  19.750  0.00  0.00    +0.000 Cl
ATOM      7  C   UNL     1       2.327   8.692  18.215  0.00  0.00    +0.000 A 
ATOM      8  C   UNL     1       2.962   7.473  17.921  0.00  0.00    +0.000 A 
ATOM      9 CL   UNL     1       3.967   7.479  16.514  0.00  0.00    +0.000 Cl
ENDBRANCH   1   2
BRANCH   1  10
ATOM     10  S   UNL     1       5.000   4.594  19.200  0.00  0.00    +0.000 S 
BRANCH  10  11
ATOM     11  C   UNL     1       6.241   4.973  18.034  0.00  0.00    +0.000 C 
ATOM     12  S   UNL     1       6.220   4.264  16.519  0.00  0.00    +0.000 S 
BRANCH  11  13
ATOM     13  O   UNL     1       7.201   5.849  18.408  0.00  0.00    +0.000 OA
BRANCH  13  14
ATOM     14  C   UNL     1       7.487   7.070  17.684  0.00  0.00    +0.000 C 
BRANCH  14  15
ATOM     15  C   UNL     1       8.444   7.887  18.544  0.00  0.00    +0.000 C 
BRANCH  15  16
ATOM     16  C   UNL     1       8.388   9.365  18.155  0.00  0.00    +0.000 C 
BRANCH  16  17
ATOM     17  C   UNL     1       9.155  10.245  19.134  0.00  0.00    +0.000 C 
BRANCH  17  18
ATOM     18  C   UNL     1       9.298  11.656  18.565  0.00  0.00    +0.000 C 
BRANCH  18  19
ATOM     19  C   UNL     1      10.707  12.205  18.772  0.00  0.00    +0.000 C 
BRANCH  19  21
ATOM     20  C   UNL     1      11.526  13.641  16.875  0.00  0.00    +0.000 C 
ATOM     21  C   UNL     1      11.480  12.237  17.455  0.00  0.00    +0.000 C 
ENDBRANCH  19  21
ENDBRANCH  18  19
ENDBRANCH  17  18
ENDBRANCH  16  17
ENDBRANCH  15  16
ENDBRANCH  14  15
ENDBRANCH  13  14
ENDBRANCH  11  13
ENDBRANCH  10  11
ENDBRANCH   1  10
BRANCH   1  22
ATOM     22  C   UNL     1       2.341   3.789  18.654  0.00  0.00    +0.000 C 
BRANCH  22  23
ATOM     23  N   UNL     1       2.257   3.331  20.024  0.00  0.00    +0.000 N 
ATOM     24  C   UNL     1       1.155   3.369  20.833  0.00  0.00    +0.000 A 
ATOM     25  C   UNL     1       1.558   2.777  22.003  0.00  0.00    +0.000 A 
ATOM     26  N   UNL     1       2.851   2.336  21.909  0.00  0.00    +0.000 NA
ATOM     27  C   UNL     1       3.237   2.664  20.698  0.00  0.00    +0.000 A 
ENDBRANCH  22  23
ENDBRANCH   1  22
TORSDOF 13
ENDMDL
MODEL 8
REMARK VINA RESULT:      -6.2      5.623      7.968
REMARK  Name = 
REMARK  14 active torsions:
REMARK  status: ('A' for Active; 'I' for Inactive)
REMARK    1  A    between atoms: C_1  and  C_2
REMARK    2  A    between atoms: C_2  and  C_3
REMARK    3  A    between atoms: C_3  and  C_4
REMARK    4  A    between atoms: C_4  and  C_5
REMARK    5  A    between atoms: C_5  and  C_6
REMARK    6  A    between atoms: C_6  and  C_7
REMARK    7  A    between atoms: C_7  and  C_8
REMARK    8  A    between atoms: C_8  and  O_9
REMARK    9  A    between atoms: O_9  and  C_10
REMARK   10  A    between atoms: C_10  and  S_12
REMARK   11  A    between atoms: S_12  and  C_13
REMARK   12  A    between atoms: C_13  and  C_14
REMARK   13  A    between atoms: C_13  and  C_20
REMARK   14  A    between atoms: C_14  and  N_15
REMARK                            x       y       z     vdW  Elec       q    Type
REMARK                         _______ _______ _______ _____ _____    ______ ____
ROOT
ATOM      1  C   UNL     1      -1.219  10.975  19.278  0.00  0.00    +0.000 C 
ENDROOT
BRANCH   1   2
ATOM      2  C   UNL     1      -2.071  10.664  18.009  0.00  0.00    +0.000 A 
ATOM      3  C   UNL     1      -1.570   9.845  16.969  0.00  0.00    +0.000 A 
ATOM      4  C   UNL     1      -2.266   9.630  15.778  0.00  0.00    +0.000 A 
ATOM      5  C   UNL     1      -3.491  10.240  15.579  0.00  0.00    +0.000 A 
ATOM      6 CL   UNL     1      -4.325  10.021  14.092  0.00  0.00    +0.000 Cl
ATOM      7  C   UNL     1      -4.049  11.012  16.589  0.00  0.00    +0.000 A 
ATOM      8  C   UNL     1      -3.369  11.187  17.806  0.00  0.00    +0.000 A 
ATOM      9 CL   UNL     1      -4.248  12.031  19.034  0.00  0.00    +0.000 Cl
ENDBRANCH   1   2
BRANCH   1  10
ATOM     10  S   UNL     1       0.554  10.451  19.060  0.00  0.00    +0.000 S 
BRANCH  10  11
ATOM     11  C   UNL     1       0.860   9.185  20.221  0.00  0.00    +0.000 C 
ATOM     12  S   UNL     1      -0.012   9.120  21.646  0.00  0.00    +0.000 S 
BRANCH  11  13
ATOM     13  O   UNL     1       1.817   8.279  19.917  0.00  0.00    +0.000 OA
BRANCH  13  14
ATOM     14  C   UNL     1       2.318   8.074  18.574  0.00  0.00    +0.000 C 
BRANCH  14  15
ATOM     15  C   UNL     1       2.017   6.628  18.199  0.00  0.00    +0.000 C 
BRANCH  15  16
ATOM     16  C   UNL     1       3.261   5.757  18.376  0.00  0.00    +0.000 C 
BRANCH  16  17
ATOM     17  C   UNL     1       3.003   4.304  17.993  0.00  0.00    +0.000 C 
BRANCH  17  18
ATOM     18  C   UNL     1       1.499   4.039  17.938  0.00  0.00    +0.000 C 
BRANCH  18  19
ATOM     19  C   UNL     1       1.071   3.017  18.988  0.00  0.00    +0.000 C 
BRANCH  19  21
ATOM     20  C   UNL     1       1.851   2.837  21.373  0.00  0.00    +0.000 C 
ATOM     21  C   UNL     1       1.035   3.645  20.379  0.00  0.00    +0.000 C 
ENDBRANCH  19  21
ENDBRANCH  18  19
ENDBRANCH  17  18
ENDBRANCH  16  17
ENDBRANCH  15  16
ENDBRANCH  14  15
ENDBRANCH  13  14
ENDBRANCH  11  13
ENDBRANCH  10  11
ENDBRANCH   1  10
BRANCH   1  22
ATOM     22  C   UNL     1      -1.324  12.459  19.731  0.00  0.00    +0.000 C 
BRANCH  22  23
ATOM     23  N   UNL     1      -1.299  12.687  21.160  0.00  0.00    +0.000 N 
ATOM     24  C   UNL     1      -2.259  12.326  22.063  0.00  0.00    +0.000 A 
ATOM     25  C   UNL     1      -1.756  12.706  23.281  0.00  0.00    +0.000 A 
ATOM     26  N   UNL     1      -0.502  13.238  23.149  0.00  0.00    +0.000 NA
ATOM     27  C   UNL     1      -0.245  13.193  21.863  0.00  0.00    +0.000 A 
ENDBRANCH  22  23
ENDBRANCH   1  22
TORSDOF 13
ENDMDL
MODEL 9
REMARK VINA RESULT:      -6.1      4.383      6.929
REMARK  Name = 
REMARK  14 active torsions:
REMARK  status: ('A' for Active; 'I' for Inactive)
REMARK    1  A    between atoms: C_1  and  C_2
REMARK    2  A    between atoms: C_2  and  C_3
REMARK    3  A    between atoms: C_3  and  C_4
REMARK    4  A    between atoms: C_4  and  C_5
REMARK    5  A    between atoms: C_5  and  C_6
REMARK    6  A    between atoms: C_6  and  C_7
REMARK    7  A    between atoms: C_7  and  C_8
REMARK    8  A    between atoms: C_8  and  O_9
REMARK    9  A    between atoms: O_9  and  C_10
REMARK   10  A    between atoms: C_10  and  S_12
REMARK   11  A    between atoms: S_12  and  C_13
REMARK   12  A    between atoms: C_13  and  C_14
REMARK   13  A    between atoms: C_13  and  C_20
REMARK   14  A    between atoms: C_14  and  N_15
REMARK                            x       y       z     vdW  Elec       q    Type
REMARK                         _______ _______ _______ _____ _____    ______ ____
ROOT
ATOM      1  C   UNL     1       2.840   6.234  18.452  0.00  0.00    +0.000 C 
ENDROOT
BRANCH   1   2
ATOM      2  C   UNL     1       2.174   7.301  19.373  0.00  0.00    +0.000 A 
ATOM      3  C   UNL     1       1.906   7.032  20.737  0.00  0.00    +0.000 A 
ATOM      4  C   UNL     1       1.221   7.927  21.562  0.00  0.00    +0.000 A 
ATOM      5  C   UNL     1       0.766   9.126  21.045  0.00  0.00    +0.000 A 
ATOM      6 CL   UNL     1      -0.125  10.205  22.042  0.00  0.00    +0.000 Cl
ATOM      7  C   UNL     1       1.047   9.459  19.727  0.00  0.00    +0.000 A 
ATOM      8  C   UNL     1       1.780   8.578  18.912  0.00  0.00    +0.000 A 
ATOM      9 CL   UNL     1       2.200   9.187  17.349  0.00  0.00    +0.000 Cl
ENDBRANCH   1   2
BRANCH   1  10
ATOM     10  S   UNL     1       4.311   5.439  19.274  0.00  0.00    +0.000 S 
BRANCH  10  11
ATOM     11  C   UNL     1       5.443   5.031  18.011  0.00  0.00    +0.000 C 
ATOM     12  S   UNL     1       5.040   5.272  16.406  0.00  0.00    +0.000 S 
BRANCH  11  13
ATOM     13  O   UNL     1       6.638   4.520  18.387  0.00  0.00    +0.000 OA
BRANCH  13  14
ATOM     14  C   UNL     1       7.866   5.288  18.380  0.00  0.00    +0.000 C 
BRANCH  14  15
ATOM     15  C   UNL     1       7.488   6.740  18.647  0.00  0.00    +0.000 C 
BRANCH  15  16
ATOM     16  C   UNL     1       8.008   7.644  17.528  0.00  0.00    +0.000 C 
BRANCH  16  17
ATOM     17  C   UNL     1       7.752   9.118  17.817  0.00  0.00    +0.000 C 
BRANCH  17  18
ATOM     18  C   UNL     1       8.864   9.675  18.706  0.00  0.00    +0.000 C 
BRANCH  18  19
ATOM     19  C   UNL     1       9.742  10.669  17.950  0.00  0.00    +0.000 C 
BRANCH  19  21
ATOM     20  C   UNL     1      10.265  13.118  17.700  0.00  0.00    +0.000 C 
ATOM     21  C   UNL     1       9.715  12.042  18.621  0.00  0.00    +0.000 C 
ENDBRANCH  19  21
ENDBRANCH  18  19
ENDBRANCH  17  18
ENDBRANCH  16  17
ENDBRANCH  15  16
ENDBRANCH  14  15
ENDBRANCH  13  14
ENDBRANCH  11  13
ENDBRANCH  10  11
ENDBRANCH   1  10
BRANCH   1  22
ATOM     22  C   UNL     1       1.835   5.170  17.928  0.00  0.00    +0.000 C 
BRANCH  22  23
ATOM     23  N   UNL     1       1.847   3.896  18.615  0.00  0.00    +0.000 N 
ATOM     24  C   UNL     1       1.220   3.596  19.792  0.00  0.00    +0.000 A 
ATOM     25  C   UNL     1       1.482   2.265  19.999  0.00  0.00    +0.000 A 
ATOM     26  N   UNL     1       2.203   1.740  18.960  0.00  0.00    +0.000 NA
ATOM     27  C   UNL     1       2.388   2.741  18.132  0.00  0.00    +0.000 A 
ENDBRANCH  22  23
ENDBRANCH   1  22
TORSDOF 13
ENDMDL
