MODEL 1
REMARK VINA RESULT:      -8.3      0.000      0.000
REMARK  Name = 
REMARK  6 active torsions:
REMARK  status: ('A' for Active; 'I' for Inactive)
REMARK    1  A    between atoms: C_1  and  N_2
REMARK    2  A    between atoms: C_3  and  C_5
REMARK    3  A    between atoms: C_9  and  N_10
REMARK    4  A    between atoms: N_19  and  C_20
REMARK    5  A    between atoms: C_23  and  O_24
REMARK    6  A    between atoms: O_24  and  C_25
REMARK                            x       y       z     vdW  Elec       q    Type
REMARK                         _______ _______ _______ _____ _____    ______ ____
ROOT
ATOM      1  N   UNL     1       2.612   6.380  20.452  0.00  0.00    +0.000 N 
ATOM      2  C   UNL     1       2.101   7.496  19.786  0.00  0.00    +0.000 A 
ATOM      3  N   UNL     1       2.550   7.778  18.566  0.00  0.00    +0.000 NA
ATOM      4  C   UNL     1       2.072   8.889  18.040  0.00  0.00    +0.000 A 
ATOM      5  N   UNL     1       1.183   9.693  18.601  0.00  0.00    +0.000 NA
ATOM      6  C   UNL     1       0.751   9.329  19.806  0.00  0.00    +0.000 A 
ATOM      7  N   UNL     1      -0.250  10.074  20.378  0.00  0.00    +0.000 N 
ATOM      8  C   UNL     1      -0.753   9.796  21.726  0.00  0.00    +0.000 C 
ATOM      9  C   UNL     1      -0.410  10.952  22.690  0.00  0.00    +0.000 C 
ATOM     10  N   UNL     1      -0.815  12.260  22.138  0.00  0.00    +0.000 N 
ATOM     11  C   UNL     1      -0.305  12.533  20.778  0.00  0.00    +0.000 C 
ATOM     12  C   UNL     1      -0.649  11.370  19.814  0.00  0.00    +0.000 C 
ATOM     13  N   UNL     1       1.223   8.254  20.443  0.00  0.00    +0.000 NA
ATOM     14  H   UNL     1       2.359   6.371  21.428  0.00  0.00    +0.000 HD
ENDROOT
BRANCH   1  19
ATOM     15  C   UNL     1       4.991   4.216  18.593  0.00  0.00    +0.000 A 
ATOM     16  C   UNL     1       4.407   2.954  18.757  0.00  0.00    +0.000 A 
ATOM     17  C   UNL     1       3.226   2.830  19.482  0.00  0.00    +0.000 A 
ATOM     18  C   UNL     1       2.632   3.963  20.041  0.00  0.00    +0.000 A 
ATOM     19  C   UNL     1       3.224   5.230  19.932  0.00  0.00    +0.000 A 
ATOM     20  C   UNL     1       4.415   5.341  19.206  0.00  0.00    +0.000 A 
BRANCH  15  23
ATOM     21  C   UNL     1       7.119   4.695  15.503  0.00  0.00    +0.000 C 
ATOM     22  N   UNL     1       6.016   4.475  16.404  0.00  0.00    +0.000 N 
ATOM     23  C   UNL     1       6.218   4.390  17.767  0.00  0.00    +0.000 C 
ATOM     24  O   UNL     1       7.316   4.484  18.301  0.00  0.00    +0.000 OA
ATOM     25  H   UNL     1       5.079   4.604  16.048  0.00  0.00    +0.000 HD
ENDBRANCH  15  23
ENDBRANCH   1  19
BRANCH  10  26
ATOM     26  C   UNL     1      -1.782  13.059  22.718  0.00  0.00    +0.000 A 
ATOM     27  C   UNL     1      -1.695  14.457  22.670  0.00  0.00    +0.000 A 
ATOM     28  C   UNL     1      -2.660  15.283  23.265  0.00  0.00    +0.000 A 
ATOM     29  C   UNL     1      -3.758  14.731  23.916  0.00  0.00    +0.000 A 
ATOM     30  C   UNL     1      -3.845  13.350  24.022  0.00  0.00    +0.000 A 
ATOM     31  C   UNL     1      -2.878  12.531  23.416  0.00  0.00    +0.000 A 
BRANCH  29  32
ATOM     32  O   UNL     1      -4.622  15.635  24.457  0.00  0.00    +0.000 OA
BRANCH  32  33
ATOM     33  C   UNL     1      -5.910  15.800  23.882  0.00  0.00    +0.000 C 
ATOM     34  F   UNL     1      -6.843  14.935  24.333  0.00  0.00    +0.000 F 
ATOM     35  F   UNL     1      -6.342  17.060  24.108  0.00  0.00    +0.000 F 
ATOM     36  F   UNL     1      -5.804  15.629  22.544  0.00  0.00    +0.000 F 
ENDBRANCH  32  33
ENDBRANCH  29  32
ENDBRANCH  10  26
TORSDOF 5
ENDMDL
MODEL 2
REMARK VINA RESULT:      -8.3      6.266     12.664
REMARK  Name = 
REMARK  6 active torsions:
REMARK  status: ('A' for Active; 'I' for Inactive)
REMARK    1  A    between atoms: C_1  and  N_2
REMARK    2  A    between atoms: C_3  and  C_5
REMARK    3  A    between atoms: C_9  and  N_10
REMARK    4  A    between atoms: N_19  and  C_20
REMARK    5  A    between atoms: C_23  and  O_24
REMARK    6  A    between atoms: O_24  and  C_25
REMARK                            x       y       z     vdW  Elec       q    Type
REMARK                         _______ _______ _______ _____ _____    ______ ____
ROOT
ATOM      1  N   UNL     1       0.162  11.801  20.620  0.00  0.00    +0.000 N 
ATOM      2  C   UNL     1       0.498  10.477  20.909  0.00  0.00    +0.000 A 
ATOM      3  N   UNL     1       0.309  10.020  22.143  0.00  0.00    +0.000 NA
ATOM      4  C   UNL     1       0.723   8.785  22.349  0.00  0.00    +0.000 A 
ATOM      5  N   UNL     1       1.258   7.985  21.441  0.00  0.00    +0.000 NA
ATOM      6  C   UNL     1       1.383   8.496  20.219  0.00  0.00    +0.000 A 
ATOM      7  N   UNL     1       1.833   7.666  19.222  0.00  0.00    +0.000 N 
ATOM      8  C   UNL     1       2.065   8.146  17.857  0.00  0.00    +0.000 C 
ATOM      9  C   UNL     1       3.567   8.094  17.504  0.00  0.00    +0.000 C 
ATOM     10  N   UNL     1       4.150   6.770  17.801  0.00  0.00    +0.000 N 
ATOM     11  C   UNL     1       3.911   6.293  19.179  0.00  0.00    +0.000 C 
ATOM     12  C   UNL     1       2.403   6.349  19.530  0.00  0.00    +0.000 C 
ATOM     13  N   UNL     1       1.048   9.756  19.931  0.00  0.00    +0.000 NA
ATOM     14  H   UNL     1       0.525  12.099  19.727  0.00  0.00    +0.000 HD
ENDROOT
BRANCH   1  19
ATOM     15  C   UNL     1      -3.003  13.509  21.551  0.00  0.00    +0.000 A 
ATOM     16  C   UNL     1      -2.546  14.462  22.469  0.00  0.00    +0.000 A 
ATOM     17  C   UNL     1      -1.190  14.534  22.771  0.00  0.00    +0.000 A 
ATOM     18  C   UNL     1      -0.294  13.656  22.158  0.00  0.00    +0.000 A 
ATOM     19  C   UNL     1      -0.734  12.660  21.273  0.00  0.00    +0.000 A 
ATOM     20  C   UNL     1      -2.102  12.593  20.982  0.00  0.00    +0.000 A 
BRANCH  15  23
ATOM     21  C   UNL     1      -6.560  12.235  21.383  0.00  0.00    +0.000 C 
ATOM     22  N   UNL     1      -5.151  12.376  21.651  0.00  0.00    +0.000 N 
ATOM     23  C   UNL     1      -4.438  13.450  21.157  0.00  0.00    +0.000 C 
ATOM     24  O   UNL     1      -4.928  14.335  20.468  0.00  0.00    +0.000 OA
ATOM     25  H   UNL     1      -4.747  11.804  22.379  0.00  0.00    +0.000 HD
ENDBRANCH  15  23
ENDBRANCH   1  19
BRANCH  10  26
ATOM     26  C   UNL     1       4.659   5.933  16.827  0.00  0.00    +0.000 A 
ATOM     27  C   UNL     1       4.541   4.540  16.930  0.00  0.00    +0.000 A 
ATOM     28  C   UNL     1       5.063   3.675  15.958  0.00  0.00    +0.000 A 
ATOM     29  C   UNL     1       5.709   4.182  14.835  0.00  0.00    +0.000 A 
ATOM     30  C   UNL     1       5.884   5.554  14.729  0.00  0.00    +0.000 A 
ATOM     31  C   UNL     1       5.351   6.413  15.704  0.00  0.00    +0.000 A 
BRANCH  29  32
ATOM     32  O   UNL     1       6.176   3.243  13.966  0.00  0.00    +0.000 OA
BRANCH  32  33
ATOM     33  C   UNL     1       5.786   3.299  12.601  0.00  0.00    +0.000 C 
ATOM     34  F   UNL     1       5.775   2.106  11.969  0.00  0.00    +0.000 F 
ATOM     35  F   UNL     1       4.554   3.846  12.512  0.00  0.00    +0.000 F 
ATOM     36  F   UNL     1       6.649   4.106  11.943  0.00  0.00    +0.000 F 
ENDBRANCH  32  33
ENDBRANCH  29  32
ENDBRANCH  10  26
TORSDOF 5
ENDMDL
MODEL 3
REMARK VINA RESULT:      -8.3      6.262     12.638
REMARK  Name = 
REMARK  6 active torsions:
REMARK  status: ('A' for Active; 'I' for Inactive)
REMARK    1  A    between atoms: C_1  and  N_2
REMARK    2  A    between atoms: C_3  and  C_5
REMARK    3  A    between atoms: C_9  and  N_10
REMARK    4  A    between atoms: N_19  and  C_20
REMARK    5  A    between atoms: C_23  and  O_24
REMARK    6  A    between atoms: O_24  and  C_25
REMARK                            x       y       z     vdW  Elec       q    Type
REMARK                         _______ _______ _______ _____ _____    ______ ____
ROOT
ATOM      1  N   UNL     1       0.182  11.810  20.390  0.00  0.00    +0.000 N 
ATOM      2  C   UNL     1       0.557  10.514  20.753  0.00  0.00    +0.000 A 
ATOM      3  N   UNL     1       0.400  10.130  22.016  0.00  0.00    +0.000 NA
ATOM      4  C   UNL     1       0.849   8.920  22.291  0.00  0.00    +0.000 A 
ATOM      5  N   UNL     1       1.389   8.079  21.423  0.00  0.00    +0.000 NA
ATOM      6  C   UNL     1       1.480   8.517  20.170  0.00  0.00    +0.000 A 
ATOM      7  N   UNL     1       1.933   7.638  19.218  0.00  0.00    +0.000 N 
ATOM      8  C   UNL     1       2.129   8.038  17.821  0.00  0.00    +0.000 C 
ATOM      9  C   UNL     1       3.626   8.002  17.445  0.00  0.00    +0.000 C 
ATOM     10  N   UNL     1       4.249   6.713  17.811  0.00  0.00    +0.000 N 
ATOM     11  C   UNL     1       4.045   6.316  19.220  0.00  0.00    +0.000 C 
ATOM     12  C   UNL     1       2.543   6.357  19.595  0.00  0.00    +0.000 C 
ATOM     13  N   UNL     1       1.108   9.748  19.811  0.00  0.00    +0.000 NA
ATOM     14  H   UNL     1       0.521  12.061  19.474  0.00  0.00    +0.000 HD
ENDROOT
BRANCH   1  19
ATOM     15  C   UNL     1      -3.018  13.451  21.321  0.00  0.00    +0.000 A 
ATOM     16  C   UNL     1      -2.568  14.508  22.121  0.00  0.00    +0.000 A 
ATOM     17  C   UNL     1      -1.204  14.671  22.343  0.00  0.00    +0.000 A 
ATOM     18  C   UNL     1      -0.295  13.780  21.770  0.00  0.00    +0.000 A 
ATOM     19  C   UNL     1      -0.725  12.685  21.006  0.00  0.00    +0.000 A 
ATOM     20  C   UNL     1      -2.100  12.527  20.795  0.00  0.00    +0.000 A 
BRANCH  15  23
ATOM     21  C   UNL     1      -6.353  14.070  19.648  0.00  0.00    +0.000 C 
ATOM     22  N   UNL     1      -4.979  14.160  20.070  0.00  0.00    +0.000 N 
ATOM     23  C   UNL     1      -4.466  13.288  21.011  0.00  0.00    +0.000 C 
ATOM     24  O   UNL     1      -5.120  12.404  21.549  0.00  0.00    +0.000 OA
ATOM     25  H   UNL     1      -4.346  14.718  19.515  0.00  0.00    +0.000 HD
ENDBRANCH  15  23
ENDBRANCH   1  19
BRANCH  10  26
ATOM     26  C   UNL     1       4.762   5.830  16.881  0.00  0.00    +0.000 A 
ATOM     27  C   UNL     1       5.346   6.285  15.690  0.00  0.00    +0.000 A 
ATOM     28  C   UNL     1       5.860   5.402  14.729  0.00  0.00    +0.000 A 
ATOM     29  C   UNL     1       5.821   4.028  14.940  0.00  0.00    +0.000 A 
ATOM     30  C   UNL     1       5.206   3.546  16.087  0.00  0.00    +0.000 A 
ATOM     31  C   UNL     1       4.701   4.439  17.047  0.00  0.00    +0.000 A 
BRANCH  29  32
ATOM     32  O   UNL     1       6.346   3.275  13.933  0.00  0.00    +0.000 OA
BRANCH  32  33
ATOM     33  C   UNL     1       5.822   3.404  12.619  0.00  0.00    +0.000 C 
ATOM     34  F   UNL     1       5.823   2.262  11.899  0.00  0.00    +0.000 F 
ATOM     35  F   UNL     1       4.556   3.871  12.688  0.00  0.00    +0.000 F 
ATOM     36  F   UNL     1       6.566   4.313  11.950  0.00  0.00    +0.000 F 
ENDBRANCH  32  33
ENDBRANCH  29  32
ENDBRANCH  10  26
TORSDOF 5
ENDMDL
MODEL 4
REMARK VINA RESULT:      -8.2      6.213     12.662
REMARK  Name = 
REMARK  6 active torsions:
REMARK  status: ('A' for Active; 'I' for Inactive)
REMARK    1  A    between atoms: C_1  and  N_2
REMARK    2  A    between atoms: C_3  and  C_5
REMARK    3  A    between atoms: C_9  and  N_10
REMARK    4  A    between atoms: N_19  and  C_20
REMARK    5  A    between atoms: C_23  and  O_24
REMARK    6  A    between atoms: O_24  and  C_25
REMARK                            x       y       z     vdW  Elec       q    Type
REMARK                         _______ _______ _______ _____ _____    ______ ____
ROOT
ATOM      1  N   UNL     1       0.346  11.896  20.485  0.00  0.00    +0.000 N 
ATOM      2  C   UNL     1       0.646  10.573  20.813  0.00  0.00    +0.000 A 
ATOM      3  N   UNL     1       0.434  10.154  22.057  0.00  0.00    +0.000 NA
ATOM      4  C   UNL     1       0.815   8.916  22.302  0.00  0.00    +0.000 A 
ATOM      5  N   UNL     1       1.340   8.079  21.421  0.00  0.00    +0.000 NA
ATOM      6  C   UNL     1       1.490   8.553  20.187  0.00  0.00    +0.000 A 
ATOM      7  N   UNL     1       1.929   7.686  19.218  0.00  0.00    +0.000 N 
ATOM      8  C   UNL     1       2.186   8.122  17.842  0.00  0.00    +0.000 C 
ATOM      9  C   UNL     1       3.690   8.025  17.508  0.00  0.00    +0.000 C 
ATOM     10  N   UNL     1       4.238   6.696  17.846  0.00  0.00    +0.000 N 
ATOM     11  C   UNL     1       3.973   6.262  19.234  0.00  0.00    +0.000 C 
ATOM     12  C   UNL     1       2.464   6.364  19.567  0.00  0.00    +0.000 C 
ATOM     13  N   UNL     1       1.188   9.813  19.861  0.00  0.00    +0.000 NA
ATOM     14  H   UNL     1       0.724  12.161  19.589  0.00  0.00    +0.000 HD
ENDROOT
BRANCH   1  19
ATOM     15  C   UNL     1      -2.803  13.371  21.793  0.00  0.00    +0.000 A 
ATOM     16  C   UNL     1      -2.364  14.628  22.226  0.00  0.00    +0.000 A 
ATOM     17  C   UNL     1      -1.026  14.979  22.078  0.00  0.00    +0.000 A 
ATOM     18  C   UNL     1      -0.130  14.077  21.501  0.00  0.00    +0.000 A 
ATOM     19  C   UNL     1      -0.536  12.794  21.106  0.00  0.00    +0.000 A 
ATOM     20  C   UNL     1      -1.884  12.449  21.265  0.00  0.00    +0.000 A 
BRANCH  15  23
ATOM     21  C   UNL     1      -6.273  13.018  23.256  0.00  0.00    +0.000 C 
ATOM     22  N   UNL     1      -4.871  13.290  23.070  0.00  0.00    +0.000 N 
ATOM     23  C   UNL     1      -4.241  12.992  21.878  0.00  0.00    +0.000 C 
ATOM     24  O   UNL     1      -4.804  12.481  20.918  0.00  0.00    +0.000 OA
ATOM     25  H   UNL     1      -4.412  13.896  23.735  0.00  0.00    +0.000 HD
ENDBRANCH  15  23
ENDBRANCH   1  19
BRANCH  10  26
ATOM     26  C   UNL     1       4.736   5.820  16.900  0.00  0.00    +0.000 A 
ATOM     27  C   UNL     1       5.442   6.282  15.781  0.00  0.00    +0.000 A 
ATOM     28  C   UNL     1       5.944   5.409  14.805  0.00  0.00    +0.000 A 
ATOM     29  C   UNL     1       5.767   4.034  14.929  0.00  0.00    +0.000 A 
ATOM     30  C   UNL     1       5.031   3.551  16.001  0.00  0.00    +0.000 A 
ATOM     31  C   UNL     1       4.540   4.434  16.978  0.00  0.00    +0.000 A 
BRANCH  29  32
ATOM     32  O   UNL     1       6.294   3.292  13.916  0.00  0.00    +0.000 OA
BRANCH  32  33
ATOM     33  C   UNL     1       5.755   3.414  12.608  0.00  0.00    +0.000 C 
ATOM     34  F   UNL     1       4.491   3.886  12.562  0.00  0.00    +0.000 F 
ATOM     35  F   UNL     1       6.546   4.225  11.873  0.00  0.00    +0.000 F 
ATOM     36  F   UNL     1       5.758   2.191  12.029  0.00  0.00    +0.000 F 
ENDBRANCH  32  33
ENDBRANCH  29  32
ENDBRANCH  10  26
TORSDOF 5
ENDMDL
MODEL 5
REMARK VINA RESULT:      -8.2      0.580      1.127
REMARK  Name = 
REMARK  6 active torsions:
REMARK  status: ('A' for Active; 'I' for Inactive)
REMARK    1  A    between atoms: C_1  and  N_2
REMARK    2  A    between atoms: C_3  and  C_5
REMARK    3  A    between atoms: C_9  and  N_10
REMARK    4  A    between atoms: N_19  and  C_20
REMARK    5  A    between atoms: C_23  and  O_24
REMARK    6  A    between atoms: O_24  and  C_25
REMARK                            x       y       z     vdW  Elec       q    Type
REMARK                         _______ _______ _______ _____ _____    ______ ____
ROOT
ATOM      1  N   UNL     1       2.746   6.294  20.047  0.00  0.00    +0.000 N 
ATOM      2  C   UNL     1       2.235   7.459  19.472  0.00  0.00    +0.000 A 
ATOM      3  N   UNL     1       2.644   7.810  18.256  0.00  0.00    +0.000 NA
ATOM      4  C   UNL     1       2.171   8.961  17.820  0.00  0.00    +0.000 A 
ATOM      5  N   UNL     1       1.321   9.744  18.465  0.00  0.00    +0.000 NA
ATOM      6  C   UNL     1       0.927   9.313  19.660  0.00  0.00    +0.000 A 
ATOM      7  N   UNL     1      -0.036  10.039  20.316  0.00  0.00    +0.000 N 
ATOM      8  C   UNL     1      -0.495   9.685  21.662  0.00  0.00    +0.000 C 
ATOM      9  C   UNL     1      -0.091  10.770  22.683  0.00  0.00    +0.000 C 
ATOM     10  N   UNL     1      -0.488  12.119  22.231  0.00  0.00    +0.000 N 
ATOM     11  C   UNL     1      -0.024  12.468  20.872  0.00  0.00    +0.000 C 
ATOM     12  C   UNL     1      -0.428  11.376  19.851  0.00  0.00    +0.000 C 
ATOM     13  N   UNL     1       1.398   8.190  20.209  0.00  0.00    +0.000 NA
ATOM     14  H   UNL     1       2.529   6.227  21.029  0.00  0.00    +0.000 HD
ENDROOT
BRANCH   1  19
ATOM     15  C   UNL     1       5.007   4.207  17.965  0.00  0.00    +0.000 A 
ATOM     16  C   UNL     1       4.403   2.948  18.071  0.00  0.00    +0.000 A 
ATOM     17  C   UNL     1       3.246   2.802  18.830  0.00  0.00    +0.000 A 
ATOM     18  C   UNL     1       2.697   3.908  19.482  0.00  0.00    +0.000 A 
ATOM     19  C   UNL     1       3.313   5.167  19.432  0.00  0.00    +0.000 A 
ATOM     20  C   UNL     1       4.480   5.302  18.670  0.00  0.00    +0.000 A 
BRANCH  15  23
ATOM     21  C   UNL     1       7.036   4.786  14.827  0.00  0.00    +0.000 C 
ATOM     22  N   UNL     1       5.963   4.536  15.754  0.00  0.00    +0.000 N 
ATOM     23  C   UNL     1       6.208   4.410  17.108  0.00  0.00    +0.000 C 
ATOM     24  O   UNL     1       7.322   4.490  17.609  0.00  0.00    +0.000 OA
ATOM     25  H   UNL     1       5.015   4.673  15.432  0.00  0.00    +0.000 HD
ENDBRANCH  15  23
ENDBRANCH   1  19
BRANCH  10  26
ATOM     26  C   UNL     1      -1.415  12.897  22.897  0.00  0.00    +0.000 A 
ATOM     27  C   UNL     1      -2.737  12.466  23.072  0.00  0.00    +0.000 A 
ATOM     28  C   UNL     1      -3.694  13.249  23.734  0.00  0.00    +0.000 A 
ATOM     29  C   UNL     1      -3.350  14.489  24.261  0.00  0.00    +0.000 A 
ATOM     30  C   UNL     1      -2.061  14.964  24.062  0.00  0.00    +0.000 A 
ATOM     31  C   UNL     1      -1.108  14.169  23.404  0.00  0.00    +0.000 A 
BRANCH  29  32
ATOM     32  O   UNL     1      -4.366  15.156  24.876  0.00  0.00    +0.000 OA
BRANCH  32  33
ATOM     33  C   UNL     1      -5.283  15.906  24.092  0.00  0.00    +0.000 C 
ATOM     34  F   UNL     1      -5.573  17.130  24.583  0.00  0.00    +0.000 F 
ATOM     35  F   UNL     1      -4.791  16.046  22.842  0.00  0.00    +0.000 F 
ATOM     36  F   UNL     1      -6.441  15.212  24.010  0.00  0.00    +0.000 F 
ENDBRANCH  32  33
ENDBRANCH  29  32
ENDBRANCH  10  26
TORSDOF 5
ENDMDL
MODEL 6
REMARK VINA RESULT:      -8.1      6.231     12.601
REMARK  Name = 
REMARK  6 active torsions:
REMARK  status: ('A' for Active; 'I' for Inactive)
REMARK    1  A    between atoms: C_1  and  N_2
REMARK    2  A    between atoms: C_3  and  C_5
REMARK    3  A    between atoms: C_9  and  N_10
REMARK    4  A    between atoms: N_19  and  C_20
REMARK    5  A    between atoms: C_23  and  O_24
REMARK    6  A    between atoms: O_24  and  C_25
REMARK                            x       y       z     vdW  Elec       q    Type
REMARK                         _______ _______ _______ _____ _____    ______ ____
ROOT
ATOM      1  N   UNL     1       0.262  11.793  20.433  0.00  0.00    +0.000 N 
ATOM      2  C   UNL     1       0.585  10.475  20.763  0.00  0.00    +0.000 A 
ATOM      3  N   UNL     1       0.374  10.053  22.006  0.00  0.00    +0.000 NA
ATOM      4  C   UNL     1       0.777   8.821  22.252  0.00  0.00    +0.000 A 
ATOM      5  N   UNL     1       1.320   7.994  21.373  0.00  0.00    +0.000 NA
ATOM      6  C   UNL     1       1.467   8.471  20.140  0.00  0.00    +0.000 A 
ATOM      7  N   UNL     1       1.926   7.612  19.173  0.00  0.00    +0.000 N 
ATOM      8  C   UNL     1       2.181   8.053  17.798  0.00  0.00    +0.000 C 
ATOM      9  C   UNL     1       3.688   7.982  17.470  0.00  0.00    +0.000 C 
ATOM     10  N   UNL     1       4.258   6.663  17.811  0.00  0.00    +0.000 N 
ATOM     11  C   UNL     1       3.995   6.225  19.197  0.00  0.00    +0.000 C 
ATOM     12  C   UNL     1       2.483   6.299  19.524  0.00  0.00    +0.000 C 
ATOM     13  N   UNL     1       1.144   9.725  19.813  0.00  0.00    +0.000 NA
ATOM     14  H   UNL     1       0.639  12.065  19.538  0.00  0.00    +0.000 HD
ENDROOT
BRANCH   1  19
ATOM     15  C   UNL     1      -1.064  14.444  22.672  0.00  0.00    +0.000 A 
ATOM     16  C   UNL     1      -2.437  14.371  22.409  0.00  0.00    +0.000 A 
ATOM     17  C   UNL     1      -2.914  13.440  21.492  0.00  0.00    +0.000 A 
ATOM     18  C   UNL     1      -2.023  12.586  20.840  0.00  0.00    +0.000 A 
ATOM     19  C   UNL     1      -0.638  12.675  21.050  0.00  0.00    +0.000 A 
ATOM     20  C   UNL     1      -0.169  13.620  21.970  0.00  0.00    +0.000 A 
BRANCH  15  23
ATOM     21  C   UNL     1       0.766  17.431  24.097  0.00  0.00    +0.000 C 
ATOM     22  N   UNL     1       0.235  16.427  23.212  0.00  0.00    +0.000 N 
ATOM     23  C   UNL     1      -0.530  15.384  23.696  0.00  0.00    +0.000 C 
ATOM     24  O   UNL     1      -0.802  15.231  24.880  0.00  0.00    +0.000 OA
ATOM     25  H   UNL     1       0.244  16.616  22.219  0.00  0.00    +0.000 HD
ENDBRANCH  15  23
ENDBRANCH   1  19
BRANCH  10  26
ATOM     26  C   UNL     1       4.776   5.797  16.867  0.00  0.00    +0.000 A 
ATOM     27  C   UNL     1       5.310   6.269  15.661  0.00  0.00    +0.000 A 
ATOM     28  C   UNL     1       5.828   5.403  14.686  0.00  0.00    +0.000 A 
ATOM     29  C   UNL     1       5.843   4.028  14.899  0.00  0.00    +0.000 A 
ATOM     30  C   UNL     1       5.277   3.528  16.064  0.00  0.00    +0.000 A 
ATOM     31  C   UNL     1       4.768   4.404  17.037  0.00  0.00    +0.000 A 
BRANCH  29  32
ATOM     32  O   UNL     1       6.365   3.293  13.879  0.00  0.00    +0.000 OA
BRANCH  32  33
ATOM     33  C   UNL     1       5.805   3.406  12.579  0.00  0.00    +0.000 C 
ATOM     34  F   UNL     1       4.534   3.861  12.551  0.00  0.00    +0.000 F 
ATOM     35  F   UNL     1       6.575   4.226  11.831  0.00  0.00    +0.000 F 
ATOM     36  F   UNL     1       5.816   2.182  12.002  0.00  0.00    +0.000 F 
ENDBRANCH  32  33
ENDBRANCH  29  32
ENDBRANCH  10  26
TORSDOF 5
ENDMDL
MODEL 7
REMARK VINA RESULT:      -8.0      1.176      1.370
REMARK  Name = 
REMARK  6 active torsions:
REMARK  status: ('A' for Active; 'I' for Inactive)
REMARK    1  A    between atoms: C_1  and  N_2
REMARK    2  A    between atoms: C_3  and  C_5
REMARK    3  A    between atoms: C_9  and  N_10
REMARK    4  A    between atoms: N_19  and  C_20
REMARK    5  A    between atoms: C_23  and  O_24
REMARK    6  A    between atoms: O_24  and  C_25
REMARK                            x       y       z     vdW  Elec       q    Type
REMARK                         _______ _______ _______ _____ _____    ______ ____
ROOT
ATOM      1  N   UNL     1       2.724   6.596  19.641  0.00  0.00    +0.000 N 
ATOM      2  C   UNL     1       2.228   7.801  19.137  0.00  0.00    +0.000 A 
ATOM      3  N   UNL     1       2.668   8.236  17.960  0.00  0.00    +0.000 NA
ATOM      4  C   UNL     1       2.207   9.417  17.595  0.00  0.00    +0.000 A 
ATOM      5  N   UNL     1       1.341  10.154  18.272  0.00  0.00    +0.000 NA
ATOM      6  C   UNL     1       0.916   9.640  19.423  0.00  0.00    +0.000 A 
ATOM      7  N   UNL     1      -0.062  10.320  20.104  0.00  0.00    +0.000 N 
ATOM      8  C   UNL     1      -0.556   9.872  21.410  0.00  0.00    +0.000 C 
ATOM      9  C   UNL     1      -0.178  10.881  22.515  0.00  0.00    +0.000 C 
ATOM     10  N   UNL     1      -0.563  12.259  22.150  0.00  0.00    +0.000 N 
ATOM     11  C   UNL     1      -0.063  12.703  20.831  0.00  0.00    +0.000 C 
ATOM     12  C   UNL     1      -0.442  11.687  19.725  0.00  0.00    +0.000 C 
ATOM     13  N   UNL     1       1.373   8.480  19.903  0.00  0.00    +0.000 NA
ATOM     14  H   UNL     1       2.481   6.461  20.610  0.00  0.00    +0.000 HD
ENDROOT
BRANCH   1  19
ATOM     15  C   UNL     1       4.618   4.675  17.087  0.00  0.00    +0.000 A 
ATOM     16  C   UNL     1       4.379   3.358  17.494  0.00  0.00    +0.000 A 
ATOM     17  C   UNL     1       3.588   3.115  18.613  0.00  0.00    +0.000 A 
ATOM     18  C   UNL     1       3.039   4.185  19.322  0.00  0.00    +0.000 A 
ATOM     19  C   UNL     1       3.305   5.515  18.962  0.00  0.00    +0.000 A 
ATOM     20  C   UNL     1       4.108   5.747  17.839  0.00  0.00    +0.000 A 
BRANCH  15  23
ATOM     21  C   UNL     1       6.455   4.025  13.846  0.00  0.00    +0.000 C 
ATOM     22  N   UNL     1       5.739   3.869  15.086  0.00  0.00    +0.000 N 
ATOM     23  C   UNL     1       5.405   4.966  15.856  0.00  0.00    +0.000 C 
ATOM     24  O   UNL     1       5.690   6.119  15.560  0.00  0.00    +0.000 OA
ATOM     25  H   UNL     1       5.296   2.980  15.270  0.00  0.00    +0.000 HD
ENDBRANCH  15  23
ENDBRANCH   1  19
BRANCH  10  26
ATOM     26  C   UNL     1      -1.505  12.991  22.846  0.00  0.00    +0.000 A 
ATOM     27  C   UNL     1      -1.131  14.049  23.685  0.00  0.00    +0.000 A 
ATOM     28  C   UNL     1      -2.074  14.794  24.409  0.00  0.00    +0.000 A 
ATOM     29  C   UNL     1      -3.432  14.511  24.301  0.00  0.00    +0.000 A 
ATOM     30  C   UNL     1      -3.829  13.438  23.515  0.00  0.00    +0.000 A 
ATOM     31  C   UNL     1      -2.877  12.704  22.788  0.00  0.00    +0.000 A 
BRANCH  29  32
ATOM     32  O   UNL     1      -4.246  15.300  25.056  0.00  0.00    +0.000 OA
BRANCH  32  33
ATOM     33  C   UNL     1      -5.110  16.227  24.414  0.00  0.00    +0.000 C 
ATOM     34  F   UNL     1      -4.688  16.644  23.201  0.00  0.00    +0.000 F 
ATOM     35  F   UNL     1      -6.335  15.675  24.280  0.00  0.00    +0.000 F 
ATOM     36  F   UNL     1      -5.228  17.318  25.205  0.00  0.00    +0.000 F 
ENDBRANCH  32  33
ENDBRANCH  29  32
ENDBRANCH  10  26
TORSDOF 5
ENDMDL
MODEL 8
REMARK VINA RESULT:      -7.9      6.301     12.702
REMARK  Name = 
REMARK  6 active torsions:
REMARK  status: ('A' for Active; 'I' for Inactive)
REMARK    1  A    between atoms: C_1  and  N_2
REMARK    2  A    between atoms: C_3  and  C_5
REMARK    3  A    between atoms: C_9  and  N_10
REMARK    4  A    between atoms: N_19  and  C_20
REMARK    5  A    between atoms: C_23  and  O_24
REMARK    6  A    between atoms: O_24  and  C_25
REMARK                            x       y       z     vdW  Elec       q    Type
REMARK                         _______ _______ _______ _____ _____    ______ ____
ROOT
ATOM      1  N   UNL     1       0.265  11.743  20.644  0.00  0.00    +0.000 N 
ATOM      2  C   UNL     1       0.563  10.402  20.898  0.00  0.00    +0.000 A 
ATOM      3  N   UNL     1       0.327   9.909  22.110  0.00  0.00    +0.000 NA
ATOM      4  C   UNL     1       0.707   8.659  22.287  0.00  0.00    +0.000 A 
ATOM      5  N   UNL     1       1.250   7.877  21.368  0.00  0.00    +0.000 NA
ATOM      6  C   UNL     1       1.422   8.424  20.168  0.00  0.00    +0.000 A 
ATOM      7  N   UNL     1       1.881   7.617  19.157  0.00  0.00    +0.000 N 
ATOM      8  C   UNL     1       2.163   8.136  17.815  0.00  0.00    +0.000 C 
ATOM      9  C   UNL     1       3.673   8.060  17.503  0.00  0.00    +0.000 C 
ATOM     10  N   UNL     1       4.218   6.714  17.772  0.00  0.00    +0.000 N 
ATOM     11  C   UNL     1       3.928   6.197  19.126  0.00  0.00    +0.000 C 
ATOM     12  C   UNL     1       2.413   6.277  19.436  0.00  0.00    +0.000 C 
ATOM     13  N   UNL     1       1.124   9.701  19.912  0.00  0.00    +0.000 NA
ATOM     14  H   UNL     1       0.659  12.061  19.773  0.00  0.00    +0.000 HD
ENDROOT
BRANCH   1  19
ATOM     15  C   UNL     1      -1.014  14.533  22.737  0.00  0.00    +0.000 A 
ATOM     16  C   UNL     1      -2.389  14.269  22.745  0.00  0.00    +0.000 A 
ATOM     17  C   UNL     1      -2.882  13.165  22.057  0.00  0.00    +0.000 A 
ATOM     18  C   UNL     1      -2.005  12.328  21.364  0.00  0.00    +0.000 A 
ATOM     19  C   UNL     1      -0.630  12.600  21.301  0.00  0.00    +0.000 A 
ATOM     20  C   UNL     1      -0.146  13.718  21.991  0.00  0.00    +0.000 A 
BRANCH  15  23
ATOM     21  C   UNL     1      -0.910  17.445  25.148  0.00  0.00    +0.000 C 
ATOM     22  N   UNL     1      -1.345  16.359  24.308  0.00  0.00    +0.000 N 
ATOM     23  C   UNL     1      -0.448  15.668  23.517  0.00  0.00    +0.000 C 
ATOM     24  O   UNL     1       0.749  15.922  23.462  0.00  0.00    +0.000 OA
ATOM     25  H   UNL     1      -2.264  15.971  24.470  0.00  0.00    +0.000 HD
ENDBRANCH  15  23
ENDBRANCH   1  19
BRANCH  10  26
ATOM     26  C   UNL     1       4.735   5.897  16.785  0.00  0.00    +0.000 A 
ATOM     27  C   UNL     1       4.774   4.505  16.939  0.00  0.00    +0.000 A 
ATOM     28  C   UNL     1       5.308   3.661  15.953  0.00  0.00    +0.000 A 
ATOM     29  C   UNL     1       5.807   4.189  14.767  0.00  0.00    +0.000 A 
ATOM     30  C   UNL     1       5.827   5.568  14.606  0.00  0.00    +0.000 A 
ATOM     31  C   UNL     1       5.282   6.403  15.596  0.00  0.00    +0.000 A 
BRANCH  29  32
ATOM     32  O   UNL     1       6.302   3.271  13.891  0.00  0.00    +0.000 OA
BRANCH  32  33
ATOM     33  C   UNL     1       5.907   3.323  12.528  0.00  0.00    +0.000 C 
ATOM     34  F   UNL     1       5.949   2.137  11.884  0.00  0.00    +0.000 F 
ATOM     35  F   UNL     1       4.652   3.815  12.446  0.00  0.00    +0.000 F 
ATOM     36  F   UNL     1       6.732   4.174  11.877  0.00  0.00    +0.000 F 
ENDBRANCH  32  33
ENDBRANCH  29  32
ENDBRANCH  10  26
TORSDOF 5
ENDMDL
MODEL 9
REMARK VINA RESULT:      -7.8      1.101      1.261
REMARK  Name = 
REMARK  6 active torsions:
REMARK  status: ('A' for Active; 'I' for Inactive)
REMARK    1  A    between atoms: C_1  and  N_2
REMARK    2  A    between atoms: C_3  and  C_5
REMARK    3  A    between atoms: C_9  and  N_10
REMARK    4  A    between atoms: N_19  and  C_20
REMARK    5  A    between atoms: C_23  and  O_24
REMARK    6  A    between atoms: O_24  and  C_25
REMARK                            x       y       z     vdW  Elec       q    Type
REMARK                         _______ _______ _______ _____ _____    ______ ____
ROOT
ATOM      1  N   UNL     1       2.617   6.568  20.315  0.00  0.00    +0.000 N 
ATOM      2  C   UNL     1       2.096   7.651  19.604  0.00  0.00    +0.000 A 
ATOM      3  N   UNL     1       2.516   7.866  18.361  0.00  0.00    +0.000 NA
ATOM      4  C   UNL     1       2.032   8.951  17.789  0.00  0.00    +0.000 A 
ATOM      5  N   UNL     1       1.161   9.789  18.329  0.00  0.00    +0.000 NA
ATOM      6  C   UNL     1       0.757   9.491  19.561  0.00  0.00    +0.000 A 
ATOM      7  N   UNL     1      -0.226  10.272  20.117  0.00  0.00    +0.000 N 
ATOM      8  C   UNL     1      -0.698  10.067  21.489  0.00  0.00    +0.000 C 
ATOM      9  C   UNL     1      -0.325  11.270  22.383  0.00  0.00    +0.000 C 
ATOM     10  N   UNL     1      -0.737  12.550  21.773  0.00  0.00    +0.000 N 
ATOM     11  C   UNL     1      -0.259  12.748  20.389  0.00  0.00    +0.000 C 
ATOM     12  C   UNL     1      -0.632  11.539  19.496  0.00  0.00    +0.000 C 
ATOM     13  N   UNL     1       1.237   8.447  20.241  0.00  0.00    +0.000 NA
ATOM     14  H   UNL     1       2.387   6.611  21.296  0.00  0.00    +0.000 HD
ENDROOT
BRANCH   1  19
ATOM     15  C   UNL     1       4.873   4.293  18.435  0.00  0.00    +0.000 A 
ATOM     16  C   UNL     1       4.342   3.039  18.762  0.00  0.00    +0.000 A 
ATOM     17  C   UNL     1       3.236   2.958  19.602  0.00  0.00    +0.000 A 
ATOM     18  C   UNL     1       2.664   4.124  20.115  0.00  0.00    +0.000 A 
ATOM     19  C   UNL     1       3.209   5.388  19.841  0.00  0.00    +0.000 A 
ATOM     20  C   UNL     1       4.326   5.457  19.000  0.00  0.00    +0.000 A 
BRANCH  15  23
ATOM     21  C   UNL     1       6.804   4.027  15.194  0.00  0.00    +0.000 C 
ATOM     22  N   UNL     1       5.795   3.920  16.217  0.00  0.00    +0.000 N 
ATOM     23  C   UNL     1       6.014   4.417  17.486  0.00  0.00    +0.000 C 
ATOM     24  O   UNL     1       7.053   4.963  17.835  0.00  0.00    +0.000 OA
ATOM     25  H   UNL     1       4.856   3.678  15.934  0.00  0.00    +0.000 HD
ENDBRANCH  15  23
ENDBRANCH   1  19
BRANCH  10  26
ATOM     26  C   UNL     1      -1.684  13.385  22.334  0.00  0.00    +0.000 A 
ATOM     27  C   UNL     1      -1.795  14.726  21.944  0.00  0.00    +0.000 A 
ATOM     28  C   UNL     1      -2.742  15.591  22.512  0.00  0.00    +0.000 A 
ATOM     29  C   UNL     1      -3.626  15.131  23.483  0.00  0.00    +0.000 A 
ATOM     30  C   UNL     1      -3.509  13.820  23.924  0.00  0.00    +0.000 A 
ATOM     31  C   UNL     1      -2.562  12.960  23.343  0.00  0.00    +0.000 A 
BRANCH  29  32
ATOM     32  O   UNL     1      -4.494  16.065  23.961  0.00  0.00    +0.000 OA
BRANCH  32  33
ATOM     33  C   UNL     1      -4.024  17.061  24.858  0.00  0.00    +0.000 C 
ATOM     34  F   UNL     1      -2.964  16.688  25.607  0.00  0.00    +0.000 F 
ATOM     35  F   UNL     1      -3.692  18.169  24.160  0.00  0.00    +0.000 F 
ATOM     36  F   UNL     1      -5.030  17.385  25.702  0.00  0.00    +0.000 F 
ENDBRANCH  32  33
ENDBRANCH  29  32
ENDBRANCH  10  26
TORSDOF 5
ENDMDL
