MODEL 1
REMARK VINA RESULT:      -6.7      0.000      0.000
REMARK  Name = 
REMARK  3 active torsions:
REMARK  status: ('A' for Active; 'I' for Inactive)
REMARK    1  A    between atoms: C_1  and  C_2
REMARK    2  A    between atoms: N_3  and  N_4
REMARK    3  A    between atoms: C_5  and  C_7
REMARK                            x       y       z     vdW  Elec       q    Type
REMARK                         _______ _______ _______ _____ _____    ______ ____
ROOT
ATOM      1  N   UNL     1       4.670   4.619  16.154  0.00  0.00    +0.000 N 
ATOM      2  C   UNL     1       6.042   4.685  15.964  0.00  0.00    +0.000 C 
ATOM      3  O   UNL     1       6.885   4.801  16.851  0.00  0.00    +0.000 OA
ATOM      4  H   UNL     1       4.075   4.353  15.386  0.00  0.00    +0.000 HD
ENDROOT
BRANCH   1   7
ATOM      5  C   UNL     1       3.785   2.202  17.407  0.00  0.00    +0.000 C 
ATOM      6  C   UNL     1       3.758   3.589  18.033  0.00  0.00    +0.000 C 
ATOM      7  N   UNL     1       4.153   4.670  17.415  0.00  0.00    +0.000 NA
ATOM      8  N   UNL     1       3.264   3.669  19.333  0.00  0.00    +0.000 N 
ATOM      9  C   UNL     1       2.744   2.544  20.119  0.00  0.00    +0.000 C 
ATOM     10  C   UNL     1       1.345   2.887  20.651  0.00  0.00    +0.000 C 
ATOM     11  O   UNL     1       1.359   4.097  21.419  0.00  0.00    +0.000 OA
ATOM     12  C   UNL     1       1.840   5.196  20.622  0.00  0.00    +0.000 C 
ATOM     13  C   UNL     1       3.259   4.932  20.095  0.00  0.00    +0.000 C 
ENDBRANCH   1   7
BRANCH   2  14
ATOM     14  C   UNL     1       6.496   4.570  14.545  0.00  0.00    +0.000 A 
ATOM     15  C   UNL     1       7.500   5.399  14.018  0.00  0.00    +0.000 A 
ATOM     16  C   UNL     1       7.903   5.256  12.687  0.00  0.00    +0.000 A 
ATOM     17  C   UNL     1       7.313   4.284  11.879  0.00  0.00    +0.000 A 
ATOM     18  C   UNL     1       6.329   3.448  12.408  0.00  0.00    +0.000 A 
ATOM     19 BR   UNL     1       5.542   2.125  11.309  0.00  0.00    +0.000 Br
ATOM     20  C   UNL     1       5.923   3.579  13.735  0.00  0.00    +0.000 A 
ENDBRANCH   2  14
TORSDOF 2
ENDMDL
MODEL 2
REMARK VINA RESULT:      -6.7      4.636      6.503
REMARK  Name = 
REMARK  3 active torsions:
REMARK  status: ('A' for Active; 'I' for Inactive)
REMARK    1  A    between atoms: C_1  and  C_2
REMARK    2  A    between atoms: N_3  and  N_4
REMARK    3  A    between atoms: C_5  and  C_7
REMARK                            x       y       z     vdW  Elec       q    Type
REMARK                         _______ _______ _______ _____ _____    ______ ____
ROOT
ATOM      1  N   UNL     1       2.346   7.322  19.524  0.00  0.00    +0.000 N 
ATOM      2  C   UNL     1       2.468   5.941  19.524  0.00  0.00    +0.000 C 
ATOM      3  O   UNL     1       1.848   5.165  20.247  0.00  0.00    +0.000 OA
ATOM      4  H   UNL     1       2.766   7.859  18.782  0.00  0.00    +0.000 HD
ENDROOT
BRANCH   1   7
ATOM      5  C   UNL     1       1.261   9.878  18.828  0.00  0.00    +0.000 C 
ATOM      6  C   UNL     1       0.930   9.084  20.085  0.00  0.00    +0.000 C 
ATOM      7  N   UNL     1       1.467   7.929  20.372  0.00  0.00    +0.000 NA
ATOM      8  N   UNL     1       0.010   9.663  20.955  0.00  0.00    +0.000 N 
ATOM      9  C   UNL     1      -0.627  10.973  20.777  0.00  0.00    +0.000 C 
ATOM     10  C   UNL     1      -0.428  11.823  22.040  0.00  0.00    +0.000 C 
ATOM     11  O   UNL     1      -0.930  11.154  23.204  0.00  0.00    +0.000 OA
ATOM     12  C   UNL     1      -0.270   9.887  23.382  0.00  0.00    +0.000 C 
ATOM     13  C   UNL     1      -0.469   8.970  22.166  0.00  0.00    +0.000 C 
ENDBRANCH   1   7
BRANCH   2  14
ATOM     14  C   UNL     1       3.425   5.386  18.519  0.00  0.00    +0.000 A 
ATOM     15  C   UNL     1       3.112   4.262  17.738  0.00  0.00    +0.000 A 
ATOM     16  C   UNL     1       4.030   3.777  16.803  0.00  0.00    +0.000 A 
ATOM     17  C   UNL     1       5.262   4.412  16.640  0.00  0.00    +0.000 A 
ATOM     18  C   UNL     1       5.567   5.539  17.404  0.00  0.00    +0.000 A 
ATOM     19 BR   UNL     1       7.234   6.399  17.168  0.00  0.00    +0.000 Br
ATOM     20  C   UNL     1       4.656   6.033  18.335  0.00  0.00    +0.000 A 
ENDBRANCH   2  14
TORSDOF 2
ENDMDL
MODEL 3
REMARK VINA RESULT:      -6.5      5.199      8.404
REMARK  Name = 
REMARK  3 active torsions:
REMARK  status: ('A' for Active; 'I' for Inactive)
REMARK    1  A    between atoms: C_1  and  C_2
REMARK    2  A    between atoms: N_3  and  N_4
REMARK    3  A    between atoms: C_5  and  C_7
REMARK                            x       y       z     vdW  Elec       q    Type
REMARK                         _______ _______ _______ _____ _____    ______ ____
ROOT
ATOM      1  N   UNL     1       2.360   7.700  18.514  0.00  0.00    +0.000 N 
ATOM      2  C   UNL     1       1.980   8.983  18.152  0.00  0.00    +0.000 C 
ATOM      3  O   UNL     1       2.450   9.636  17.224  0.00  0.00    +0.000 OA
ATOM      4  H   UNL     1       1.803   7.184  19.176  0.00  0.00    +0.000 HD
ENDROOT
BRANCH   1   7
ATOM      5  C   UNL     1       3.744   5.503  19.719  0.00  0.00    +0.000 C 
ATOM      6  C   UNL     1       3.969   6.028  18.308  0.00  0.00    +0.000 C 
ATOM      7  N   UNL     1       3.328   7.050  17.806  0.00  0.00    +0.000 NA
ATOM      8  N   UNL     1       4.928   5.365  17.548  0.00  0.00    +0.000 N 
ATOM      9  C   UNL     1       5.752   4.239  18.007  0.00  0.00    +0.000 C 
ATOM     10  C   UNL     1       7.235   4.547  17.758  0.00  0.00    +0.000 C 
ATOM     11  O   UNL     1       7.483   4.845  16.378  0.00  0.00    +0.000 OA
ATOM     12  C   UNL     1       6.693   5.972  15.956  0.00  0.00    +0.000 C 
ATOM     13  C   UNL     1       5.191   5.709  16.138  0.00  0.00    +0.000 C 
ENDBRANCH   1   7
BRANCH   2  14
ATOM     14  C   UNL     1       0.878   9.576  18.969  0.00  0.00    +0.000 A 
ATOM     15  C   UNL     1      -0.163  10.316  18.384  0.00  0.00    +0.000 A 
ATOM     16  C   UNL     1      -1.181  10.848  19.181  0.00  0.00    +0.000 A 
ATOM     17  C   UNL     1      -1.169  10.641  20.560  0.00  0.00    +0.000 A 
ATOM     18  C   UNL     1      -0.145   9.891  21.139  0.00  0.00    +0.000 A 
ATOM     19 BR   UNL     1      -0.142   9.605  23.008  0.00  0.00    +0.000 Br
ATOM     20  C   UNL     1       0.872   9.352  20.353  0.00  0.00    +0.000 A 
ENDBRANCH   2  14
TORSDOF 2
ENDMDL
MODEL 4
REMARK VINA RESULT:      -6.4      5.792      9.338
REMARK  Name = 
REMARK  3 active torsions:
REMARK  status: ('A' for Active; 'I' for Inactive)
REMARK    1  A    between atoms: C_1  and  C_2
REMARK    2  A    between atoms: N_3  and  N_4
REMARK    3  A    between atoms: C_5  and  C_7
REMARK                            x       y       z     vdW  Elec       q    Type
REMARK                         _______ _______ _______ _____ _____    ______ ____
ROOT
ATOM      1  N   UNL     1       1.581   8.149  20.397  0.00  0.00    +0.000 N 
ATOM      2  C   UNL     1       0.870   9.244  19.932  0.00  0.00    +0.000 C 
ATOM      3  O   UNL     1       0.838   9.639  18.770  0.00  0.00    +0.000 OA
ATOM      4  H   UNL     1       1.410   7.803  21.327  0.00  0.00    +0.000 HD
ENDROOT
BRANCH   1   7
ATOM      5  C   UNL     1       1.785   5.323  20.808  0.00  0.00    +0.000 C 
ATOM      6  C   UNL     1       2.422   6.103  19.666  0.00  0.00    +0.000 C 
ATOM      7  N   UNL     1       2.321   7.398  19.531  0.00  0.00    +0.000 NA
ATOM      8  N   UNL     1       3.157   5.360  18.747  0.00  0.00    +0.000 N 
ATOM      9  C   UNL     1       3.391   3.912  18.811  0.00  0.00    +0.000 C 
ATOM     10  C   UNL     1       4.896   3.625  18.714  0.00  0.00    +0.000 C 
ATOM     11  O   UNL     1       5.461   4.192  17.524  0.00  0.00    +0.000 OA
ATOM     12  C   UNL     1       5.251   5.616  17.495  0.00  0.00    +0.000 C 
ATOM     13  C   UNL     1       3.757   5.969  17.545  0.00  0.00    +0.000 C 
ENDBRANCH   1   7
BRANCH   2  14
ATOM     14  C   UNL     1       0.058   9.961  20.962  0.00  0.00    +0.000 A 
ATOM     15  C   UNL     1       0.045   9.560  22.308  0.00  0.00    +0.000 A 
ATOM     16  C   UNL     1      -0.721  10.261  23.243  0.00  0.00    +0.000 A 
ATOM     17  C   UNL     1      -1.473  11.366  22.843  0.00  0.00    +0.000 A 
ATOM     18  C   UNL     1      -1.446  11.776  21.510  0.00  0.00    +0.000 A 
ATOM     19 BR   UNL     1      -2.459  13.282  20.978  0.00  0.00    +0.000 Br
ATOM     20  C   UNL     1      -0.682  11.087  20.571  0.00  0.00    +0.000 A 
ENDBRANCH   2  14
TORSDOF 2
ENDMDL
MODEL 5
REMARK VINA RESULT:      -6.3      5.626      7.277
REMARK  Name = 
REMARK  3 active torsions:
REMARK  status: ('A' for Active; 'I' for Inactive)
REMARK    1  A    between atoms: C_1  and  C_2
REMARK    2  A    between atoms: N_3  and  N_4
REMARK    3  A    between atoms: C_5  and  C_7
REMARK                            x       y       z     vdW  Elec       q    Type
REMARK                         _______ _______ _______ _____ _____    ______ ____
ROOT
ATOM      1  N   UNL     1       1.847   7.990  19.556  0.00  0.00    +0.000 N 
ATOM      2  C   UNL     1       2.368   7.760  18.292  0.00  0.00    +0.000 C 
ATOM      3  O   UNL     1       2.531   8.607  17.417  0.00  0.00    +0.000 OA
ATOM      4  H   UNL     1       1.911   7.271  20.258  0.00  0.00    +0.000 HD
ENDROOT
BRANCH   1   7
ATOM      5  C   UNL     1      -0.106   8.335  21.620  0.00  0.00    +0.000 C 
ATOM      6  C   UNL     1       0.605   9.455  20.874  0.00  0.00    +0.000 C 
ATOM      7  N   UNL     1       1.475   9.250  19.921  0.00  0.00    +0.000 NA
ATOM      8  N   UNL     1       0.270  10.754  21.247  0.00  0.00    +0.000 N 
ATOM      9  C   UNL     1      -0.724  11.121  22.262  0.00  0.00    +0.000 C 
ATOM     10  C   UNL     1      -1.729  12.118  21.667  0.00  0.00    +0.000 C 
ATOM     11  O   UNL     1      -1.068  13.277  21.142  0.00  0.00    +0.000 OA
ATOM     12  C   UNL     1      -0.121  12.900  20.125  0.00  0.00    +0.000 C 
ATOM     13  C   UNL     1       0.941  11.934  20.671  0.00  0.00    +0.000 C 
ENDBRANCH   1   7
BRANCH   2  14
ATOM     14  C   UNL     1       2.785   6.351  18.020  0.00  0.00    +0.000 A 
ATOM     15  C   UNL     1       4.005   6.045  17.396  0.00  0.00    +0.000 A 
ATOM     16  C   UNL     1       4.364   4.714  17.166  0.00  0.00    +0.000 A 
ATOM     17  C   UNL     1       3.512   3.683  17.562  0.00  0.00    +0.000 A 
ATOM     18  C   UNL     1       2.308   3.986  18.200  0.00  0.00    +0.000 A 
ATOM     19 BR   UNL     1       1.164   2.581  18.743  0.00  0.00    +0.000 Br
ATOM     20  C   UNL     1       1.943   5.309  18.437  0.00  0.00    +0.000 A 
ENDBRANCH   2  14
TORSDOF 2
ENDMDL
MODEL 6
REMARK VINA RESULT:      -6.2      5.787      7.689
REMARK  Name = 
REMARK  3 active torsions:
REMARK  status: ('A' for Active; 'I' for Inactive)
REMARK    1  A    between atoms: C_1  and  C_2
REMARK    2  A    between atoms: N_3  and  N_4
REMARK    3  A    between atoms: C_5  and  C_7
REMARK                            x       y       z     vdW  Elec       q    Type
REMARK                         _______ _______ _______ _____ _____    ______ ____
ROOT
ATOM      1  N   UNL     1       1.727   7.839  19.530  0.00  0.00    +0.000 N 
ATOM      2  C   UNL     1       2.539   7.342  18.521  0.00  0.00    +0.000 C 
ATOM      3  O   UNL     1       2.995   7.988  17.582  0.00  0.00    +0.000 OA
ATOM      4  H   UNL     1       1.545   7.277  20.345  0.00  0.00    +0.000 HD
ENDROOT
BRANCH   1   7
ATOM      5  C   UNL     1      -0.132   8.791  21.486  0.00  0.00    +0.000 C 
ATOM      6  C   UNL     1       0.554   9.641  20.426  0.00  0.00    +0.000 C 
ATOM      7  N   UNL     1       1.381   9.158  19.537  0.00  0.00    +0.000 NA
ATOM      8  N   UNL     1       0.245  10.998  20.428  0.00  0.00    +0.000 N 
ATOM      9  C   UNL     1      -0.702  11.657  21.336  0.00  0.00    +0.000 C 
ATOM     10  C   UNL     1      -1.725  12.463  20.523  0.00  0.00    +0.000 C 
ATOM     11  O   UNL     1      -1.079  13.413  19.665  0.00  0.00    +0.000 OA
ATOM     12  C   UNL     1      -0.179  12.746  18.760  0.00  0.00    +0.000 C 
ATOM     13  C   UNL     1       0.899  11.954  19.515  0.00  0.00    +0.000 C 
ENDBRANCH   1   7
BRANCH   2  14
ATOM     14  C   UNL     1       2.892   5.895  18.643  0.00  0.00    +0.000 A 
ATOM     15  C   UNL     1       3.655   5.232  17.668  0.00  0.00    +0.000 A 
ATOM     16  C   UNL     1       3.971   3.880  17.822  0.00  0.00    +0.000 A 
ATOM     17  C   UNL     1       3.534   3.184  18.949  0.00  0.00    +0.000 A 
ATOM     18  C   UNL     1       2.792   3.846  19.927  0.00  0.00    +0.000 A 
ATOM     19 BR   UNL     1       2.214   2.898  21.458  0.00  0.00    +0.000 Br
ATOM     20  C   UNL     1       2.475   5.195  19.786  0.00  0.00    +0.000 A 
ENDBRANCH   2  14
TORSDOF 2
ENDMDL
MODEL 7
REMARK VINA RESULT:      -6.2      5.569      7.240
REMARK  Name = 
REMARK  3 active torsions:
REMARK  status: ('A' for Active; 'I' for Inactive)
REMARK    1  A    between atoms: C_1  and  C_2
REMARK    2  A    between atoms: N_3  and  N_4
REMARK    3  A    between atoms: C_5  and  C_7
REMARK                            x       y       z     vdW  Elec       q    Type
REMARK                         _______ _______ _______ _____ _____    ______ ____
ROOT
ATOM      1  N   UNL     1       1.794   8.182  19.472  0.00  0.00    +0.000 N 
ATOM      2  C   UNL     1       2.315   7.978  18.203  0.00  0.00    +0.000 C 
ATOM      3  O   UNL     1       2.436   8.835  17.331  0.00  0.00    +0.000 OA
ATOM      4  H   UNL     1       1.893   7.464  20.171  0.00  0.00    +0.000 HD
ENDROOT
BRANCH   1   7
ATOM      5  C   UNL     1      -0.054   8.445  21.642  0.00  0.00    +0.000 C 
ATOM      6  C   UNL     1       0.548   9.593  20.844  0.00  0.00    +0.000 C 
ATOM      7  N   UNL     1       1.373   9.424  19.845  0.00  0.00    +0.000 NA
ATOM      8  N   UNL     1       0.162  10.876  21.222  0.00  0.00    +0.000 N 
ATOM      9  C   UNL     1      -0.792  11.201  22.290  0.00  0.00    +0.000 C 
ATOM     10  C   UNL     1      -1.884  12.131  21.743  0.00  0.00    +0.000 C 
ATOM     11  O   UNL     1      -1.321  13.318  21.168  0.00  0.00    +0.000 OA
ATOM     12  C   UNL     1      -0.414  12.981  20.102  0.00  0.00    +0.000 C 
ATOM     13  C   UNL     1       0.731  12.084  20.596  0.00  0.00    +0.000 C 
ENDBRANCH   1   7
BRANCH   2  14
ATOM     14  C   UNL     1       2.789   6.589  17.924  0.00  0.00    +0.000 A 
ATOM     15  C   UNL     1       1.963   5.470  18.118  0.00  0.00    +0.000 A 
ATOM     16  C   UNL     1       2.440   4.187  17.838  0.00  0.00    +0.000 A 
ATOM     17  C   UNL     1       3.738   4.013  17.358  0.00  0.00    +0.000 A 
ATOM     18  C   UNL     1       4.553   5.126  17.148  0.00  0.00    +0.000 A 
ATOM     19 BR   UNL     1       6.308   4.883  16.487  0.00  0.00    +0.000 Br
ATOM     20  C   UNL     1       4.086   6.410  17.420  0.00  0.00    +0.000 A 
ENDBRANCH   2  14
TORSDOF 2
ENDMDL
MODEL 8
REMARK VINA RESULT:      -6.2      6.234      9.465
REMARK  Name = 
REMARK  3 active torsions:
REMARK  status: ('A' for Active; 'I' for Inactive)
REMARK    1  A    between atoms: C_1  and  C_2
REMARK    2  A    between atoms: N_3  and  N_4
REMARK    3  A    between atoms: C_5  and  C_7
REMARK                            x       y       z     vdW  Elec       q    Type
REMARK                         _______ _______ _______ _____ _____    ______ ____
ROOT
ATOM      1  N   UNL     1       1.364   8.376  20.928  0.00  0.00    +0.000 N 
ATOM      2  C   UNL     1       0.209   8.887  21.500  0.00  0.00    +0.000 C 
ATOM      3  O   UNL     1      -0.702   8.225  21.993  0.00  0.00    +0.000 OA
ATOM      4  H   UNL     1       2.126   8.997  20.707  0.00  0.00    +0.000 HD
ENDROOT
BRANCH   1   7
ATOM      5  C   UNL     1       2.579   7.204  18.616  0.00  0.00    +0.000 C 
ATOM      6  C   UNL     1       2.139   6.454  19.866  0.00  0.00    +0.000 C 
ATOM      7  N   UNL     1       1.567   7.028  20.890  0.00  0.00    +0.000 NA
ATOM      8  N   UNL     1       2.363   5.080  19.870  0.00  0.00    +0.000 N 
ATOM      9  C   UNL     1       2.949   4.306  18.768  0.00  0.00    +0.000 C 
ATOM     10  C   UNL     1       2.028   3.130  18.415  0.00  0.00    +0.000 C 
ATOM     11  O   UNL     1       1.776   2.301  19.557  0.00  0.00    +0.000 OA
ATOM     12  C   UNL     1       1.172   3.069  20.614  0.00  0.00    +0.000 C 
ATOM     13  C   UNL     1       2.067   4.239  21.046  0.00  0.00    +0.000 C 
ENDBRANCH   1   7
BRANCH   2  14
ATOM     14  C   UNL     1       0.117  10.378  21.529  0.00  0.00    +0.000 A 
ATOM     15  C   UNL     1       0.964  11.189  20.757  0.00  0.00    +0.000 A 
ATOM     16  C   UNL     1       0.842  12.580  20.805  0.00  0.00    +0.000 A 
ATOM     17  C   UNL     1      -0.127  13.169  21.618  0.00  0.00    +0.000 A 
ATOM     18  C   UNL     1      -0.981  12.363  22.372  0.00  0.00    +0.000 A 
ATOM     19 BR   UNL     1      -2.299  13.169  23.462  0.00  0.00    +0.000 Br
ATOM     20  C   UNL     1      -0.871  10.975  22.327  0.00  0.00    +0.000 A 
ENDBRANCH   2  14
TORSDOF 2
ENDMDL
MODEL 9
REMARK VINA RESULT:      -6.1      5.583      8.434
REMARK  Name = 
REMARK  3 active torsions:
REMARK  status: ('A' for Active; 'I' for Inactive)
REMARK    1  A    between atoms: C_1  and  C_2
REMARK    2  A    between atoms: N_3  and  N_4
REMARK    3  A    between atoms: C_5  and  C_7
REMARK                            x       y       z     vdW  Elec       q    Type
REMARK                         _______ _______ _______ _____ _____    ______ ____
ROOT
ATOM      1  N   UNL     1       1.908   8.478  18.232  0.00  0.00    +0.000 N 
ATOM      2  C   UNL     1       1.768   9.851  18.092  0.00  0.00    +0.000 C 
ATOM      3  O   UNL     1       2.585  10.606  17.571  0.00  0.00    +0.000 OA
ATOM      4  H   UNL     1       1.116   7.924  18.515  0.00  0.00    +0.000 HD
ENDROOT
BRANCH   1   7
ATOM      5  C   UNL     1       2.410   5.756  18.959  0.00  0.00    +0.000 C 
ATOM      6  C   UNL     1       3.282   6.607  18.046  0.00  0.00    +0.000 C 
ATOM      7  N   UNL     1       3.025   7.855  17.759  0.00  0.00    +0.000 NA
ATOM      8  N   UNL     1       4.413   5.988  17.521  0.00  0.00    +0.000 N 
ATOM      9  C   UNL     1       4.843   4.613  17.803  0.00  0.00    +0.000 C 
ATOM     10  C   UNL     1       6.305   4.612  18.272  0.00  0.00    +0.000 C 
ATOM     11  O   UNL     1       7.163   5.239  17.310  0.00  0.00    +0.000 OA
ATOM     12  C   UNL     1       6.746   6.597  17.071  0.00  0.00    +0.000 C 
ATOM     13  C   UNL     1       5.301   6.662  16.556  0.00  0.00    +0.000 C 
ENDBRANCH   1   7
BRANCH   2  14
ATOM     14  C   UNL     1       0.483  10.416  18.603  0.00  0.00    +0.000 A 
ATOM     15  C   UNL     1       0.439  11.274  19.714  0.00  0.00    +0.000 A 
ATOM     16  C   UNL     1      -0.782  11.790  20.157  0.00  0.00    +0.000 A 
ATOM     17  C   UNL     1      -1.963  11.456  19.493  0.00  0.00    +0.000 A 
ATOM     18  C   UNL     1      -1.918  10.618  18.379  0.00  0.00    +0.000 A 
ATOM     19 BR   UNL     1      -3.523  10.181  17.478  0.00  0.00    +0.000 Br
ATOM     20  C   UNL     1      -0.705  10.103  17.926  0.00  0.00    +0.000 A 
ENDBRANCH   2  14
TORSDOF 2
ENDMDL
