MODEL 1
REMARK VINA RESULT:      -7.5      0.000      0.000
REMARK  Name = 
REMARK  10 active torsions:
REMARK  status: ('A' for Active; 'I' for Inactive)
REMARK    1  A    between atoms: C_1  and  O_2
REMARK    2  A    between atoms: O_2  and  C_3
REMARK    3  A    between atoms: C_3  and  C_5
REMARK    4  A    between atoms: C_8  and  O_9
REMARK    5  A    between atoms: O_9  and  C_10
REMARK    6  A    between atoms: C_11  and  C_12
REMARK    7  A    between atoms: C_12  and  C_13
REMARK    8  A    between atoms: C_13  and  C_14
REMARK    9  A    between atoms: C_14  and  N_15
REMARK   10  A    between atoms: C_24  and  O_25
REMARK                            x       y       z     vdW  Elec       q    Type
REMARK                         _______ _______ _______ _____ _____    ______ ____
ROOT
ATOM      1  C   UNL     1       1.941   8.023  17.835  0.00  0.00    +0.000 C 
ENDROOT
BRANCH   1   2
ATOM      2  C   UNL     1       3.267   7.229  17.922  0.00  0.00    +0.000 C 
BRANCH   2   7
ATOM      3  C   UNL     1       2.092   3.603  18.358  0.00  0.00    +0.000 A 
ATOM      4  C   UNL     1       3.071   2.877  17.684  0.00  0.00    +0.000 A 
ATOM      5  C   UNL     1       4.139   3.537  17.085  0.00  0.00    +0.000 A 
ATOM      6  C   UNL     1       4.272   4.936  17.158  0.00  0.00    +0.000 A 
ATOM      7  C   UNL     1       3.279   5.705  17.800  0.00  0.00    +0.000 A 
ATOM      8  C   UNL     1       2.192   5.011  18.398  0.00  0.00    +0.000 A 
BRANCH   3   9
ATOM      9  C   UNL     1       0.950   2.913  19.025  0.00  0.00    +0.000 C 
ATOM     10  O   UNL     1       0.252   2.069  18.486  0.00  0.00    +0.000 OA
BRANCH   9  12
ATOM     11  C   UNL     1       1.616   2.735  21.285  0.00  0.00    +0.000 C 
ATOM     12  O   UNL     1       0.809   3.375  20.295  0.00  0.00    +0.000 OA
ENDBRANCH   9  12
ENDBRANCH   3   9
BRANCH   6  13
ATOM     13  O   UNL     1       5.325   5.580  16.572  0.00  0.00    +0.000 OA
ATOM     14  C   UNL     1       6.601   5.357  17.173  0.00  0.00    +0.000 C 
ENDBRANCH   6  13
ENDBRANCH   2   7
ENDBRANCH   1   2
BRANCH   1  15
ATOM     15  C   UNL     1       2.160   9.557  17.909  0.00  0.00    +0.000 C 
BRANCH  15  16
ATOM     16  N   UNL     1       1.607  10.265  19.086  0.00  0.00    +0.000 N 
ATOM     17  C   UNL     1       0.518   9.666  19.705  0.00  0.00    +0.000 A 
ATOM     18  N   UNL     1      -0.573  10.332  19.397  0.00  0.00    +0.000 NA
ATOM     19  C   UNL     1      -0.125  11.550  18.926  0.00  0.00    +0.000 A 
ATOM     20  C   UNL     1       1.237  11.601  19.114  0.00  0.00    +0.000 A 
ATOM     21  N   UNL     1       1.972  12.619  19.664  0.00  0.00    +0.000 N 
ATOM     22  C   UNL     1       1.327  13.697  20.259  0.00  0.00    +0.000 C 
ATOM     23  N   UNL     1       0.270  14.364  19.948  0.00  0.00    +0.000 NA
ATOM     24  C   UNL     1      -0.360  14.057  18.656  0.00  0.00    +0.000 C 
ATOM     25  C   UNL     1      -1.035  12.674  18.550  0.00  0.00    +0.000 C 
ATOM     26  H   UNL     1       2.796  12.329  20.188  0.00  0.00    +0.000 HD
BRANCH  25  27
ATOM     27  O   UNL     1      -1.466  12.524  17.181  0.00  0.00    +0.000 OA
ATOM     28  H   UNL     1      -1.465  11.566  16.994  0.00  0.00    +0.000 HD
ENDBRANCH  25  27
ENDBRANCH  15  16
ENDBRANCH   1  15
TORSDOF 8
ENDMDL
MODEL 2
REMARK VINA RESULT:      -7.4      4.800      7.530
REMARK  Name = 
REMARK  10 active torsions:
REMARK  status: ('A' for Active; 'I' for Inactive)
REMARK    1  A    between atoms: C_1  and  O_2
REMARK    2  A    between atoms: O_2  and  C_3
REMARK    3  A    between atoms: C_3  and  C_5
REMARK    4  A    between atoms: C_8  and  O_9
REMARK    5  A    between atoms: O_9  and  C_10
REMARK    6  A    between atoms: C_11  and  C_12
REMARK    7  A    between atoms: C_12  and  C_13
REMARK    8  A    between atoms: C_13  and  C_14
REMARK    9  A    between atoms: C_14  and  N_15
REMARK   10  A    between atoms: C_24  and  O_25
REMARK                            x       y       z     vdW  Elec       q    Type
REMARK                         _______ _______ _______ _____ _____    ______ ____
ROOT
ATOM      1  C   UNL     1       2.940   6.890  17.501  0.00  0.00    +0.000 C 
ENDROOT
BRANCH   1   2
ATOM      2  C   UNL     1       4.422   7.211  17.190  0.00  0.00    +0.000 C 
BRANCH   2   7
ATOM      3  C   UNL     1       6.240   4.701  14.928  0.00  0.00    +0.000 A 
ATOM      4  C   UNL     1       7.132   4.086  15.801  0.00  0.00    +0.000 A 
ATOM      5  C   UNL     1       7.161   4.455  17.142  0.00  0.00    +0.000 A 
ATOM      6  C   UNL     1       6.287   5.434  17.653  0.00  0.00    +0.000 A 
ATOM      7  C   UNL     1       5.397   6.103  16.788  0.00  0.00    +0.000 A 
ATOM      8  C   UNL     1       5.390   5.716  15.421  0.00  0.00    +0.000 A 
BRANCH   3   9
ATOM      9  C   UNL     1       6.179   4.305  13.490  0.00  0.00    +0.000 C 
ATOM     10  O   UNL     1       7.110   4.418  12.710  0.00  0.00    +0.000 OA
BRANCH   9  12
ATOM     11  C   UNL     1       4.766   3.328  11.868  0.00  0.00    +0.000 C 
ATOM     12  O   UNL     1       4.944   3.821  13.197  0.00  0.00    +0.000 OA
ENDBRANCH   9  12
ENDBRANCH   3   9
BRANCH   6  13
ATOM     13  O   UNL     1       6.316   5.791  18.972  0.00  0.00    +0.000 OA
ATOM     14  C   UNL     1       7.591   5.704  19.610  0.00  0.00    +0.000 C 
ENDBRANCH   6  13
ENDBRANCH   2   7
ENDBRANCH   1   2
BRANCH   1  15
ATOM     15  C   UNL     1       2.647   6.849  19.024  0.00  0.00    +0.000 C 
BRANCH  15  16
ATOM     16  N   UNL     1       1.956   5.650  19.549  0.00  0.00    +0.000 N 
ATOM     17  C   UNL     1       2.003   5.470  20.925  0.00  0.00    +0.000 A 
ATOM     18  N   UNL     1       2.854   4.508  21.205  0.00  0.00    +0.000 NA
ATOM     19  C   UNL     1       3.032   3.833  20.014  0.00  0.00    +0.000 A 
ATOM     20  C   UNL     1       2.148   4.353  19.097  0.00  0.00    +0.000 A 
ATOM     21  N   UNL     1       1.306   3.670  18.259  0.00  0.00    +0.000 N 
ATOM     22  C   UNL     1       1.162   2.293  18.392  0.00  0.00    +0.000 C 
ATOM     23  N   UNL     1       1.997   1.346  18.647  0.00  0.00    +0.000 NA
ATOM     24  C   UNL     1       3.422   1.706  18.696  0.00  0.00    +0.000 C 
ATOM     25  C   UNL     1       3.851   2.590  19.885  0.00  0.00    +0.000 C 
ATOM     26  H   UNL     1       0.420   4.130  18.060  0.00  0.00    +0.000 HD
BRANCH  25  27
ATOM     27  O   UNL     1       5.237   2.931  19.673  0.00  0.00    +0.000 OA
ATOM     28  H   UNL     1       5.763   2.192  20.034  0.00  0.00    +0.000 HD
ENDBRANCH  25  27
ENDBRANCH  15  16
ENDBRANCH   1  15
TORSDOF 8
ENDMDL
MODEL 3
REMARK VINA RESULT:      -7.3      3.403      8.340
REMARK  Name = 
REMARK  10 active torsions:
REMARK  status: ('A' for Active; 'I' for Inactive)
REMARK    1  A    between atoms: C_1  and  O_2
REMARK    2  A    between atoms: O_2  and  C_3
REMARK    3  A    between atoms: C_3  and  C_5
REMARK    4  A    between atoms: C_8  and  O_9
REMARK    5  A    between atoms: O_9  and  C_10
REMARK    6  A    between atoms: C_11  and  C_12
REMARK    7  A    between atoms: C_12  and  C_13
REMARK    8  A    between atoms: C_13  and  C_14
REMARK    9  A    between atoms: C_14  and  N_15
REMARK   10  A    between atoms: C_24  and  O_25
REMARK                            x       y       z     vdW  Elec       q    Type
REMARK                         _______ _______ _______ _____ _____    ______ ____
ROOT
ATOM      1  C   UNL     1       2.074   7.381  18.179  0.00  0.00    +0.000 C 
ENDROOT
BRANCH   1   2
ATOM      2  C   UNL     1       1.976   8.924  18.097  0.00  0.00    +0.000 C 
BRANCH   2   7
ATOM      3  C   UNL     1      -1.464  10.621  18.004  0.00  0.00    +0.000 A 
ATOM      4  C   UNL     1      -1.662  10.995  19.331  0.00  0.00    +0.000 A 
ATOM      5  C   UNL     1      -0.686  10.720  20.284  0.00  0.00    +0.000 A 
ATOM      6  C   UNL     1       0.521  10.085  19.938  0.00  0.00    +0.000 A 
ATOM      7  C   UNL     1       0.737   9.659  18.611  0.00  0.00    +0.000 A 
ATOM      8  C   UNL     1      -0.276   9.943  17.655  0.00  0.00    +0.000 A 
BRANCH   3   9
ATOM      9  C   UNL     1      -2.489  10.925  16.963  0.00  0.00    +0.000 C 
ATOM     10  O   UNL     1      -2.397  10.588  15.794  0.00  0.00    +0.000 OA
BRANCH   9  12
ATOM     11  C   UNL     1      -4.761  11.559  16.827  0.00  0.00    +0.000 C 
ATOM     12  O   UNL     1      -3.510  11.633  17.513  0.00  0.00    +0.000 OA
ENDBRANCH   9  12
ENDBRANCH   3   9
BRANCH   6  13
ATOM     13  O   UNL     1       1.478   9.820  20.876  0.00  0.00    +0.000 OA
ATOM     14  C   UNL     1       1.181   8.755  21.781  0.00  0.00    +0.000 C 
ENDBRANCH   6  13
ENDBRANCH   2   7
ENDBRANCH   1   2
BRANCH   1  15
ATOM     15  C   UNL     1       3.541   6.879  18.205  0.00  0.00    +0.000 C 
BRANCH  15  16
ATOM     16  N   UNL     1       3.899   5.882  19.239  0.00  0.00    +0.000 N 
ATOM     17  C   UNL     1       5.074   5.174  19.027  0.00  0.00    +0.000 A 
ATOM     18  N   UNL     1       4.777   3.953  18.641  0.00  0.00    +0.000 NA
ATOM     19  C   UNL     1       3.453   3.781  18.992  0.00  0.00    +0.000 A 
ATOM     20  C   UNL     1       3.060   4.885  19.713  0.00  0.00    +0.000 A 
ATOM     21  N   UNL     1       2.382   4.914  20.904  0.00  0.00    +0.000 N 
ATOM     22  C   UNL     1       2.158   3.733  21.603  0.00  0.00    +0.000 C 
ATOM     23  N   UNL     1       1.848   2.540  21.229  0.00  0.00    +0.000 NA
ATOM     24  C   UNL     1       1.533   2.345  19.806  0.00  0.00    +0.000 C 
ATOM     25  C   UNL     1       2.718   2.490  18.830  0.00  0.00    +0.000 C 
ATOM     26  H   UNL     1       2.620   5.686  21.523  0.00  0.00    +0.000 HD
BRANCH  25  27
ATOM     27  O   UNL     1       2.175   2.394  17.497  0.00  0.00    +0.000 OA
ATOM     28  H   UNL     1       2.676   1.691  17.043  0.00  0.00    +0.000 HD
ENDBRANCH  25  27
ENDBRANCH  15  16
ENDBRANCH   1  15
TORSDOF 8
ENDMDL
MODEL 4
REMARK VINA RESULT:      -7.3      1.106      1.530
REMARK  Name = 
REMARK  10 active torsions:
REMARK  status: ('A' for Active; 'I' for Inactive)
REMARK    1  A    between atoms: C_1  and  O_2
REMARK    2  A    between atoms: O_2  and  C_3
REMARK    3  A    between atoms: C_3  and  C_5
REMARK    4  A    between atoms: C_8  and  O_9
REMARK    5  A    between atoms: O_9  and  C_10
REMARK    6  A    between atoms: C_11  and  C_12
REMARK    7  A    between atoms: C_12  and  C_13
REMARK    8  A    between atoms: C_13  and  C_14
REMARK    9  A    between atoms: C_14  and  N_15
REMARK   10  A    between atoms: C_24  and  O_25
REMARK                            x       y       z     vdW  Elec       q    Type
REMARK                         _______ _______ _______ _____ _____    ______ ____
ROOT
ATOM      1  C   UNL     1       2.412   7.794  18.486  0.00  0.00    +0.000 C 
ENDROOT
BRANCH   1   2
ATOM      2  C   UNL     1       3.635   7.613  17.555  0.00  0.00    +0.000 C 
BRANCH   2   7
ATOM      3  C   UNL     1       3.832   3.784  17.417  0.00  0.00    +0.000 A 
ATOM      4  C   UNL     1       5.098   3.557  16.882  0.00  0.00    +0.000 A 
ATOM      5  C   UNL     1       5.923   4.632  16.567  0.00  0.00    +0.000 A 
ATOM      6  C   UNL     1       5.516   5.961  16.793  0.00  0.00    +0.000 A 
ATOM      7  C   UNL     1       4.226   6.226  17.297  0.00  0.00    +0.000 A 
ATOM      8  C   UNL     1       3.398   5.114  17.605  0.00  0.00    +0.000 A 
BRANCH   3   9
ATOM      9  C   UNL     1       2.940   2.644  17.782  0.00  0.00    +0.000 C 
ATOM     10  O   UNL     1       3.338   1.521  18.044  0.00  0.00    +0.000 OA
BRANCH   9  12
ATOM     11  C   UNL     1       0.782   2.432  18.720  0.00  0.00    +0.000 C 
ATOM     12  O   UNL     1       1.643   3.049  17.762  0.00  0.00    +0.000 OA
ENDBRANCH   9  12
ENDBRANCH   3   9
BRANCH   6  13
ATOM     13  O   UNL     1       6.331   7.014  16.484  0.00  0.00    +0.000 OA
ATOM     14  C   UNL     1       7.409   7.250  17.392  0.00  0.00    +0.000 C 
ENDBRANCH   6  13
ENDBRANCH   2   7
ENDBRANCH   1   2
BRANCH   1  15
ATOM     15  C   UNL     1       1.577   9.053  18.135  0.00  0.00    +0.000 C 
BRANCH  15  16
ATOM     16  N   UNL     1       1.247   9.978  19.242  0.00  0.00    +0.000 N 
ATOM     17  C   UNL     1       0.147   9.638  20.018  0.00  0.00    +0.000 A 
ATOM     18  N   UNL     1      -0.861  10.422  19.705  0.00  0.00    +0.000 NA
ATOM     19  C   UNL     1      -0.288  11.488  19.039  0.00  0.00    +0.000 A 
ATOM     20  C   UNL     1       1.079  11.349  19.116  0.00  0.00    +0.000 A 
ATOM     21  N   UNL     1       2.003  12.299  19.464  0.00  0.00    +0.000 N 
ATOM     22  C   UNL     1       1.580  13.531  19.953  0.00  0.00    +0.000 C 
ATOM     23  N   UNL     1       0.606  14.311  19.635  0.00  0.00    +0.000 NA
ATOM     24  C   UNL     1      -0.182  13.948  18.448  0.00  0.00    +0.000 C 
ATOM     25  C   UNL     1      -1.057  12.685  18.583  0.00  0.00    +0.000 C 
ATOM     26  H   UNL     1       2.821  11.952  19.959  0.00  0.00    +0.000 HD
BRANCH  25  27
ATOM     27  O   UNL     1      -1.634  12.436  17.284  0.00  0.00    +0.000 OA
ATOM     28  H   UNL     1      -1.095  12.934  16.641  0.00  0.00    +0.000 HD
ENDBRANCH  25  27
ENDBRANCH  15  16
ENDBRANCH   1  15
TORSDOF 8
ENDMDL
MODEL 5
REMARK VINA RESULT:      -7.2      1.685      1.960
REMARK  Name = 
REMARK  10 active torsions:
REMARK  status: ('A' for Active; 'I' for Inactive)
REMARK    1  A    between atoms: C_1  and  O_2
REMARK    2  A    between atoms: O_2  and  C_3
REMARK    3  A    between atoms: C_3  and  C_5
REMARK    4  A    between atoms: C_8  and  O_9
REMARK    5  A    between atoms: O_9  and  C_10
REMARK    6  A    between atoms: C_11  and  C_12
REMARK    7  A    between atoms: C_12  and  C_13
REMARK    8  A    between atoms: C_13  and  C_14
REMARK    9  A    between atoms: C_14  and  N_15
REMARK   10  A    between atoms: C_24  and  O_25
REMARK                            x       y       z     vdW  Elec       q    Type
REMARK                         _______ _______ _______ _____ _____    ______ ____
ROOT
ATOM      1  C   UNL     1       1.976   8.557  17.640  0.00  0.00    +0.000 C 
ENDROOT
BRANCH   1   2
ATOM      2  C   UNL     1       2.541   7.528  18.649  0.00  0.00    +0.000 C 
BRANCH   2   7
ATOM      3  C   UNL     1       2.226   3.712  18.400  0.00  0.00    +0.000 A 
ATOM      4  C   UNL     1       3.256   3.372  17.527  0.00  0.00    +0.000 A 
ATOM      5  C   UNL     1       4.085   4.362  17.008  0.00  0.00    +0.000 A 
ATOM      6  C   UNL     1       3.922   5.715  17.361  0.00  0.00    +0.000 A 
ATOM      7  C   UNL     1       2.865   6.098  18.212  0.00  0.00    +0.000 A 
ATOM      8  C   UNL     1       2.026   5.072  18.724  0.00  0.00    +0.000 A 
BRANCH   3   9
ATOM      9  C   UNL     1       1.340   2.663  18.984  0.00  0.00    +0.000 C 
ATOM     10  O   UNL     1       0.274   2.321  18.498  0.00  0.00    +0.000 OA
BRANCH   9  12
ATOM     11  C   UNL     1       1.385   2.710  21.346  0.00  0.00    +0.000 C 
ATOM     12  O   UNL     1       1.894   2.173  20.123  0.00  0.00    +0.000 OA
ENDBRANCH   9  12
ENDBRANCH   3   9
BRANCH   6  13
ATOM     13  O   UNL     1       4.740   6.684  16.852  0.00  0.00    +0.000 OA
ATOM     14  C   UNL     1       6.074   6.699  17.361  0.00  0.00    +0.000 C 
ENDBRANCH   6  13
ENDBRANCH   2   7
ENDBRANCH   1   2
BRANCH   1  15
ATOM     15  C   UNL     1       1.591   9.901  18.313  0.00  0.00    +0.000 C 
BRANCH  15  16
ATOM     16  N   UNL     1       0.383   9.909  19.169  0.00  0.00    +0.000 N 
ATOM     17  C   UNL     1      -0.821  10.162  18.526  0.00  0.00    +0.000 A 
ATOM     18  N   UNL     1      -1.208  11.388  18.801  0.00  0.00    +0.000 NA
ATOM     19  C   UNL     1      -0.470  11.752  19.910  0.00  0.00    +0.000 A 
ATOM     20  C   UNL     1       0.232  10.647  20.333  0.00  0.00    +0.000 A 
ATOM     21  N   UNL     1       0.336  10.153  21.607  0.00  0.00    +0.000 N 
ATOM     22  C   UNL     1      -0.447  10.688  22.624  0.00  0.00    +0.000 C 
ATOM     23  N   UNL     1      -0.810  11.891  22.908  0.00  0.00    +0.000 NA
ATOM     24  C   UNL     1      -0.216  12.975  22.113  0.00  0.00    +0.000 C 
ATOM     25  C   UNL     1      -0.656  13.045  20.636  0.00  0.00    +0.000 C 
ATOM     26  H   UNL     1       0.416   9.141  21.678  0.00  0.00    +0.000 HD
BRANCH  25  27
ATOM     27  O   UNL     1       0.133  14.080  20.013  0.00  0.00    +0.000 OA
ATOM     28  H   UNL     1       0.214  13.838  19.072  0.00  0.00    +0.000 HD
ENDBRANCH  25  27
ENDBRANCH  15  16
ENDBRANCH   1  15
TORSDOF 8
ENDMDL
MODEL 6
REMARK VINA RESULT:      -7.2      0.967      3.326
REMARK  Name = 
REMARK  10 active torsions:
REMARK  status: ('A' for Active; 'I' for Inactive)
REMARK    1  A    between atoms: C_1  and  O_2
REMARK    2  A    between atoms: O_2  and  C_3
REMARK    3  A    between atoms: C_3  and  C_5
REMARK    4  A    between atoms: C_8  and  O_9
REMARK    5  A    between atoms: O_9  and  C_10
REMARK    6  A    between atoms: C_11  and  C_12
REMARK    7  A    between atoms: C_12  and  C_13
REMARK    8  A    between atoms: C_13  and  C_14
REMARK    9  A    between atoms: C_14  and  N_15
REMARK   10  A    between atoms: C_24  and  O_25
REMARK                            x       y       z     vdW  Elec       q    Type
REMARK                         _______ _______ _______ _____ _____    ______ ____
ROOT
ATOM      1  C   UNL     1       2.837   8.117  17.977  0.00  0.00    +0.000 C 
ENDROOT
BRANCH   1   2
ATOM      2  C   UNL     1       2.439   6.808  18.701  0.00  0.00    +0.000 C 
BRANCH   2   7
ATOM      3  C   UNL     1       4.649   4.249  16.887  0.00  0.00    +0.000 A 
ATOM      4  C   UNL     1       3.992   3.045  17.129  0.00  0.00    +0.000 A 
ATOM      5  C   UNL     1       2.815   3.031  17.870  0.00  0.00    +0.000 A 
ATOM      6  C   UNL     1       2.250   4.218  18.373  0.00  0.00    +0.000 A 
ATOM      7  C   UNL     1       2.909   5.449  18.180  0.00  0.00    +0.000 A 
ATOM      8  C   UNL     1       4.114   5.440  17.426  0.00  0.00    +0.000 A 
BRANCH   3   9
ATOM      9  C   UNL     1       5.901   4.288  16.076  0.00  0.00    +0.000 C 
ATOM     10  O   UNL     1       6.087   3.621  15.073  0.00  0.00    +0.000 OA
BRANCH   9  12
ATOM     11  C   UNL     1       7.677   4.607  17.602  0.00  0.00    +0.000 C 
ATOM     12  O   UNL     1       6.784   5.159  16.633  0.00  0.00    +0.000 OA
ENDBRANCH   9  12
ENDBRANCH   3   9
BRANCH   6  13
ATOM     13  O   UNL     1       1.091   4.200  19.099  0.00  0.00    +0.000 OA
ATOM     14  C   UNL     1       1.133   3.451  20.314  0.00  0.00    +0.000 C 
ENDBRANCH   6  13
ENDBRANCH   2   7
ENDBRANCH   1   2
BRANCH   1  15
ATOM     15  C   UNL     1       1.648   9.102  17.832  0.00  0.00    +0.000 C 
BRANCH  15  16
ATOM     16  N   UNL     1       1.376  10.010  18.969  0.00  0.00    +0.000 N 
ATOM     17  C   UNL     1       0.343   9.635  19.818  0.00  0.00    +0.000 A 
ATOM     18  N   UNL     1      -0.703  10.397  19.586  0.00  0.00    +0.000 NA
ATOM     19  C   UNL     1      -0.205  11.483  18.893  0.00  0.00    +0.000 A 
ATOM     20  C   UNL     1       1.166  11.377  18.870  0.00  0.00    +0.000 A 
ATOM     21  N   UNL     1       2.090  12.347  19.161  0.00  0.00    +0.000 N 
ATOM     22  C   UNL     1       1.674  13.563  19.692  0.00  0.00    +0.000 C 
ATOM     23  N   UNL     1       0.661  14.321  19.453  0.00  0.00    +0.000 NA
ATOM     24  C   UNL     1      -0.201  13.949  18.322  0.00  0.00    +0.000 C 
ATOM     25  C   UNL     1      -1.034  12.664  18.506  0.00  0.00    +0.000 C 
ATOM     26  H   UNL     1       2.950  12.015  19.592  0.00  0.00    +0.000 HD
BRANCH  25  27
ATOM     27  O   UNL     1      -1.697  12.412  17.250  0.00  0.00    +0.000 OA
ATOM     28  H   UNL     1      -2.160  11.559  17.346  0.00  0.00    +0.000 HD
ENDBRANCH  25  27
ENDBRANCH  15  16
ENDBRANCH   1  15
TORSDOF 8
ENDMDL
MODEL 7
REMARK VINA RESULT:      -7.1      1.714      2.239
REMARK  Name = 
REMARK  10 active torsions:
REMARK  status: ('A' for Active; 'I' for Inactive)
REMARK    1  A    between atoms: C_1  and  O_2
REMARK    2  A    between atoms: O_2  and  C_3
REMARK    3  A    between atoms: C_3  and  C_5
REMARK    4  A    between atoms: C_8  and  O_9
REMARK    5  A    between atoms: O_9  and  C_10
REMARK    6  A    between atoms: C_11  and  C_12
REMARK    7  A    between atoms: C_12  and  C_13
REMARK    8  A    between atoms: C_13  and  C_14
REMARK    9  A    between atoms: C_14  and  N_15
REMARK   10  A    between atoms: C_24  and  O_25
REMARK                            x       y       z     vdW  Elec       q    Type
REMARK                         _______ _______ _______ _____ _____    ______ ____
ROOT
ATOM      1  C   UNL     1       1.807   8.316  17.773  0.00  0.00    +0.000 C 
ENDROOT
BRANCH   1   2
ATOM      2  C   UNL     1       3.130   7.535  17.961  0.00  0.00    +0.000 C 
BRANCH   2   7
ATOM      3  C   UNL     1       2.069   3.864  18.307  0.00  0.00    +0.000 A 
ATOM      4  C   UNL     1       3.039   3.190  17.570  0.00  0.00    +0.000 A 
ATOM      5  C   UNL     1       4.066   3.900  16.956  0.00  0.00    +0.000 A 
ATOM      6  C   UNL     1       4.164   5.299  17.075  0.00  0.00    +0.000 A 
ATOM      7  C   UNL     1       3.177   6.017  17.782  0.00  0.00    +0.000 A 
ATOM      8  C   UNL     1       2.134   5.272  18.395  0.00  0.00    +0.000 A 
BRANCH   3   9
ATOM      9  C   UNL     1       0.972   3.119  18.990  0.00  0.00    +0.000 C 
ATOM     10  O   UNL     1       0.332   2.218  18.474  0.00  0.00    +0.000 OA
BRANCH   9  12
ATOM     11  C   UNL     1       1.504   2.923  21.284  0.00  0.00    +0.000 C 
ATOM     12  O   UNL     1       0.797   3.605  20.247  0.00  0.00    +0.000 OA
ENDBRANCH   9  12
ENDBRANCH   3   9
BRANCH   6  13
ATOM     13  O   UNL     1       5.176   5.993  16.473  0.00  0.00    +0.000 OA
ATOM     14  C   UNL     1       6.005   5.238  15.588  0.00  0.00    +0.000 C 
ENDBRANCH   6  13
ENDBRANCH   2   7
ENDBRANCH   1   2
BRANCH   1  15
ATOM     15  C   UNL     1       1.448   9.184  19.008  0.00  0.00    +0.000 C 
BRANCH  15  16
ATOM     16  N   UNL     1       0.811  10.496  18.753  0.00  0.00    +0.000 N 
ATOM     17  C   UNL     1       1.639  11.606  18.843  0.00  0.00    +0.000 A 
ATOM     18  N   UNL     1       1.385  12.244  19.965  0.00  0.00    +0.000 NA
ATOM     19  C   UNL     1       0.153  11.770  20.370  0.00  0.00    +0.000 A 
ATOM     20  C   UNL     1      -0.339  10.961  19.373  0.00  0.00    +0.000 A 
ATOM     21  N   UNL     1      -1.592  10.976  18.817  0.00  0.00    +0.000 N 
ATOM     22  C   UNL     1      -2.481  11.995  19.141  0.00  0.00    +0.000 C 
ATOM     23  N   UNL     1      -2.746  12.607  20.243  0.00  0.00    +0.000 NA
ATOM     24  C   UNL     1      -2.108  12.095  21.464  0.00  0.00    +0.000 C 
ATOM     25  C   UNL     1      -0.582  12.298  21.560  0.00  0.00    +0.000 C 
ATOM     26  H   UNL     1      -1.635  10.730  17.831  0.00  0.00    +0.000 HD
BRANCH  25  27
ATOM     27  O   UNL     1      -0.144  11.616  22.753  0.00  0.00    +0.000 OA
ATOM     28  H   UNL     1      -0.669  11.982  23.490  0.00  0.00    +0.000 HD
ENDBRANCH  25  27
ENDBRANCH  15  16
ENDBRANCH   1  15
TORSDOF 8
ENDMDL
MODEL 8
REMARK VINA RESULT:      -7.1      1.223      3.565
REMARK  Name = 
REMARK  10 active torsions:
REMARK  status: ('A' for Active; 'I' for Inactive)
REMARK    1  A    between atoms: C_1  and  O_2
REMARK    2  A    between atoms: O_2  and  C_3
REMARK    3  A    between atoms: C_3  and  C_5
REMARK    4  A    between atoms: C_8  and  O_9
REMARK    5  A    between atoms: O_9  and  C_10
REMARK    6  A    between atoms: C_11  and  C_12
REMARK    7  A    between atoms: C_12  and  C_13
REMARK    8  A    between atoms: C_13  and  C_14
REMARK    9  A    between atoms: C_14  and  N_15
REMARK   10  A    between atoms: C_24  and  O_25
REMARK                            x       y       z     vdW  Elec       q    Type
REMARK                         _______ _______ _______ _____ _____    ______ ____
ROOT
ATOM      1  C   UNL     1       2.635   8.251  17.891  0.00  0.00    +0.000 C 
ENDROOT
BRANCH   1   2
ATOM      2  C   UNL     1       2.293   6.794  18.287  0.00  0.00    +0.000 C 
BRANCH   2   7
ATOM      3  C   UNL     1       5.502   4.915  17.342  0.00  0.00    +0.000 A 
ATOM      4  C   UNL     1       5.040   3.628  17.075  0.00  0.00    +0.000 A 
ATOM      5  C   UNL     1       3.683   3.339  17.180  0.00  0.00    +0.000 A 
ATOM      6  C   UNL     1       2.748   4.329  17.535  0.00  0.00    +0.000 A 
ATOM      7  C   UNL     1       3.185   5.632  17.849  0.00  0.00    +0.000 A 
ATOM      8  C   UNL     1       4.576   5.903  17.743  0.00  0.00    +0.000 A 
BRANCH   3   9
ATOM      9  C   UNL     1       6.950   5.250  17.215  0.00  0.00    +0.000 C 
ATOM     10  O   UNL     1       7.706   4.724  16.416  0.00  0.00    +0.000 OA
BRANCH   9  12
ATOM     11  C   UNL     1       7.689   7.464  17.583  0.00  0.00    +0.000 C 
ATOM     12  O   UNL     1       7.284   6.205  18.122  0.00  0.00    +0.000 OA
ENDBRANCH   9  12
ENDBRANCH   3   9
BRANCH   6  13
ATOM     13  O   UNL     1       1.415   4.042  17.633  0.00  0.00    +0.000 OA
ATOM     14  C   UNL     1       1.066   3.040  18.590  0.00  0.00    +0.000 C 
ENDBRANCH   6  13
ENDBRANCH   2   7
ENDBRANCH   1   2
BRANCH   1  15
ATOM     15  C   UNL     1       1.399   9.187  17.941  0.00  0.00    +0.000 C 
BRANCH  15  16
ATOM     16  N   UNL     1       1.289  10.104  19.098  0.00  0.00    +0.000 N 
ATOM     17  C   UNL     1       0.387   9.737  20.087  0.00  0.00    +0.000 A 
ATOM     18  N   UNL     1      -0.682  10.496  19.999  0.00  0.00    +0.000 NA
ATOM     19  C   UNL     1      -0.289  11.576  19.233  0.00  0.00    +0.000 A 
ATOM     20  C   UNL     1       1.066  11.470  19.018  0.00  0.00    +0.000 A 
ATOM     21  N   UNL     1       2.020  12.443  19.168  0.00  0.00    +0.000 N 
ATOM     22  C   UNL     1       1.681  13.663  19.742  0.00  0.00    +0.000 C 
ATOM     23  N   UNL     1       0.643  14.419  19.642  0.00  0.00    +0.000 NA
ATOM     24  C   UNL     1      -0.369  14.038  18.647  0.00  0.00    +0.000 C 
ATOM     25  C   UNL     1      -1.166  12.754  18.956  0.00  0.00    +0.000 C 
ATOM     26  H   UNL     1       2.933  12.115  19.476  0.00  0.00    +0.000 HD
BRANCH  25  27
ATOM     27  O   UNL     1      -1.999  12.491  17.808  0.00  0.00    +0.000 OA
ATOM     28  H   UNL     1      -1.626  13.011  17.071  0.00  0.00    +0.000 HD
ENDBRANCH  25  27
ENDBRANCH  15  16
ENDBRANCH   1  15
TORSDOF 8
ENDMDL
MODEL 9
REMARK VINA RESULT:      -7.1      3.803      8.607
REMARK  Name = 
REMARK  10 active torsions:
REMARK  status: ('A' for Active; 'I' for Inactive)
REMARK    1  A    between atoms: C_1  and  O_2
REMARK    2  A    between atoms: O_2  and  C_3
REMARK    3  A    between atoms: C_3  and  C_5
REMARK    4  A    between atoms: C_8  and  O_9
REMARK    5  A    between atoms: O_9  and  C_10
REMARK    6  A    between atoms: C_11  and  C_12
REMARK    7  A    between atoms: C_12  and  C_13
REMARK    8  A    between atoms: C_13  and  C_14
REMARK    9  A    between atoms: C_14  and  N_15
REMARK   10  A    between atoms: C_24  and  O_25
REMARK                            x       y       z     vdW  Elec       q    Type
REMARK                         _______ _______ _______ _____ _____    ______ ____
ROOT
ATOM      1  C   UNL     1       1.724   8.311  17.847  0.00  0.00    +0.000 C 
ENDROOT
BRANCH   1   2
ATOM      2  C   UNL     1       1.581   9.839  18.050  0.00  0.00    +0.000 C 
BRANCH   2   7
ATOM      3  C   UNL     1      -2.045  11.089  17.936  0.00  0.00    +0.000 A 
ATOM      4  C   UNL     1      -2.268  11.515  19.243  0.00  0.00    +0.000 A 
ATOM      5  C   UNL     1      -1.251  11.421  20.189  0.00  0.00    +0.000 A 
ATOM      6  C   UNL     1       0.020  10.920  19.853  0.00  0.00    +0.000 A 
ATOM      7  C   UNL     1       0.268  10.445  18.548  0.00  0.00    +0.000 A 
ATOM      8  C   UNL     1      -0.786  10.543  17.600  0.00  0.00    +0.000 A 
BRANCH   3   9
ATOM      9  C   UNL     1      -3.115  11.201  16.902  0.00  0.00    +0.000 C 
ATOM     10  O   UNL     1      -4.295  11.378  17.155  0.00  0.00    +0.000 OA
BRANCH   9  12
ATOM     11  C   UNL     1      -3.233  10.138  14.795  0.00  0.00    +0.000 C 
ATOM     12  O   UNL     1      -2.575  11.062  15.663  0.00  0.00    +0.000 OA
ENDBRANCH   9  12
ENDBRANCH   3   9
BRANCH   6  13
ATOM     13  O   UNL     1       1.017  10.833  20.784  0.00  0.00    +0.000 OA
ATOM     14  C   UNL     1       0.914   9.743  21.702  0.00  0.00    +0.000 C 
ENDBRANCH   6  13
ENDBRANCH   2   7
ENDBRANCH   1   2
BRANCH   1  15
ATOM     15  C   UNL     1       3.183   7.820  18.031  0.00  0.00    +0.000 C 
BRANCH  15  16
ATOM     16  N   UNL     1       3.560   6.550  17.370  0.00  0.00    +0.000 N 
ATOM     17  C   UNL     1       2.997   5.395  17.896  0.00  0.00    +0.000 A 
ATOM     18  N   UNL     1       3.908   4.746  18.586  0.00  0.00    +0.000 NA
ATOM     19  C   UNL     1       5.114   5.274  18.167  0.00  0.00    +0.000 A 
ATOM     20  C   UNL     1       4.859   6.132  17.122  0.00  0.00    +0.000 A 
ATOM     21  N   UNL     1       5.497   6.196  15.911  0.00  0.00    +0.000 N 
ATOM     22  C   UNL     1       6.423   5.218  15.563  0.00  0.00    +0.000 C 
ATOM     23  N   UNL     1       7.330   4.594  16.232  0.00  0.00    +0.000 NA
ATOM     24  C   UNL     1       7.573   5.043  17.611  0.00  0.00    +0.000 C 
ATOM     25  C   UNL     1       6.441   4.759  18.619  0.00  0.00    +0.000 C 
ATOM     26  H   UNL     1       4.913   6.467  15.123  0.00  0.00    +0.000 HD
BRANCH  25  27
ATOM     27  O   UNL     1       6.819   5.388  19.860  0.00  0.00    +0.000 OA
ATOM     28  H   UNL     1       7.466   4.795  20.286  0.00  0.00    +0.000 HD
ENDBRANCH  25  27
ENDBRANCH  15  16
ENDBRANCH   1  15
TORSDOF 8
ENDMDL
