MODEL 1
REMARK VINA RESULT:      -8.1      0.000      0.000
REMARK  Name = 
REMARK  6 active torsions:
REMARK  status: ('A' for Active; 'I' for Inactive)
REMARK    1  A    between atoms: C_1  and  C_2
REMARK    2  A    between atoms: N_7  and  C_8
REMARK    3  A    between atoms: C_8  and  C_9
REMARK    4  A    between atoms: C_10  and  O_11
REMARK    5  A    between atoms: C_17  and  C_18
REMARK    6  A    between atoms: C_25  and  C_26
REMARK                            x       y       z     vdW  Elec       q    Type
REMARK                         _______ _______ _______ _____ _____    ______ ____
ROOT
ATOM      1  C   UNL     1       3.965   5.739  18.679  0.00  0.00    +0.000 A 
ATOM      2  C   UNL     1       4.620   5.539  17.453  0.00  0.00    +0.000 A 
ATOM      3  C   UNL     1       4.658   6.530  16.471  0.00  0.00    +0.000 A 
ATOM      4  C   UNL     1       3.968   7.721  16.664  0.00  0.00    +0.000 A 
ATOM      5  C   UNL     1       3.205   7.890  17.818  0.00  0.00    +0.000 A 
ATOM      6  C   UNL     1       2.364   9.088  17.975  0.00  0.00    +0.000 A 
ATOM      7  O   UNL     1       2.401   9.995  17.153  0.00  0.00    +0.000 OA
ATOM      8  C   UNL     1       1.452   9.121  19.150  0.00  0.00    +0.000 A 
ATOM      9  C   UNL     1       1.544   8.124  20.055  0.00  0.00    +0.000 A 
ATOM     10  O   UNL     1       2.443   7.066  19.955  0.00  0.00    +0.000 OA
ATOM     11  C   UNL     1       3.203   6.917  18.816  0.00  0.00    +0.000 A 
ENDROOT
BRANCH   8  12
ATOM     12  C   UNL     1       0.488  10.229  19.277  0.00  0.00    +0.000 A 
ATOM     13  C   UNL     1       0.755  11.296  20.142  0.00  0.00    +0.000 A 
ATOM     14  C   UNL     1      -0.157  12.348  20.270  0.00  0.00    +0.000 A 
ATOM     15  C   UNL     1      -1.338  12.340  19.532  0.00  0.00    +0.000 A 
ATOM     16  C   UNL     1      -1.603  11.281  18.665  0.00  0.00    +0.000 A 
ATOM     17 CL   UNL     1      -3.060  11.276  17.747  0.00  0.00    +0.000 Cl
ATOM     18  C   UNL     1      -0.697  10.226  18.533  0.00  0.00    +0.000 A 
ENDBRANCH   8  12
BRANCH   9  19
ATOM     19  C   UNL     1       0.673   8.042  21.280  0.00  0.00    +0.000 C 
ATOM     20  F   UNL     1       0.574   6.767  21.749  0.00  0.00    +0.000 F 
ATOM     21  F   UNL     1       1.154   8.785  22.306  0.00  0.00    +0.000 F 
ATOM     22  F   UNL     1      -0.597   8.455  21.037  0.00  0.00    +0.000 F 
ENDBRANCH   9  19
BRANCH   2  23
ATOM     23  O   UNL     1       5.256   4.367  17.151  0.00  0.00    +0.000 OA
ATOM     24  H   UNL     1       6.221   4.520  17.253  0.00  0.00    +0.000 HD
ENDBRANCH   2  23
BRANCH   1  25
ATOM     25  C   UNL     1       4.007   4.721  19.815  0.00  0.00    +0.000 C 
BRANCH  25  32
ATOM     26  C   UNL     1       1.661   2.200  18.212  0.00  0.00    +0.000 C 
ATOM     27  C   UNL     1       2.075   3.488  18.947  0.00  0.00    +0.000 C 
ATOM     28  C   UNL     1       1.028   3.860  20.017  0.00  0.00    +0.000 C 
ATOM     29  C   UNL     1       1.066   2.927  21.224  0.00  0.00    +0.000 C 
ATOM     30  C   UNL     1       2.485   2.780  21.758  0.00  0.00    +0.000 C 
ATOM     31  C   UNL     1       3.483   2.453  20.650  0.00  0.00    +0.000 C 
ATOM     32  N   UNL     1       3.459   3.373  19.488  0.00  0.00    +0.000 NA
ENDBRANCH  25  32
ENDBRANCH   1  25
TORSDOF 5
ENDMDL
MODEL 2
REMARK VINA RESULT:      -7.9      0.970      1.301
REMARK  Name = 
REMARK  6 active torsions:
REMARK  status: ('A' for Active; 'I' for Inactive)
REMARK    1  A    between atoms: C_1  and  C_2
REMARK    2  A    between atoms: N_7  and  C_8
REMARK    3  A    between atoms: C_8  and  C_9
REMARK    4  A    between atoms: C_10  and  O_11
REMARK    5  A    between atoms: C_17  and  C_18
REMARK    6  A    between atoms: C_25  and  C_26
REMARK                            x       y       z     vdW  Elec       q    Type
REMARK                         _______ _______ _______ _____ _____    ______ ____
ROOT
ATOM      1  C   UNL     1       3.970   5.728  18.673  0.00  0.00    +0.000 A 
ATOM      2  C   UNL     1       4.624   5.526  17.446  0.00  0.00    +0.000 A 
ATOM      3  C   UNL     1       4.669   6.519  16.466  0.00  0.00    +0.000 A 
ATOM      4  C   UNL     1       3.987   7.714  16.661  0.00  0.00    +0.000 A 
ATOM      5  C   UNL     1       3.224   7.886  17.816  0.00  0.00    +0.000 A 
ATOM      6  C   UNL     1       2.391   9.089  17.975  0.00  0.00    +0.000 A 
ATOM      7  O   UNL     1       2.435   9.997  17.155  0.00  0.00    +0.000 OA
ATOM      8  C   UNL     1       1.480   9.126  19.150  0.00  0.00    +0.000 A 
ATOM      9  C   UNL     1       1.564   8.126  20.053  0.00  0.00    +0.000 A 
ATOM     10  O   UNL     1       2.456   7.063  19.951  0.00  0.00    +0.000 OA
ATOM     11  C   UNL     1       3.216   6.911  18.812  0.00  0.00    +0.000 A 
ENDROOT
BRANCH   8  12
ATOM     12  C   UNL     1       0.523  10.239  19.278  0.00  0.00    +0.000 A 
ATOM     13  C   UNL     1      -0.649  10.250  18.514  0.00  0.00    +0.000 A 
ATOM     14  C   UNL     1      -1.559  11.305  18.629  0.00  0.00    +0.000 A 
ATOM     15  C   UNL     1      -1.303  12.354  19.509  0.00  0.00    +0.000 A 
ATOM     16  C   UNL     1      -0.138  12.343  20.275  0.00  0.00    +0.000 A 
ATOM     17 CL   UNL     1       0.174  13.636  21.368  0.00  0.00    +0.000 Cl
ATOM     18  C   UNL     1       0.776  11.292  20.165  0.00  0.00    +0.000 A 
ENDBRANCH   8  12
BRANCH   9  19
ATOM     19  C   UNL     1       0.693   8.047  21.277  0.00  0.00    +0.000 C 
ATOM     20  F   UNL     1       0.613   6.777  21.764  0.00  0.00    +0.000 F 
ATOM     21  F   UNL     1       1.161   8.812  22.294  0.00  0.00    +0.000 F 
ATOM     22  F   UNL     1      -0.583   8.437  21.027  0.00  0.00    +0.000 F 
ENDBRANCH   9  19
BRANCH   2  23
ATOM     23  O   UNL     1       5.253   4.351  17.142  0.00  0.00    +0.000 OA
ATOM     24  H   UNL     1       4.583   3.751  16.749  0.00  0.00    +0.000 HD
ENDBRANCH   2  23
BRANCH   1  25
ATOM     25  C   UNL     1       4.006   4.708  19.806  0.00  0.00    +0.000 C 
BRANCH  25  32
ATOM     26  C   UNL     1       1.630   2.209  18.212  0.00  0.00    +0.000 C 
ATOM     27  C   UNL     1       2.059   3.490  18.950  0.00  0.00    +0.000 C 
ATOM     28  C   UNL     1       1.023   3.862  20.032  0.00  0.00    +0.000 C 
ATOM     29  C   UNL     1       1.068   2.923  21.233  0.00  0.00    +0.000 C 
ATOM     30  C   UNL     1       2.490   2.765  21.754  0.00  0.00    +0.000 C 
ATOM     31  C   UNL     1       3.477   2.438  20.634  0.00  0.00    +0.000 C 
ATOM     32  N   UNL     1       3.447   3.365  19.477  0.00  0.00    +0.000 NA
ENDBRANCH  25  32
ENDBRANCH   1  25
TORSDOF 5
ENDMDL
MODEL 3
REMARK VINA RESULT:      -6.8      0.583      1.417
REMARK  Name = 
REMARK  6 active torsions:
REMARK  status: ('A' for Active; 'I' for Inactive)
REMARK    1  A    between atoms: C_1  and  C_2
REMARK    2  A    between atoms: N_7  and  C_8
REMARK    3  A    between atoms: C_8  and  C_9
REMARK    4  A    between atoms: C_10  and  O_11
REMARK    5  A    between atoms: C_17  and  C_18
REMARK    6  A    between atoms: C_25  and  C_26
REMARK                            x       y       z     vdW  Elec       q    Type
REMARK                         _______ _______ _______ _____ _____    ______ ____
ROOT
ATOM      1  C   UNL     1       3.708   5.940  18.813  0.00  0.00    +0.000 A 
ATOM      2  C   UNL     1       4.364   5.691  17.596  0.00  0.00    +0.000 A 
ATOM      3  C   UNL     1       4.435   6.654  16.589  0.00  0.00    +0.000 A 
ATOM      4  C   UNL     1       3.779   7.868  16.747  0.00  0.00    +0.000 A 
ATOM      5  C   UNL     1       3.014   8.089  17.892  0.00  0.00    +0.000 A 
ATOM      6  C   UNL     1       2.206   9.314  18.013  0.00  0.00    +0.000 A 
ATOM      7  O   UNL     1       2.274  10.198  17.168  0.00  0.00    +0.000 OA
ATOM      8  C   UNL     1       1.290   9.403  19.181  0.00  0.00    +0.000 A 
ATOM      9  C   UNL     1       1.348   8.427  20.112  0.00  0.00    +0.000 A 
ATOM     10  O   UNL     1       2.217   7.343  20.045  0.00  0.00    +0.000 OA
ATOM     11  C   UNL     1       2.979   7.143  18.915  0.00  0.00    +0.000 A 
ENDROOT
BRANCH   8  12
ATOM     12  C   UNL     1       0.357  10.540  19.273  0.00  0.00    +0.000 A 
ATOM     13  C   UNL     1       0.691  11.662  20.039  0.00  0.00    +0.000 A 
ATOM     14  C   UNL     1      -0.191  12.743  20.134  0.00  0.00    +0.000 A 
ATOM     15  C   UNL     1      -1.410  12.708  19.462  0.00  0.00    +0.000 A 
ATOM     16  C   UNL     1      -1.743  11.594  18.693  0.00  0.00    +0.000 A 
ATOM     17 CL   UNL     1      -3.247  11.555  17.856  0.00  0.00    +0.000 Cl
ATOM     18  C   UNL     1      -0.867  10.510  18.595  0.00  0.00    +0.000 A 
ENDBRANCH   8  12
BRANCH   9  19
ATOM     19  C   UNL     1       0.469   8.402  21.333  0.00  0.00    +0.000 C 
ATOM     20  F   UNL     1       0.377   7.152  21.868  0.00  0.00    +0.000 F 
ATOM     21  F   UNL     1       0.936   9.202  22.322  0.00  0.00    +0.000 F 
ATOM     22  F   UNL     1      -0.803   8.790  21.060  0.00  0.00    +0.000 F 
ENDBRANCH   9  19
BRANCH   2  23
ATOM     23  O   UNL     1       4.969   4.493  17.329  0.00  0.00    +0.000 OA
ATOM     24  H   UNL     1       4.751   3.882  18.065  0.00  0.00    +0.000 HD
ENDBRANCH   2  23
BRANCH   1  25
ATOM     25  C   UNL     1       3.716   4.952  19.975  0.00  0.00    +0.000 C 
BRANCH  25  32
ATOM     26  C   UNL     1       1.295   2.587  21.700  0.00  0.00    +0.000 C 
ATOM     27  C   UNL     1       2.579   3.023  20.972  0.00  0.00    +0.000 C 
ATOM     28  C   UNL     1       3.060   1.914  20.014  0.00  0.00    +0.000 C 
ATOM     29  C   UNL     1       2.174   1.783  18.778  0.00  0.00    +0.000 C 
ATOM     30  C   UNL     1       1.955   3.135  18.114  0.00  0.00    +0.000 C 
ATOM     31  C   UNL     1       1.521   4.202  19.117  0.00  0.00    +0.000 C 
ATOM     32  N   UNL     1       2.395   4.343  20.306  0.00  0.00    +0.000 NA
ENDBRANCH  25  32
ENDBRANCH   1  25
TORSDOF 5
ENDMDL
MODEL 4
REMARK VINA RESULT:      -6.7      5.244      9.715
REMARK  Name = 
REMARK  6 active torsions:
REMARK  status: ('A' for Active; 'I' for Inactive)
REMARK    1  A    between atoms: C_1  and  C_2
REMARK    2  A    between atoms: N_7  and  C_8
REMARK    3  A    between atoms: C_8  and  C_9
REMARK    4  A    between atoms: C_10  and  O_11
REMARK    5  A    between atoms: C_17  and  C_18
REMARK    6  A    between atoms: C_25  and  C_26
REMARK                            x       y       z     vdW  Elec       q    Type
REMARK                         _______ _______ _______ _____ _____    ______ ____
ROOT
ATOM      1  C   UNL     1      -3.885  14.190  21.545  0.00  0.00    +0.000 A 
ATOM      2  C   UNL     1      -3.783  14.707  22.847  0.00  0.00    +0.000 A 
ATOM      3  C   UNL     1      -2.617  14.572  23.601  0.00  0.00    +0.000 A 
ATOM      4  C   UNL     1      -1.548  13.841  23.096  0.00  0.00    +0.000 A 
ATOM      5  C   UNL     1      -1.674  13.209  21.859  0.00  0.00    +0.000 A 
ATOM      6  C   UNL     1      -0.605  12.323  21.372  0.00  0.00    +0.000 A 
ATOM      7  O   UNL     1       0.448  12.211  21.988  0.00  0.00    +0.000 OA
ATOM      8  C   UNL     1      -0.880  11.555  20.129  0.00  0.00    +0.000 A 
ATOM      9  C   UNL     1      -2.027  11.811  19.464  0.00  0.00    +0.000 A 
ATOM     10  O   UNL     1      -2.966  12.752  19.872  0.00  0.00    +0.000 OA
ATOM     11  C   UNL     1      -2.824  13.382  21.089  0.00  0.00    +0.000 A 
ENDROOT
BRANCH   8  12
ATOM     12  C   UNL     1       0.098  10.550  19.677  0.00  0.00    +0.000 A 
ATOM     13  C   UNL     1       0.840  10.766  18.511  0.00  0.00    +0.000 A 
ATOM     14  C   UNL     1       1.767   9.815  18.075  0.00  0.00    +0.000 A 
ATOM     15  C   UNL     1       1.958   8.643  18.803  0.00  0.00    +0.000 A 
ATOM     16  C   UNL     1       1.223   8.428  19.969  0.00  0.00    +0.000 A 
ATOM     17 CL   UNL     1       1.465   6.982  20.872  0.00  0.00    +0.000 Cl
ATOM     18  C   UNL     1       0.294   9.373  20.410  0.00  0.00    +0.000 A 
ENDBRANCH   8  12
BRANCH   9  19
ATOM     19  C   UNL     1      -2.421  11.096  18.200  0.00  0.00    +0.000 C 
ATOM     20  F   UNL     1      -2.181   9.757  18.276  0.00  0.00    +0.000 F 
ATOM     21  F   UNL     1      -3.742  11.227  17.923  0.00  0.00    +0.000 F 
ATOM     22  F   UNL     1      -1.731  11.542  17.119  0.00  0.00    +0.000 F 
ENDBRANCH   9  19
BRANCH   2  23
ATOM     23  O   UNL     1      -4.816  15.372  23.448  0.00  0.00    +0.000 OA
ATOM     24  H   UNL     1      -5.042  14.885  24.269  0.00  0.00    +0.000 HD
ENDBRANCH   2  23
BRANCH   1  25
ATOM     25  C   UNL     1      -5.101  14.425  20.655  0.00  0.00    +0.000 C 
BRANCH  25  32
ATOM     26  C   UNL     1      -7.477  12.131  22.532  0.00  0.00    +0.000 C 
ATOM     27  C   UNL     1      -6.333  12.517  21.576  0.00  0.00    +0.000 C 
ATOM     28  C   UNL     1      -6.311  11.578  20.352  0.00  0.00    +0.000 C 
ATOM     29  C   UNL     1      -7.465  11.843  19.390  0.00  0.00    +0.000 C 
ATOM     30  C   UNL     1      -7.562  13.323  19.044  0.00  0.00    +0.000 C 
ATOM     31  C   UNL     1      -7.538  14.205  20.291  0.00  0.00    +0.000 C 
ATOM     32  N   UNL     1      -6.404  13.961  21.214  0.00  0.00    +0.000 NA
ENDBRANCH  25  32
ENDBRANCH   1  25
TORSDOF 5
ENDMDL
MODEL 5
REMARK VINA RESULT:      -6.7      1.844      2.522
REMARK  Name = 
REMARK  6 active torsions:
REMARK  status: ('A' for Active; 'I' for Inactive)
REMARK    1  A    between atoms: C_1  and  C_2
REMARK    2  A    between atoms: N_7  and  C_8
REMARK    3  A    between atoms: C_8  and  C_9
REMARK    4  A    between atoms: C_10  and  O_11
REMARK    5  A    between atoms: C_17  and  C_18
REMARK    6  A    between atoms: C_25  and  C_26
REMARK                            x       y       z     vdW  Elec       q    Type
REMARK                         _______ _______ _______ _____ _____    ______ ____
ROOT
ATOM      1  C   UNL     1       2.219   7.352  19.394  0.00  0.00    +0.000 A 
ATOM      2  C   UNL     1       2.711   7.325  18.079  0.00  0.00    +0.000 A 
ATOM      3  C   UNL     1       2.750   8.473  17.286  0.00  0.00    +0.000 A 
ATOM      4  C   UNL     1       2.220   9.664  17.767  0.00  0.00    +0.000 A 
ATOM      5  C   UNL     1       1.610   9.684  19.021  0.00  0.00    +0.000 A 
ATOM      6  C   UNL     1       0.928  10.902  19.488  0.00  0.00    +0.000 A 
ATOM      7  O   UNL     1       0.975  11.938  18.836  0.00  0.00    +0.000 OA
ATOM      8  C   UNL     1       0.159  10.799  20.757  0.00  0.00    +0.000 A 
ATOM      9  C   UNL     1       0.239   9.647  21.457  0.00  0.00    +0.000 A 
ATOM     10  O   UNL     1       1.000   8.551  21.063  0.00  0.00    +0.000 OA
ATOM     11  C   UNL     1       1.610   8.548  19.828  0.00  0.00    +0.000 A 
ENDROOT
BRANCH   8  12
ATOM     12  C   UNL     1      -0.658  11.945  21.194  0.00  0.00    +0.000 A 
ATOM     13  C   UNL     1      -0.127  12.887  22.082  0.00  0.00    +0.000 A 
ATOM     14  C   UNL     1      -0.898  13.975  22.504  0.00  0.00    +0.000 A 
ATOM     15  C   UNL     1      -2.202  14.127  22.038  0.00  0.00    +0.000 A 
ATOM     16  C   UNL     1      -2.731  13.192  21.149  0.00  0.00    +0.000 A 
ATOM     17 CL   UNL     1      -4.340  13.385  20.569  0.00  0.00    +0.000 Cl
ATOM     18  C   UNL     1      -1.967  12.102  20.724  0.00  0.00    +0.000 A 
ENDBRANCH   8  12
BRANCH   9  19
ATOM     19  C   UNL     1      -0.497   9.418  22.750  0.00  0.00    +0.000 C 
ATOM     20  F   UNL     1       0.339   9.462  23.825  0.00  0.00    +0.000 F 
ATOM     21  F   UNL     1      -1.450  10.356  22.974  0.00  0.00    +0.000 F 
ATOM     22  F   UNL     1      -1.101   8.203  22.791  0.00  0.00    +0.000 F 
ENDBRANCH   9  19
BRANCH   2  23
ATOM     23  O   UNL     1       3.178   6.177  17.501  0.00  0.00    +0.000 OA
ATOM     24  H   UNL     1       2.842   5.422  18.031  0.00  0.00    +0.000 HD
ENDBRANCH   2  23
BRANCH   1  25
ATOM     25  C   UNL     1       2.273   6.143  20.323  0.00  0.00    +0.000 C 
BRANCH  25  32
ATOM     26  C   UNL     1       1.751   3.086  18.130  0.00  0.00    +0.000 C 
ATOM     27  C   UNL     1       1.396   4.170  19.163  0.00  0.00    +0.000 C 
ATOM     28  C   UNL     1       0.515   3.581  20.284  0.00  0.00    +0.000 C 
ATOM     29  C   UNL     1       1.295   2.667  21.223  0.00  0.00    +0.000 C 
ATOM     30  C   UNL     1       2.568   3.344  21.715  0.00  0.00    +0.000 C 
ATOM     31  C   UNL     1       3.377   3.944  20.568  0.00  0.00    +0.000 C 
ATOM     32  N   UNL     1       2.622   4.849  19.669  0.00  0.00    +0.000 NA
ENDBRANCH  25  32
ENDBRANCH   1  25
TORSDOF 5
ENDMDL
MODEL 6
REMARK VINA RESULT:      -6.7      4.999      9.525
REMARK  Name = 
REMARK  6 active torsions:
REMARK  status: ('A' for Active; 'I' for Inactive)
REMARK    1  A    between atoms: C_1  and  C_2
REMARK    2  A    between atoms: N_7  and  C_8
REMARK    3  A    between atoms: C_8  and  C_9
REMARK    4  A    between atoms: C_10  and  O_11
REMARK    5  A    between atoms: C_17  and  C_18
REMARK    6  A    between atoms: C_25  and  C_26
REMARK                            x       y       z     vdW  Elec       q    Type
REMARK                         _______ _______ _______ _____ _____    ______ ____
ROOT
ATOM      1  C   UNL     1      -3.112  14.175  21.398  0.00  0.00    +0.000 A 
ATOM      2  C   UNL     1      -2.828  14.844  22.600  0.00  0.00    +0.000 A 
ATOM      3  C   UNL     1      -1.570  14.774  23.200  0.00  0.00    +0.000 A 
ATOM      4  C   UNL     1      -0.586  13.962  22.649  0.00  0.00    +0.000 A 
ATOM      5  C   UNL     1      -0.886  13.187  21.529  0.00  0.00    +0.000 A 
ATOM      6  C   UNL     1       0.101  12.224  21.014  0.00  0.00    +0.000 A 
ATOM      7  O   UNL     1       1.227  12.162  21.491  0.00  0.00    +0.000 OA
ATOM      8  C   UNL     1      -0.349  11.317  19.924  0.00  0.00    +0.000 A 
ATOM      9  C   UNL     1      -1.575  11.517  19.395  0.00  0.00    +0.000 A 
ATOM     10  O   UNL     1      -2.442  12.523  19.807  0.00  0.00    +0.000 OA
ATOM     11  C   UNL     1      -2.129  13.292  20.906  0.00  0.00    +0.000 A 
ENDROOT
BRANCH   8  12
ATOM     12  C   UNL     1       0.551  10.241  19.472  0.00  0.00    +0.000 A 
ATOM     13  C   UNL     1       1.291  10.393  18.294  0.00  0.00    +0.000 A 
ATOM     14  C   UNL     1       2.143   9.375  17.858  0.00  0.00    +0.000 A 
ATOM     15  C   UNL     1       2.262   8.200  18.597  0.00  0.00    +0.000 A 
ATOM     16  C   UNL     1       1.530   8.049  19.774  0.00  0.00    +0.000 A 
ATOM     17 CL   UNL     1       1.683   6.600  20.692  0.00  0.00    +0.000 Cl
ATOM     18  C   UNL     1       0.675   9.062  20.216  0.00  0.00    +0.000 A 
ENDBRANCH   8  12
BRANCH   9  19
ATOM     19  C   UNL     1      -2.144  10.663  18.294  0.00  0.00    +0.000 C 
ATOM     20  F   UNL     1      -3.459  10.938  18.066  0.00  0.00    +0.000 F 
ATOM     21  F   UNL     1      -1.508  10.853  17.112  0.00  0.00    +0.000 F 
ATOM     22  F   UNL     1      -2.080   9.339  18.584  0.00  0.00    +0.000 F 
ENDBRANCH   9  19
BRANCH   2  23
ATOM     23  O   UNL     1      -3.764  15.602  23.249  0.00  0.00    +0.000 OA
ATOM     24  H   UNL     1      -3.340  15.969  24.054  0.00  0.00    +0.000 HD
ENDBRANCH   2  23
BRANCH   1  25
ATOM     25  C   UNL     1      -4.438  14.329  20.659  0.00  0.00    +0.000 C 
BRANCH  25  32
ATOM     26  C   UNL     1      -6.841  12.707  23.114  0.00  0.00    +0.000 C 
ATOM     27  C   UNL     1      -5.874  12.794  21.919  0.00  0.00    +0.000 C 
ATOM     28  C   UNL     1      -6.353  11.884  20.769  0.00  0.00    +0.000 C 
ATOM     29  C   UNL     1      -7.586  12.436  20.060  0.00  0.00    +0.000 C 
ATOM     30  C   UNL     1      -7.385  13.893  19.666  0.00  0.00    +0.000 C 
ATOM     31  C   UNL     1      -6.871  14.736  20.831  0.00  0.00    +0.000 C 
ATOM     32  N   UNL     1      -5.660  14.209  21.504  0.00  0.00    +0.000 NA
ENDBRANCH  25  32
ENDBRANCH   1  25
TORSDOF 5
ENDMDL
MODEL 7
REMARK VINA RESULT:      -6.6      6.353      8.837
REMARK  Name = 
REMARK  6 active torsions:
REMARK  status: ('A' for Active; 'I' for Inactive)
REMARK    1  A    between atoms: C_1  and  C_2
REMARK    2  A    between atoms: N_7  and  C_8
REMARK    3  A    between atoms: C_8  and  C_9
REMARK    4  A    between atoms: C_10  and  O_11
REMARK    5  A    between atoms: C_17  and  C_18
REMARK    6  A    between atoms: C_25  and  C_26
REMARK                            x       y       z     vdW  Elec       q    Type
REMARK                         _______ _______ _______ _____ _____    ______ ____
ROOT
ATOM      1  C   UNL     1      -2.190  11.447  18.615  0.00  0.00    +0.000 A 
ATOM      2  C   UNL     1      -2.634  10.949  17.380  0.00  0.00    +0.000 A 
ATOM      3  C   UNL     1      -3.930  11.179  16.918  0.00  0.00    +0.000 A 
ATOM      4  C   UNL     1      -4.842  11.850  17.723  0.00  0.00    +0.000 A 
ATOM      5  C   UNL     1      -4.463  12.242  19.007  0.00  0.00    +0.000 A 
ATOM      6  C   UNL     1      -5.455  12.833  19.919  0.00  0.00    +0.000 A 
ATOM      7  O   UNL     1      -6.591  13.085  19.536  0.00  0.00    +0.000 OA
ATOM      8  C   UNL     1      -5.022  13.071  21.322  0.00  0.00    +0.000 A 
ATOM      9  C   UNL     1      -3.726  12.852  21.634  0.00  0.00    +0.000 A 
ATOM     10  O   UNL     1      -2.771  12.419  20.719  0.00  0.00    +0.000 OA
ATOM     11  C   UNL     1      -3.155  12.049  19.449  0.00  0.00    +0.000 A 
ENDROOT
BRANCH   8  12
ATOM     12  C   UNL     1      -6.015  13.527  22.310  0.00  0.00    +0.000 A 
ATOM     13  C   UNL     1      -6.631  12.604  23.163  0.00  0.00    +0.000 A 
ATOM     14  C   UNL     1      -7.577  13.029  24.100  0.00  0.00    +0.000 A 
ATOM     15  C   UNL     1      -7.911  14.379  24.191  0.00  0.00    +0.000 A 
ATOM     16  C   UNL     1      -7.294  15.300  23.346  0.00  0.00    +0.000 A 
ATOM     17 CL   UNL     1      -7.702  16.969  23.464  0.00  0.00    +0.000 Cl
ATOM     18  C   UNL     1      -6.349  14.883  22.406  0.00  0.00    +0.000 A 
ENDBRANCH   8  12
BRANCH   9  19
ATOM     19  C   UNL     1      -3.169  13.050  23.017  0.00  0.00    +0.000 C 
ATOM     20  F   UNL     1      -1.809  12.958  23.036  0.00  0.00    +0.000 F 
ATOM     21  F   UNL     1      -3.472  14.269  23.527  0.00  0.00    +0.000 F 
ATOM     22  F   UNL     1      -3.622  12.118  23.894  0.00  0.00    +0.000 F 
ENDBRANCH   9  19
BRANCH   2  23
ATOM     23  O   UNL     1      -1.824  10.211  16.561  0.00  0.00    +0.000 OA
ATOM     24  H   UNL     1      -1.261   9.647  17.133  0.00  0.00    +0.000 HD
ENDBRANCH   2  23
BRANCH   1  25
ATOM     25  C   UNL     1      -0.748  11.313  19.092  0.00  0.00    +0.000 C 
BRANCH  25  32
ATOM     26  C   UNL     1       2.681  12.628  18.117  0.00  0.00    +0.000 C 
ATOM     27  C   UNL     1       1.580  12.080  19.043  0.00  0.00    +0.000 C 
ATOM     28  C   UNL     1       1.664  12.744  20.433  0.00  0.00    +0.000 C 
ATOM     29  C   UNL     1       1.197  14.196  20.418  0.00  0.00    +0.000 C 
ATOM     30  C   UNL     1      -0.159  14.330  19.738  0.00  0.00    +0.000 C 
ATOM     31  C   UNL     1      -0.195  13.619  18.387  0.00  0.00    +0.000 C 
ATOM     32  N   UNL     1       0.237  12.201  18.409  0.00  0.00    +0.000 NA
ENDBRANCH  25  32
ENDBRANCH   1  25
TORSDOF 5
ENDMDL
MODEL 8
REMARK VINA RESULT:      -6.6      1.136      1.926
REMARK  Name = 
REMARK  6 active torsions:
REMARK  status: ('A' for Active; 'I' for Inactive)
REMARK    1  A    between atoms: C_1  and  C_2
REMARK    2  A    between atoms: N_7  and  C_8
REMARK    3  A    between atoms: C_8  and  C_9
REMARK    4  A    between atoms: C_10  and  O_11
REMARK    5  A    between atoms: C_17  and  C_18
REMARK    6  A    between atoms: C_25  and  C_26
REMARK                            x       y       z     vdW  Elec       q    Type
REMARK                         _______ _______ _______ _____ _____    ______ ____
ROOT
ATOM      1  C   UNL     1       3.737   5.930  18.759  0.00  0.00    +0.000 A 
ATOM      2  C   UNL     1       4.392   5.691  17.540  0.00  0.00    +0.000 A 
ATOM      3  C   UNL     1       4.468   6.665  16.544  0.00  0.00    +0.000 A 
ATOM      4  C   UNL     1       3.816   7.880  16.714  0.00  0.00    +0.000 A 
ATOM      5  C   UNL     1       3.051   8.091  17.861  0.00  0.00    +0.000 A 
ATOM      6  C   UNL     1       2.249   9.318  17.995  0.00  0.00    +0.000 A 
ATOM      7  O   UNL     1       2.320  10.211  17.159  0.00  0.00    +0.000 OA
ATOM      8  C   UNL     1       1.332   9.398  19.163  0.00  0.00    +0.000 A 
ATOM      9  C   UNL     1       1.385   8.412  20.083  0.00  0.00    +0.000 A 
ATOM     10  O   UNL     1       2.250   7.325  20.005  0.00  0.00    +0.000 OA
ATOM     11  C   UNL     1       3.012   7.134  18.873  0.00  0.00    +0.000 A 
ENDROOT
BRANCH   8  12
ATOM     12  C   UNL     1       0.403  10.538  19.267  0.00  0.00    +0.000 A 
ATOM     13  C   UNL     1      -0.804  10.527  18.560  0.00  0.00    +0.000 A 
ATOM     14  C   UNL     1      -1.688  11.606  18.651  0.00  0.00    +0.000 A 
ATOM     15  C   UNL     1      -1.370  12.702  19.451  0.00  0.00    +0.000 A 
ATOM     16  C   UNL     1      -0.169  12.713  20.160  0.00  0.00    +0.000 A 
ATOM     17 CL   UNL     1       0.220  14.064  21.153  0.00  0.00    +0.000 Cl
ATOM     18  C   UNL     1       0.719  11.638  20.072  0.00  0.00    +0.000 A 
ENDBRANCH   8  12
BRANCH   9  19
ATOM     19  C   UNL     1       0.505   8.377  21.303  0.00  0.00    +0.000 C 
ATOM     20  F   UNL     1       0.407   7.121  21.824  0.00  0.00    +0.000 F 
ATOM     21  F   UNL     1       0.975   9.164  22.302  0.00  0.00    +0.000 F 
ATOM     22  F   UNL     1      -0.765   8.774  21.034  0.00  0.00    +0.000 F 
ENDBRANCH   9  19
BRANCH   2  23
ATOM     23  O   UNL     1       4.993   4.494  17.260  0.00  0.00    +0.000 OA
ATOM     24  H   UNL     1       5.597   4.286  18.005  0.00  0.00    +0.000 HD
ENDBRANCH   2  23
BRANCH   1  25
ATOM     25  C   UNL     1       3.739   4.929  19.910  0.00  0.00    +0.000 C 
BRANCH  25  32
ATOM     26  C   UNL     1       1.291   2.618  21.670  0.00  0.00    +0.000 C 
ATOM     27  C   UNL     1       2.583   3.029  20.940  0.00  0.00    +0.000 C 
ATOM     28  C   UNL     1       3.058   1.898  20.005  0.00  0.00    +0.000 C 
ATOM     29  C   UNL     1       2.177   1.750  18.769  0.00  0.00    +0.000 C 
ATOM     30  C   UNL     1       1.971   3.091  18.077  0.00  0.00    +0.000 C 
ATOM     31  C   UNL     1       1.542   4.181  19.058  0.00  0.00    +0.000 C 
ATOM     32  N   UNL     1       2.412   4.337  20.247  0.00  0.00    +0.000 NA
ENDBRANCH  25  32
ENDBRANCH   1  25
TORSDOF 5
ENDMDL
MODEL 9
REMARK VINA RESULT:      -6.5      1.931      2.524
REMARK  Name = 
REMARK  6 active torsions:
REMARK  status: ('A' for Active; 'I' for Inactive)
REMARK    1  A    between atoms: C_1  and  C_2
REMARK    2  A    between atoms: N_7  and  C_8
REMARK    3  A    between atoms: C_8  and  C_9
REMARK    4  A    between atoms: C_10  and  O_11
REMARK    5  A    between atoms: C_17  and  C_18
REMARK    6  A    between atoms: C_25  and  C_26
REMARK                            x       y       z     vdW  Elec       q    Type
REMARK                         _______ _______ _______ _____ _____    ______ ____
ROOT
ATOM      1  C   UNL     1       2.446   7.072  19.291  0.00  0.00    +0.000 A 
ATOM      2  C   UNL     1       2.978   6.988  17.994  0.00  0.00    +0.000 A 
ATOM      3  C   UNL     1       3.042   8.099  17.153  0.00  0.00    +0.000 A 
ATOM      4  C   UNL     1       2.497   9.310  17.564  0.00  0.00    +0.000 A 
ATOM      5  C   UNL     1       1.848   9.384  18.797  0.00  0.00    +0.000 A 
ATOM      6  C   UNL     1       1.151  10.620  19.188  0.00  0.00    +0.000 A 
ATOM      7  O   UNL     1       1.218  11.627  18.493  0.00  0.00    +0.000 OA
ATOM      8  C   UNL     1       0.344  10.571  20.436  0.00  0.00    +0.000 A 
ATOM      9  C   UNL     1       0.402   9.452  21.188  0.00  0.00    +0.000 A 
ATOM     10  O   UNL     1       1.175   8.341  20.867  0.00  0.00    +0.000 OA
ATOM     11  C   UNL     1       1.824   8.284  19.653  0.00  0.00    +0.000 A 
ENDROOT
BRANCH   8  12
ATOM     12  C   UNL     1      -0.487  11.734  20.796  0.00  0.00    +0.000 A 
ATOM     13  C   UNL     1      -1.787  11.852  20.292  0.00  0.00    +0.000 A 
ATOM     14  C   UNL     1      -2.579  12.954  20.627  0.00  0.00    +0.000 A 
ATOM     15  C   UNL     1      -2.076  13.944  21.470  0.00  0.00    +0.000 A 
ATOM     16  C   UNL     1      -0.783  13.825  21.977  0.00  0.00    +0.000 A 
ATOM     17 CL   UNL     1      -0.165  15.045  23.024  0.00  0.00    +0.000 Cl
ATOM     18  C   UNL     1       0.015  12.727  21.646  0.00  0.00    +0.000 A 
ENDBRANCH   8  12
BRANCH   9  19
ATOM     19  C   UNL     1      -0.373   9.279  22.466  0.00  0.00    +0.000 C 
ATOM     20  F   UNL     1      -1.043   8.093  22.499  0.00  0.00    +0.000 F 
ATOM     21  F   UNL     1       0.426   9.292  23.561  0.00  0.00    +0.000 F 
ATOM     22  F   UNL     1      -1.311  10.246  22.635  0.00  0.00    +0.000 F 
ENDBRANCH   9  19
BRANCH   2  23
ATOM     23  O   UNL     1       3.464   5.816  17.483  0.00  0.00    +0.000 OA
ATOM     24  H   UNL     1       3.416   5.141  18.194  0.00  0.00    +0.000 HD
ENDBRANCH   2  23
BRANCH   1  25
ATOM     25  C   UNL     1       2.472   5.905  20.273  0.00  0.00    +0.000 C 
BRANCH  25  32
ATOM     26  C   UNL     1       1.711   2.825  18.184  0.00  0.00    +0.000 C 
ATOM     27  C   UNL     1       1.441   3.971  19.176  0.00  0.00    +0.000 C 
ATOM     28  C   UNL     1       0.508   3.497  20.309  0.00  0.00    +0.000 C 
ATOM     29  C   UNL     1       1.205   2.555  21.287  0.00  0.00    +0.000 C 
ATOM     30  C   UNL     1       2.526   3.142  21.766  0.00  0.00    +0.000 C 
ATOM     31  C   UNL     1       3.389   3.633  20.605  0.00  0.00    +0.000 C 
ATOM     32  N   UNL     1       2.716   4.564  19.668  0.00  0.00    +0.000 NA
ENDBRANCH  25  32
ENDBRANCH   1  25
TORSDOF 5
ENDMDL
