MODEL 1
REMARK VINA RESULT:     -10.1      0.000      0.000
REMARK  Name = 
REMARK  3 active torsions:
REMARK  status: ('A' for Active; 'I' for Inactive)
REMARK    1  A    between atoms: C_10  and  C_11
REMARK    2  A    between atoms: C_11  and  C_12
REMARK    3  A    between atoms: C_14  and  C_15
REMARK                            x       y       z     vdW  Elec       q    Type
REMARK                         _______ _______ _______ _____ _____    ______ ____
ROOT
ATOM      1  C   UNL     1       3.955   4.303  17.452  0.00  0.00    +0.000 C 
ATOM      2  N   UNL     1       4.609   4.338  16.146  0.00  0.00    +0.000 NA
ATOM      3  C   UNL     1       5.769   4.869  15.965  0.00  0.00    +0.000 C 
ATOM      4  C   UNL     1       6.543   5.594  17.013  0.00  0.00    +0.000 A 
ATOM      5  C   UNL     1       7.147   6.814  16.663  0.00  0.00    +0.000 A 
ATOM      6  C   UNL     1       7.900   7.517  17.603  0.00  0.00    +0.000 A 
ATOM      7 CL   UNL     1       8.621   9.016  17.170  0.00  0.00    +0.000 Cl
ATOM      8  C   UNL     1       8.074   7.012  18.887  0.00  0.00    +0.000 A 
ATOM      9  C   UNL     1       7.481   5.801  19.241  0.00  0.00    +0.000 A 
ATOM     10  C   UNL     1       6.680   5.107  18.325  0.00  0.00    +0.000 A 
ATOM     11  N   UNL     1       6.023   3.979  18.821  0.00  0.00    +0.000 N 
ATOM     12  C   UNL     1       4.793   3.517  18.461  0.00  0.00    +0.000 C 
ATOM     13  O   UNL     1       4.347   2.523  19.040  0.00  0.00    +0.000 OA
ATOM     14  H   UNL     1       6.370   3.529  19.659  0.00  0.00    +0.000 HD
ENDROOT
BRANCH   3  15
ATOM     15  C   UNL     1       6.358   4.743  14.587  0.00  0.00    +0.000 A 
ATOM     16  C   UNL     1       5.797   3.830  13.683  0.00  0.00    +0.000 A 
ATOM     17  C   UNL     1       6.345   3.676  12.408  0.00  0.00    +0.000 A 
ATOM     18  C   UNL     1       7.457   4.426  12.031  0.00  0.00    +0.000 A 
ATOM     19  C   UNL     1       8.029   5.325  12.929  0.00  0.00    +0.000 A 
ATOM     20  C   UNL     1       7.487   5.480  14.208  0.00  0.00    +0.000 A 
ENDBRANCH   3  15
BRANCH   1  21
ATOM     21  C   UNL     1       3.487   5.677  17.943  0.00  0.00    +0.000 C 
BRANCH  21  31
ATOM     22  O   UNL     1       2.503   7.614  20.088  0.00  0.00    +0.000 OA
ATOM     23  C   UNL     1       2.177   6.447  19.919  0.00  0.00    +0.000 C 
ATOM     24  N   UNL     1       1.860   5.543  20.925  0.00  0.00    +0.000 N 
ATOM     25  C   UNL     1       1.523   4.305  20.402  0.00  0.00    +0.000 A 
ATOM     26  C   UNL     1       1.163   3.169  21.095  0.00  0.00    +0.000 A 
ATOM     27  C   UNL     1       0.863   2.031  20.342  0.00  0.00    +0.000 A 
ATOM     28  C   UNL     1       0.892   2.065  18.938  0.00  0.00    +0.000 A 
ATOM     29  C   UNL     1       1.235   3.238  18.261  0.00  0.00    +0.000 A 
ATOM     30  C   UNL     1       1.593   4.344  19.013  0.00  0.00    +0.000 A 
ATOM     31  C   UNL     1       2.087   5.695  18.568  0.00  0.00    +0.000 C 
ATOM     32  H   UNL     1       1.866   5.786  21.905  0.00  0.00    +0.000 HD
ENDBRANCH  21  31
ENDBRANCH   1  21
TORSDOF 3
ENDMDL
MODEL 2
REMARK VINA RESULT:      -9.1      7.179     10.043
REMARK  Name = 
REMARK  3 active torsions:
REMARK  status: ('A' for Active; 'I' for Inactive)
REMARK    1  A    between atoms: C_10  and  C_11
REMARK    2  A    between atoms: C_11  and  C_12
REMARK    3  A    between atoms: C_14  and  C_15
REMARK                            x       y       z     vdW  Elec       q    Type
REMARK                         _______ _______ _______ _____ _____    ______ ____
ROOT
ATOM      1  C   UNL     1       0.385  11.765  21.919  0.00  0.00    +0.000 C 
ATOM      2  N   UNL     1       0.924  10.504  21.413  0.00  0.00    +0.000 NA
ATOM      3  C   UNL     1       0.679  10.073  20.223  0.00  0.00    +0.000 C 
ATOM      4  C   UNL     1      -0.244  10.731  19.256  0.00  0.00    +0.000 A 
ATOM      5  C   UNL     1      -1.149   9.919  18.549  0.00  0.00    +0.000 A 
ATOM      6  C   UNL     1      -2.016  10.486  17.617  0.00  0.00    +0.000 A 
ATOM      7 CL   UNL     1      -3.129   9.486  16.769  0.00  0.00    +0.000 Cl
ATOM      8  C   UNL     1      -1.986  11.854  17.365  0.00  0.00    +0.000 A 
ATOM      9  C   UNL     1      -1.091  12.665  18.060  0.00  0.00    +0.000 A 
ATOM     10  C   UNL     1      -0.247  12.120  19.036  0.00  0.00    +0.000 A 
ATOM     11  N   UNL     1       0.511  13.037  19.768  0.00  0.00    +0.000 N 
ATOM     12  C   UNL     1       0.875  12.944  21.078  0.00  0.00    +0.000 C 
ATOM     13  O   UNL     1       1.512  13.876  21.577  0.00  0.00    +0.000 OA
ATOM     14  H   UNL     1       0.678  13.960  19.389  0.00  0.00    +0.000 HD
ENDROOT
BRANCH   3  15
ATOM     15  C   UNL     1       1.382   8.810  19.810  0.00  0.00    +0.000 A 
ATOM     16  C   UNL     1       1.952   8.729  18.532  0.00  0.00    +0.000 A 
ATOM     17  C   UNL     1       2.585   7.555  18.117  0.00  0.00    +0.000 A 
ATOM     18  C   UNL     1       2.647   6.456  18.972  0.00  0.00    +0.000 A 
ATOM     19  C   UNL     1       2.069   6.524  20.239  0.00  0.00    +0.000 A 
ATOM     20  C   UNL     1       1.431   7.695  20.657  0.00  0.00    +0.000 A 
ENDBRANCH   3  15
BRANCH   1  21
ATOM     21  C   UNL     1      -1.128  11.736  22.157  0.00  0.00    +0.000 C 
BRANCH  21  31
ATOM     22  O   UNL     1      -0.936  14.057  24.132  0.00  0.00    +0.000 OA
ATOM     23  C   UNL     1      -1.886  13.741  23.430  0.00  0.00    +0.000 C 
ATOM     24  N   UNL     1      -3.225  13.865  23.779  0.00  0.00    +0.000 N 
ATOM     25  C   UNL     1      -4.055  13.427  22.759  0.00  0.00    +0.000 A 
ATOM     26  C   UNL     1      -5.432  13.392  22.752  0.00  0.00    +0.000 A 
ATOM     27  C   UNL     1      -6.053  12.908  21.598  0.00  0.00    +0.000 A 
ATOM     28  C   UNL     1      -5.295  12.513  20.483  0.00  0.00    +0.000 A 
ATOM     29  C   UNL     1      -3.901  12.583  20.508  0.00  0.00    +0.000 A 
ATOM     30  C   UNL     1      -3.290  13.004  21.677  0.00  0.00    +0.000 A 
ATOM     31  C   UNL     1      -1.827  13.094  22.024  0.00  0.00    +0.000 C 
ATOM     32  H   UNL     1      -3.530  14.242  24.664  0.00  0.00    +0.000 HD
ENDBRANCH  21  31
ENDBRANCH   1  21
TORSDOF 3
ENDMDL
MODEL 3
REMARK VINA RESULT:      -8.8      7.784     11.391
REMARK  Name = 
REMARK  3 active torsions:
REMARK  status: ('A' for Active; 'I' for Inactive)
REMARK    1  A    between atoms: C_10  and  C_11
REMARK    2  A    between atoms: C_11  and  C_12
REMARK    3  A    between atoms: C_14  and  C_15
REMARK                            x       y       z     vdW  Elec       q    Type
REMARK                         _______ _______ _______ _____ _____    ______ ____
ROOT
ATOM      1  C   UNL     1      -0.113  12.774  19.920  0.00  0.00    +0.000 C 
ATOM      2  N   UNL     1      -1.449  12.442  19.430  0.00  0.00    +0.000 NA
ATOM      3  C   UNL     1      -2.516  12.660  20.120  0.00  0.00    +0.000 C 
ATOM      4  C   UNL     1      -2.530  13.174  21.519  0.00  0.00    +0.000 A 
ATOM      5  C   UNL     1      -3.383  12.548  22.445  0.00  0.00    +0.000 A 
ATOM      6  C   UNL     1      -3.448  13.009  23.759  0.00  0.00    +0.000 A 
ATOM      7 CL   UNL     1      -4.483  12.226  24.886  0.00  0.00    +0.000 Cl
ATOM      8  C   UNL     1      -2.684  14.098  24.163  0.00  0.00    +0.000 A 
ATOM      9  C   UNL     1      -1.837  14.726  23.251  0.00  0.00    +0.000 A 
ATOM     10  C   UNL     1      -1.722  14.245  21.941  0.00  0.00    +0.000 A 
ATOM     11  N   UNL     1      -0.747  14.858  21.150  0.00  0.00    +0.000 N 
ATOM     12  C   UNL     1       0.015  14.274  20.182  0.00  0.00    +0.000 C 
ATOM     13  O   UNL     1       0.865  14.963  19.610  0.00  0.00    +0.000 OA
ATOM     14  H   UNL     1      -0.407  15.778  21.401  0.00  0.00    +0.000 HD
ENDROOT
BRANCH   3  15
ATOM     15  C   UNL     1      -3.825  12.358  19.445  0.00  0.00    +0.000 A 
ATOM     16  C   UNL     1      -3.855  11.442  18.385  0.00  0.00    +0.000 A 
ATOM     17  C   UNL     1      -5.055  11.168  17.725  0.00  0.00    +0.000 A 
ATOM     18  C   UNL     1      -6.228  11.809  18.117  0.00  0.00    +0.000 A 
ATOM     19  C   UNL     1      -6.204  12.732  19.161  0.00  0.00    +0.000 A 
ATOM     20  C   UNL     1      -5.005  13.014  19.821  0.00  0.00    +0.000 A 
ENDBRANCH   3  15
BRANCH   1  21
ATOM     21  C   UNL     1       0.358  11.881  21.073  0.00  0.00    +0.000 C 
BRANCH  21  31
ATOM     22  O   UNL     1       0.014   9.966  23.425  0.00  0.00    +0.000 OA
ATOM     23  C   UNL     1       0.352   9.700  22.280  0.00  0.00    +0.000 C 
ATOM     24  N   UNL     1       1.257   8.712  21.914  0.00  0.00    +0.000 N 
ATOM     25  C   UNL     1       1.415   8.659  20.538  0.00  0.00    +0.000 A 
ATOM     26  C   UNL     1       2.231   7.815  19.817  0.00  0.00    +0.000 A 
ATOM     27  C   UNL     1       2.219   7.949  18.426  0.00  0.00    +0.000 A 
ATOM     28  C   UNL     1       1.377   8.880  17.798  0.00  0.00    +0.000 A 
ATOM     29  C   UNL     1       0.539   9.705  18.552  0.00  0.00    +0.000 A 
ATOM     30  C   UNL     1       0.602   9.612  19.932  0.00  0.00    +0.000 A 
ATOM     31  C   UNL     1      -0.103  10.422  20.988  0.00  0.00    +0.000 C 
ATOM     32  H   UNL     1       1.716   8.111  22.582  0.00  0.00    +0.000 HD
ENDBRANCH  21  31
ENDBRANCH   1  21
TORSDOF 3
ENDMDL
MODEL 4
REMARK VINA RESULT:      -8.6      9.614     13.482
REMARK  Name = 
REMARK  3 active torsions:
REMARK  status: ('A' for Active; 'I' for Inactive)
REMARK    1  A    between atoms: C_10  and  C_11
REMARK    2  A    between atoms: C_11  and  C_12
REMARK    3  A    between atoms: C_14  and  C_15
REMARK                            x       y       z     vdW  Elec       q    Type
REMARK                         _______ _______ _______ _____ _____    ______ ____
ROOT
ATOM      1  C   UNL     1      -0.131  13.921  20.978  0.00  0.00    +0.000 C 
ATOM      2  N   UNL     1      -1.342  13.752  21.778  0.00  0.00    +0.000 NA
ATOM      3  C   UNL     1      -2.308  12.977  21.421  0.00  0.00    +0.000 C 
ATOM      4  C   UNL     1      -2.369  12.239  20.127  0.00  0.00    +0.000 A 
ATOM      5  C   UNL     1      -3.580  12.255  19.414  0.00  0.00    +0.000 A 
ATOM      6  C   UNL     1      -3.693  11.560  18.211  0.00  0.00    +0.000 A 
ATOM      7 CL   UNL     1      -5.174  11.599  17.339  0.00  0.00    +0.000 Cl
ATOM      8  C   UNL     1      -2.616  10.835  17.712  0.00  0.00    +0.000 A 
ATOM      9  C   UNL     1      -1.412  10.812  18.414  0.00  0.00    +0.000 A 
ATOM     10  C   UNL     1      -1.266  11.545  19.599  0.00  0.00    +0.000 A 
ATOM     11  N   UNL     1       0.017  11.565  20.149  0.00  0.00    +0.000 N 
ATOM     12  C   UNL     1       0.609  12.592  20.822  0.00  0.00    +0.000 C 
ATOM     13  O   UNL     1       1.774  12.450  21.202  0.00  0.00    +0.000 OA
ATOM     14  H   UNL     1       0.680  10.843  19.896  0.00  0.00    +0.000 HD
ENDROOT
BRANCH   3  15
ATOM     15  C   UNL     1      -3.445  12.830  22.394  0.00  0.00    +0.000 A 
ATOM     16  C   UNL     1      -4.731  13.237  22.013  0.00  0.00    +0.000 A 
ATOM     17  C   UNL     1      -5.796  13.136  22.910  0.00  0.00    +0.000 A 
ATOM     18  C   UNL     1      -5.583  12.634  24.192  0.00  0.00    +0.000 A 
ATOM     19  C   UNL     1      -4.304  12.240  24.583  0.00  0.00    +0.000 A 
ATOM     20  C   UNL     1      -3.234  12.344  23.691  0.00  0.00    +0.000 A 
ENDBRANCH   3  15
BRANCH   1  21
ATOM     21  C   UNL     1      -0.361  14.682  19.668  0.00  0.00    +0.000 C 
BRANCH  21  31
ATOM     22  O   UNL     1      -2.694  16.485  20.461  0.00  0.00    +0.000 OA
ATOM     23  C   UNL     1      -1.771  16.738  19.699  0.00  0.00    +0.000 C 
ATOM     24  N   UNL     1      -1.857  17.526  18.559  0.00  0.00    +0.000 N 
ATOM     25  C   UNL     1      -0.631  17.624  17.920  0.00  0.00    +0.000 A 
ATOM     26  C   UNL     1      -0.339  18.312  16.763  0.00  0.00    +0.000 A 
ATOM     27  C   UNL     1       0.982  18.266  16.309  0.00  0.00    +0.000 A 
ATOM     28  C   UNL     1       1.970  17.579  17.032  0.00  0.00    +0.000 A 
ATOM     29  C   UNL     1       1.651  16.911  18.217  0.00  0.00    +0.000 A 
ATOM     30  C   UNL     1       0.329  16.907  18.627  0.00  0.00    +0.000 A 
ATOM     31  C   UNL     1      -0.318  16.209  19.795  0.00  0.00    +0.000 C 
ATOM     32  H   UNL     1      -2.712  17.972  18.262  0.00  0.00    +0.000 HD
ENDBRANCH  21  31
ENDBRANCH   1  21
TORSDOF 3
ENDMDL
MODEL 5
REMARK VINA RESULT:      -8.6      2.975      7.144
REMARK  Name = 
REMARK  3 active torsions:
REMARK  status: ('A' for Active; 'I' for Inactive)
REMARK    1  A    between atoms: C_10  and  C_11
REMARK    2  A    between atoms: C_11  and  C_12
REMARK    3  A    between atoms: C_14  and  C_15
REMARK                            x       y       z     vdW  Elec       q    Type
REMARK                         _______ _______ _______ _____ _____    ______ ____
ROOT
ATOM      1  C   UNL     1       5.649   6.211  17.287  0.00  0.00    +0.000 C 
ATOM      2  N   UNL     1       4.513   7.044  17.675  0.00  0.00    +0.000 NA
ATOM      3  C   UNL     1       3.506   6.583  18.332  0.00  0.00    +0.000 C 
ATOM      4  C   UNL     1       3.313   5.150  18.694  0.00  0.00    +0.000 A 
ATOM      5  C   UNL     1       2.042   4.583  18.496  0.00  0.00    +0.000 A 
ATOM      6  C   UNL     1       1.809   3.252  18.841  0.00  0.00    +0.000 A 
ATOM      7 CL   UNL     1       0.255   2.564  18.580  0.00  0.00    +0.000 Cl
ATOM      8  C   UNL     1       2.822   2.479  19.397  0.00  0.00    +0.000 A 
ATOM      9  C   UNL     1       4.084   3.034  19.599  0.00  0.00    +0.000 A 
ATOM     10  C   UNL     1       4.351   4.354  19.212  0.00  0.00    +0.000 A 
ATOM     11  N   UNL     1       5.679   4.768  19.331  0.00  0.00    +0.000 N 
ATOM     12  C   UNL     1       6.348   5.635  18.519  0.00  0.00    +0.000 C 
ATOM     13  O   UNL     1       7.541   5.853  18.750  0.00  0.00    +0.000 OA
ATOM     14  H   UNL     1       6.303   4.269  19.954  0.00  0.00    +0.000 HD
ENDROOT
BRANCH   3  15
ATOM     15  C   UNL     1       2.459   7.581  18.745  0.00  0.00    +0.000 A 
ATOM     16  C   UNL     1       1.978   8.499  17.801  0.00  0.00    +0.000 A 
ATOM     17  C   UNL     1       1.027   9.453  18.170  0.00  0.00    +0.000 A 
ATOM     18  C   UNL     1       0.557   9.500  19.481  0.00  0.00    +0.000 A 
ATOM     19  C   UNL     1       1.042   8.599  20.428  0.00  0.00    +0.000 A 
ATOM     20  C   UNL     1       1.997   7.645  20.066  0.00  0.00    +0.000 A 
ENDBRANCH   3  15
BRANCH   1  21
ATOM     21  C   UNL     1       5.315   5.181  16.203  0.00  0.00    +0.000 C 
BRANCH  21  31
ATOM     22  O   UNL     1       8.147   6.315  16.079  0.00  0.00    +0.000 OA
ATOM     23  C   UNL     1       7.587   5.594  15.265  0.00  0.00    +0.000 C 
ATOM     24  N   UNL     1       7.760   5.645  13.887  0.00  0.00    +0.000 N 
ATOM     25  C   UNL     1       6.990   4.688  13.247  0.00  0.00    +0.000 A 
ATOM     26  C   UNL     1       6.898   4.451  11.893  0.00  0.00    +0.000 A 
ATOM     27  C   UNL     1       6.049   3.420  11.481  0.00  0.00    +0.000 A 
ATOM     28  C   UNL     1       5.353   2.641  12.419  0.00  0.00    +0.000 A 
ATOM     29  C   UNL     1       5.483   2.887  13.788  0.00  0.00    +0.000 A 
ATOM     30  C   UNL     1       6.277   3.949  14.186  0.00  0.00    +0.000 A 
ATOM     31  C   UNL     1       6.532   4.501  15.564  0.00  0.00    +0.000 C 
ATOM     32  H   UNL     1       8.386   6.296  13.435  0.00  0.00    +0.000 HD
ENDBRANCH  21  31
ENDBRANCH   1  21
TORSDOF 3
ENDMDL
MODEL 6
REMARK VINA RESULT:      -8.6      9.970     12.932
REMARK  Name = 
REMARK  3 active torsions:
REMARK  status: ('A' for Active; 'I' for Inactive)
REMARK    1  A    between atoms: C_10  and  C_11
REMARK    2  A    between atoms: C_11  and  C_12
REMARK    3  A    between atoms: C_14  and  C_15
REMARK                            x       y       z     vdW  Elec       q    Type
REMARK                         _______ _______ _______ _____ _____    ______ ____
ROOT
ATOM      1  C   UNL     1      -4.768  12.823  22.859  0.00  0.00    +0.000 C 
ATOM      2  N   UNL     1      -3.939  12.259  21.796  0.00  0.00    +0.000 NA
ATOM      3  C   UNL     1      -2.980  12.918  21.240  0.00  0.00    +0.000 C 
ATOM      4  C   UNL     1      -2.654  14.344  21.525  0.00  0.00    +0.000 A 
ATOM      5  C   UNL     1      -2.396  15.194  20.436  0.00  0.00    +0.000 A 
ATOM      6  C   UNL     1      -2.064  16.530  20.654  0.00  0.00    +0.000 A 
ATOM      7 CL   UNL     1      -1.765  17.564  19.314  0.00  0.00    +0.000 Cl
ATOM      8  C   UNL     1      -1.970  17.031  21.948  0.00  0.00    +0.000 A 
ATOM      9  C   UNL     1      -2.222  16.195  23.034  0.00  0.00    +0.000 A 
ATOM     10  C   UNL     1      -2.606  14.863  22.831  0.00  0.00    +0.000 A 
ATOM     11  N   UNL     1      -2.967  14.152  23.978  0.00  0.00    +0.000 N 
ATOM     12  C   UNL     1      -3.919  13.182  24.079  0.00  0.00    +0.000 C 
ATOM     13  O   UNL     1      -4.138  12.689  25.189  0.00  0.00    +0.000 OA
ATOM     14  H   UNL     1      -2.651  14.473  24.884  0.00  0.00    +0.000 HD
ENDROOT
BRANCH   3  15
ATOM     15  C   UNL     1      -2.152  12.173  20.230  0.00  0.00    +0.000 A 
ATOM     16  C   UNL     1      -0.814  11.875  20.525  0.00  0.00    +0.000 A 
ATOM     17  C   UNL     1      -0.019  11.210  19.589  0.00  0.00    +0.000 A 
ATOM     18  C   UNL     1      -0.552  10.843  18.355  0.00  0.00    +0.000 A 
ATOM     19  C   UNL     1      -1.878  11.149  18.049  0.00  0.00    +0.000 A 
ATOM     20  C   UNL     1      -2.676  11.819  18.980  0.00  0.00    +0.000 A 
ENDBRANCH   3  15
BRANCH   1  21
ATOM     21  C   UNL     1      -5.705  13.938  22.383  0.00  0.00    +0.000 C 
BRANCH  21  31
ATOM     22  O   UNL     1      -7.916  12.491  23.913  0.00  0.00    +0.000 OA
ATOM     23  C   UNL     1      -7.601  12.358  22.739  0.00  0.00    +0.000 C 
ATOM     24  N   UNL     1      -7.646  11.170  22.020  0.00  0.00    +0.000 N 
ATOM     25  C   UNL     1      -7.232  11.357  20.711  0.00  0.00    +0.000 A 
ATOM     26  C   UNL     1      -7.138  10.410  19.714  0.00  0.00    +0.000 A 
ATOM     27  C   UNL     1      -6.694  10.842  18.462  0.00  0.00    +0.000 A 
ATOM     28  C   UNL     1      -6.396  12.194  18.229  0.00  0.00    +0.000 A 
ATOM     29  C   UNL     1      -6.524  13.138  19.250  0.00  0.00    +0.000 A 
ATOM     30  C   UNL     1      -6.904  12.694  20.505  0.00  0.00    +0.000 A 
ATOM     31  C   UNL     1      -7.038  13.453  21.799  0.00  0.00    +0.000 C 
ATOM     32  H   UNL     1      -7.959  10.297  22.418  0.00  0.00    +0.000 HD
ENDBRANCH  21  31
ENDBRANCH   1  21
TORSDOF 3
ENDMDL
MODEL 7
REMARK VINA RESULT:      -8.5      8.027     11.350
REMARK  Name = 
REMARK  3 active torsions:
REMARK  status: ('A' for Active; 'I' for Inactive)
REMARK    1  A    between atoms: C_10  and  C_11
REMARK    2  A    between atoms: C_11  and  C_12
REMARK    3  A    between atoms: C_14  and  C_15
REMARK                            x       y       z     vdW  Elec       q    Type
REMARK                         _______ _______ _______ _____ _____    ______ ____
ROOT
ATOM      1  C   UNL     1       0.232  14.545  18.812  0.00  0.00    +0.000 C 
ATOM      2  N   UNL     1      -0.586  13.408  18.397  0.00  0.00    +0.000 NA
ATOM      3  C   UNL     1      -1.614  13.010  19.065  0.00  0.00    +0.000 C 
ATOM      4  C   UNL     1      -2.043  13.576  20.376  0.00  0.00    +0.000 A 
ATOM      5  C   UNL     1      -2.407  12.680  21.396  0.00  0.00    +0.000 A 
ATOM      6  C   UNL     1      -2.838  13.163  22.630  0.00  0.00    +0.000 A 
ATOM      7 CL   UNL     1      -3.266  12.057  23.876  0.00  0.00    +0.000 Cl
ATOM      8  C   UNL     1      -2.927  14.531  22.861  0.00  0.00    +0.000 A 
ATOM      9  C   UNL     1      -2.570  15.427  21.854  0.00  0.00    +0.000 A 
ATOM     10  C   UNL     1      -2.088  14.959  20.625  0.00  0.00    +0.000 A 
ATOM     11  N   UNL     1      -1.630  15.937  19.738  0.00  0.00    +0.000 N 
ATOM     12  C   UNL     1      -0.600  15.828  18.853  0.00  0.00    +0.000 C 
ATOM     13  O   UNL     1      -0.303  16.815  18.174  0.00  0.00    +0.000 OA
ATOM     14  H   UNL     1      -1.939  16.894  19.849  0.00  0.00    +0.000 HD
ENDROOT
BRANCH   3  15
ATOM     15  C   UNL     1      -2.414  11.889  18.463  0.00  0.00    +0.000 A 
ATOM     16  C   UNL     1      -3.811  11.913  18.563  0.00  0.00    +0.000 A 
ATOM     17  C   UNL     1      -4.572  10.868  18.035  0.00  0.00    +0.000 A 
ATOM     18  C   UNL     1      -3.943   9.791  17.412  0.00  0.00    +0.000 A 
ATOM     19  C   UNL     1      -2.552   9.754  17.322  0.00  0.00    +0.000 A 
ATOM     20  C   UNL     1      -1.786  10.795  17.852  0.00  0.00    +0.000 A 
ENDBRANCH   3  15
BRANCH   1  21
ATOM     21  C   UNL     1       1.059  14.281  20.074  0.00  0.00    +0.000 C 
BRANCH  21  31
ATOM     22  O   UNL     1       3.376  14.563  18.106  0.00  0.00    +0.000 OA
ATOM     23  C   UNL     1       2.840  13.536  18.496  0.00  0.00    +0.000 C 
ATOM     24  N   UNL     1       2.647  12.387  17.739  0.00  0.00    +0.000 N 
ATOM     25  C   UNL     1       2.018  11.397  18.477  0.00  0.00    +0.000 A 
ATOM     26  C   UNL     1       1.660  10.135  18.056  0.00  0.00    +0.000 A 
ATOM     27  C   UNL     1       1.033   9.305  18.990  0.00  0.00    +0.000 A 
ATOM     28  C   UNL     1       0.818   9.735  20.309  0.00  0.00    +0.000 A 
ATOM     29  C   UNL     1       1.215  11.011  20.715  0.00  0.00    +0.000 A 
ATOM     30  C   UNL     1       1.778  11.851  19.770  0.00  0.00    +0.000 A 
ATOM     31  C   UNL     1       2.213  13.288  19.891  0.00  0.00    +0.000 C 
ATOM     32  H   UNL     1       2.949  12.303  16.780  0.00  0.00    +0.000 HD
ENDBRANCH  21  31
ENDBRANCH   1  21
TORSDOF 3
ENDMDL
MODEL 8
REMARK VINA RESULT:      -8.4      8.409     10.913
REMARK  Name = 
REMARK  3 active torsions:
REMARK  status: ('A' for Active; 'I' for Inactive)
REMARK    1  A    between atoms: C_10  and  C_11
REMARK    2  A    between atoms: C_11  and  C_12
REMARK    3  A    between atoms: C_14  and  C_15
REMARK                            x       y       z     vdW  Elec       q    Type
REMARK                         _______ _______ _______ _____ _____    ______ ____
ROOT
ATOM      1  C   UNL     1       0.299  12.634  20.609  0.00  0.00    +0.000 C 
ATOM      2  N   UNL     1       1.588  13.159  20.164  0.00  0.00    +0.000 NA
ATOM      3  C   UNL     1       1.749  14.384  19.797  0.00  0.00    +0.000 C 
ATOM      4  C   UNL     1       0.652  15.385  19.680  0.00  0.00    +0.000 A 
ATOM      5  C   UNL     1       0.619  16.199  18.534  0.00  0.00    +0.000 A 
ATOM      6  C   UNL     1      -0.375  17.166  18.392  0.00  0.00    +0.000 A 
ATOM      7 CL   UNL     1      -0.416  18.145  16.979  0.00  0.00    +0.000 Cl
ATOM      8  C   UNL     1      -1.332  17.346  19.385  0.00  0.00    +0.000 A 
ATOM      9  C   UNL     1      -1.305  16.545  20.526  0.00  0.00    +0.000 A 
ATOM     10  C   UNL     1      -0.344  15.536  20.662  0.00  0.00    +0.000 A 
ATOM     11  N   UNL     1      -0.488  14.703  21.774  0.00  0.00    +0.000 N 
ATOM     12  C   UNL     1      -0.191  13.375  21.853  0.00  0.00    +0.000 C 
ATOM     13  O   UNL     1      -0.426  12.784  22.911  0.00  0.00    +0.000 OA
ATOM     14  H   UNL     1      -1.028  15.022  22.569  0.00  0.00    +0.000 HD
ENDROOT
BRANCH   3  15
ATOM     15  C   UNL     1       3.153  14.804  19.459  0.00  0.00    +0.000 A 
ATOM     16  C   UNL     1       3.811  15.726  20.285  0.00  0.00    +0.000 A 
ATOM     17  C   UNL     1       5.104  16.151  19.974  0.00  0.00    +0.000 A 
ATOM     18  C   UNL     1       5.745  15.664  18.836  0.00  0.00    +0.000 A 
ATOM     19  C   UNL     1       5.091  14.758  18.003  0.00  0.00    +0.000 A 
ATOM     20  C   UNL     1       3.795  14.332  18.306  0.00  0.00    +0.000 A 
ENDBRANCH   3  15
BRANCH   1  21
ATOM     21  C   UNL     1      -0.737  12.514  19.487  0.00  0.00    +0.000 C 
BRANCH  21  31
ATOM     22  O   UNL     1       0.895   9.959  19.121  0.00  0.00    +0.000 OA
ATOM     23  C   UNL     1      -0.195  10.233  18.638  0.00  0.00    +0.000 C 
ATOM     24  N   UNL     1      -0.641   9.847  17.380  0.00  0.00    +0.000 N 
ATOM     25  C   UNL     1      -1.924  10.311  17.136  0.00  0.00    +0.000 A 
ATOM     26  C   UNL     1      -2.681  10.131  15.999  0.00  0.00    +0.000 A 
ATOM     27  C   UNL     1      -3.959  10.696  15.987  0.00  0.00    +0.000 A 
ATOM     28  C   UNL     1      -4.455  11.382  17.107  0.00  0.00    +0.000 A 
ATOM     29  C   UNL     1      -3.676  11.527  18.257  0.00  0.00    +0.000 A 
ATOM     30  C   UNL     1      -2.387  11.021  18.240  0.00  0.00    +0.000 A 
ATOM     31  C   UNL     1      -1.303  11.104  19.281  0.00  0.00    +0.000 C 
ATOM     32  H   UNL     1      -0.089   9.287  16.749  0.00  0.00    +0.000 HD
ENDBRANCH  21  31
ENDBRANCH   1  21
TORSDOF 3
ENDMDL
MODEL 9
REMARK VINA RESULT:      -8.4      7.082     10.516
REMARK  Name = 
REMARK  3 active torsions:
REMARK  status: ('A' for Active; 'I' for Inactive)
REMARK    1  A    between atoms: C_10  and  C_11
REMARK    2  A    between atoms: C_11  and  C_12
REMARK    3  A    between atoms: C_14  and  C_15
REMARK                            x       y       z     vdW  Elec       q    Type
REMARK                         _______ _______ _______ _____ _____    ______ ____
ROOT
ATOM      1  C   UNL     1       0.653  12.179  19.182  0.00  0.00    +0.000 C 
ATOM      2  N   UNL     1      -0.710  11.943  18.711  0.00  0.00    +0.000 NA
ATOM      3  C   UNL     1      -1.749  12.255  19.408  0.00  0.00    +0.000 C 
ATOM      4  C   UNL     1      -1.708  12.795  20.796  0.00  0.00    +0.000 A 
ATOM      5  C   UNL     1      -2.596  12.255  21.742  0.00  0.00    +0.000 A 
ATOM      6  C   UNL     1      -2.611  12.744  23.048  0.00  0.00    +0.000 A 
ATOM      7 CL   UNL     1      -3.691  12.065  24.201  0.00  0.00    +0.000 Cl
ATOM      8  C   UNL     1      -1.761  13.778  23.423  0.00  0.00    +0.000 A 
ATOM      9  C   UNL     1      -0.878  14.322  22.490  0.00  0.00    +0.000 A 
ATOM     10  C   UNL     1      -0.815  13.809  21.189  0.00  0.00    +0.000 A 
ATOM     11  N   UNL     1       0.195  14.329  20.376  0.00  0.00    +0.000 N 
ATOM     12  C   UNL     1       0.899  13.670  19.413  0.00  0.00    +0.000 C 
ATOM     13  O   UNL     1       1.793  14.280  18.819  0.00  0.00    +0.000 OA
ATOM     14  H   UNL     1       0.607  15.225  20.606  0.00  0.00    +0.000 HD
ENDROOT
BRANCH   3  15
ATOM     15  C   UNL     1      -3.085  12.042  18.752  0.00  0.00    +0.000 A 
ATOM     16  C   UNL     1      -4.246  12.482  19.402  0.00  0.00    +0.000 A 
ATOM     17  C   UNL     1      -5.500  12.270  18.825  0.00  0.00    +0.000 A 
ATOM     18  C   UNL     1      -5.601  11.612  17.600  0.00  0.00    +0.000 A 
ATOM     19  C   UNL     1      -4.452  11.159  16.955  0.00  0.00    +0.000 A 
ATOM     20  C   UNL     1      -3.196  11.365  17.530  0.00  0.00    +0.000 A 
ENDBRANCH   3  15
BRANCH   1  21
ATOM     21  C   UNL     1       1.067  11.276  20.348  0.00  0.00    +0.000 C 
BRANCH  21  31
ATOM     22  O   UNL     1       0.183   9.640  22.770  0.00  0.00    +0.000 OA
ATOM     23  C   UNL     1       0.651   9.233  21.716  0.00  0.00    +0.000 C 
ATOM     24  N   UNL     1       1.486   8.132  21.574  0.00  0.00    +0.000 N 
ATOM     25  C   UNL     1       1.833   7.930  20.248  0.00  0.00    +0.000 A 
ATOM     26  C   UNL     1       2.649   6.946  19.733  0.00  0.00    +0.000 A 
ATOM     27  C   UNL     1       2.851   6.944  18.350  0.00  0.00    +0.000 A 
ATOM     28  C   UNL     1       2.213   7.885  17.526  0.00  0.00    +0.000 A 
ATOM     29  C   UNL     1       1.371   8.856  18.072  0.00  0.00    +0.000 A 
ATOM     30  C   UNL     1       1.225   8.893  19.449  0.00  0.00    +0.000 A 
ATOM     31  C   UNL     1       0.467   9.865  20.314  0.00  0.00    +0.000 C 
ATOM     32  H   UNL     1       1.777   7.559  22.352  0.00  0.00    +0.000 HD
ENDBRANCH  21  31
ENDBRANCH   1  21
TORSDOF 3
ENDMDL
