MODEL 1
REMARK VINA RESULT:      -8.0      0.000      0.000
REMARK  Name = 
REMARK  4 active torsions:
REMARK  status: ('A' for Active; 'I' for Inactive)
REMARK    1  A    between atoms: O_1  and  C_2
REMARK    2  A    between atoms: C_2  and  C_3
REMARK    3  A    between atoms: N_12  and  C_13
REMARK    4  A    between atoms: C_13  and  C_14
REMARK                            x       y       z     vdW  Elec       q    Type
REMARK                         _______ _______ _______ _____ _____    ______ ____
ROOT
ATOM      1  C   UNL     1       6.843   5.911  16.735  0.00  0.00    +0.000 C 
ATOM      2  C   UNL     1       7.327   5.119  17.951  0.00  0.00    +0.000 C 
ATOM      3  C   UNL     1       6.035   4.644  18.596  0.00  0.00    +0.000 C 
ATOM      4  N   UNL     1       5.117   5.782  18.469  0.00  0.00    +0.000 NA
ATOM      5  C   UNL     1       5.593   6.605  17.333  0.00  0.00    +0.000 C 
ENDROOT
BRANCH   1   6
ATOM      6  C   UNL     1       6.512   5.121  15.466  0.00  0.00    +0.000 A 
ATOM      7  C   UNL     1       5.355   4.338  15.320  0.00  0.00    +0.000 A 
ATOM      8  C   UNL     1       5.112   3.624  14.142  0.00  0.00    +0.000 A 
ATOM      9  C   UNL     1       6.024   3.678  13.093  0.00  0.00    +0.000 A 
ATOM     10 CL   UNL     1       5.721   2.795  11.648  0.00  0.00    +0.000 Cl
ATOM     11  C   UNL     1       7.183   4.438  13.212  0.00  0.00    +0.000 A 
ATOM     12  C   UNL     1       7.425   5.148  14.391  0.00  0.00    +0.000 A 
ENDBRANCH   1   6
BRANCH   1  13
ATOM     13  O   UNL     1       7.851   6.874  16.410  0.00  0.00    +0.000 OA
ATOM     14  H   UNL     1       7.661   7.211  15.518  0.00  0.00    +0.000 HD
ENDBRANCH   1  13
BRANCH   4  15
ATOM     15  C   UNL     1       3.720   5.349  18.335  0.00  0.00    +0.000 C 
BRANCH  15  16
ATOM     16  C   UNL     1       2.830   6.204  19.190  0.00  0.00    +0.000 A 
ATOM     17  C   UNL     1       2.364   5.892  20.460  0.00  0.00    +0.000 A 
ATOM     18  N   UNL     1       1.650   6.959  20.934  0.00  0.00    +0.000 N 
ATOM     19  C   UNL     1       1.628   7.955  20.002  0.00  0.00    +0.000 A 
ATOM     20  N   UNL     1       1.031   9.147  20.184  0.00  0.00    +0.000 NA
ATOM     21  C   UNL     1       1.147   9.962  19.112  0.00  0.00    +0.000 A 
ATOM     22  C   UNL     1       1.782   9.644  17.919  0.00  0.00    +0.000 A 
ATOM     23  C   UNL     1       2.386   8.391  17.785  0.00  0.00    +0.000 A 
ATOM     24  C   UNL     1       2.320   7.509  18.879  0.00  0.00    +0.000 A 
ATOM     25  H   UNL     1       1.212   7.033  21.841  0.00  0.00    +0.000 HD
ENDBRANCH  15  16
ENDBRANCH   4  15
TORSDOF 4
ENDMDL
MODEL 2
REMARK VINA RESULT:      -7.9      0.095      1.008
REMARK  Name = 
REMARK  4 active torsions:
REMARK  status: ('A' for Active; 'I' for Inactive)
REMARK    1  A    between atoms: O_1  and  C_2
REMARK    2  A    between atoms: C_2  and  C_3
REMARK    3  A    between atoms: N_12  and  C_13
REMARK    4  A    between atoms: C_13  and  C_14
REMARK                            x       y       z     vdW  Elec       q    Type
REMARK                         _______ _______ _______ _____ _____    ______ ____
ROOT
ATOM      1  C   UNL     1       6.937   5.946  16.731  0.00  0.00    +0.000 C 
ATOM      2  C   UNL     1       7.408   5.154  17.952  0.00  0.00    +0.000 C 
ATOM      3  C   UNL     1       6.109   4.668  18.577  0.00  0.00    +0.000 C 
ATOM      4  N   UNL     1       5.185   5.800  18.439  0.00  0.00    +0.000 NA
ATOM      5  C   UNL     1       5.673   6.630  17.311  0.00  0.00    +0.000 C 
ENDROOT
BRANCH   1   6
ATOM      6  C   UNL     1       6.630   5.157  15.455  0.00  0.00    +0.000 A 
ATOM      7  C   UNL     1       7.491   5.111  14.347  0.00  0.00    +0.000 A 
ATOM      8  C   UNL     1       7.152   4.385  13.200  0.00  0.00    +0.000 A 
ATOM      9  C   UNL     1       5.945   3.698  13.142  0.00  0.00    +0.000 A 
ATOM     10 CL   UNL     1       5.532   2.809  11.728  0.00  0.00    +0.000 Cl
ATOM     11  C   UNL     1       5.069   3.731  14.221  0.00  0.00    +0.000 A 
ATOM     12  C   UNL     1       5.408   4.459  15.364  0.00  0.00    +0.000 A 
ENDBRANCH   1   6
BRANCH   1  13
ATOM     13  O   UNL     1       7.942   6.917  16.423  0.00  0.00    +0.000 OA
ATOM     14  H   UNL     1       8.695   6.447  16.025  0.00  0.00    +0.000 HD
ENDBRANCH   1  13
BRANCH   4  15
ATOM     15  C   UNL     1       3.793   5.357  18.283  0.00  0.00    +0.000 C 
BRANCH  15  16
ATOM     16  C   UNL     1       2.888   6.187  19.147  0.00  0.00    +0.000 A 
ATOM     17  C   UNL     1       2.422   5.848  20.410  0.00  0.00    +0.000 A 
ATOM     18  N   UNL     1       1.691   6.897  20.898  0.00  0.00    +0.000 N 
ATOM     19  C   UNL     1       1.658   7.907  19.982  0.00  0.00    +0.000 A 
ATOM     20  N   UNL     1       1.043   9.088  20.180  0.00  0.00    +0.000 NA
ATOM     21  C   UNL     1       1.151   9.920  19.122  0.00  0.00    +0.000 A 
ATOM     22  C   UNL     1       1.795   9.630  17.926  0.00  0.00    +0.000 A 
ATOM     23  C   UNL     1       2.417   8.388  17.774  0.00  0.00    +0.000 A 
ATOM     24  C   UNL     1       2.360   7.489  18.855  0.00  0.00    +0.000 A 
ATOM     25  H   UNL     1       1.249   6.950  21.804  0.00  0.00    +0.000 HD
ENDBRANCH  15  16
ENDBRANCH   4  15
TORSDOF 4
ENDMDL
MODEL 3
REMARK VINA RESULT:      -7.7      1.904      2.742
REMARK  Name = 
REMARK  4 active torsions:
REMARK  status: ('A' for Active; 'I' for Inactive)
REMARK    1  A    between atoms: O_1  and  C_2
REMARK    2  A    between atoms: C_2  and  C_3
REMARK    3  A    between atoms: N_12  and  C_13
REMARK    4  A    between atoms: C_13  and  C_14
REMARK                            x       y       z     vdW  Elec       q    Type
REMARK                         _______ _______ _______ _____ _____    ______ ____
ROOT
ATOM      1  C   UNL     1       4.545   3.945  18.574  0.00  0.00    +0.000 C 
ATOM      2  C   UNL     1       3.130   3.379  18.454  0.00  0.00    +0.000 C 
ATOM      3  C   UNL     1       2.271   4.620  18.263  0.00  0.00    +0.000 C 
ATOM      4  N   UNL     1       2.855   5.617  19.168  0.00  0.00    +0.000 NA
ATOM      5  C   UNL     1       4.266   5.226  19.400  0.00  0.00    +0.000 C 
ENDROOT
BRANCH   1   6
ATOM      6  C   UNL     1       5.294   4.251  17.273  0.00  0.00    +0.000 A 
ATOM      7  C   UNL     1       4.736   4.071  15.997  0.00  0.00    +0.000 A 
ATOM      8  C   UNL     1       5.474   4.352  14.842  0.00  0.00    +0.000 A 
ATOM      9  C   UNL     1       6.781   4.813  14.945  0.00  0.00    +0.000 A 
ATOM     10 CL   UNL     1       7.684   5.155  13.521  0.00  0.00    +0.000 Cl
ATOM     11  C   UNL     1       7.363   4.994  16.195  0.00  0.00    +0.000 A 
ATOM     12  C   UNL     1       6.626   4.709  17.347  0.00  0.00    +0.000 A 
ENDBRANCH   1   6
BRANCH   1  13
ATOM     13  O   UNL     1       5.327   3.014  19.329  0.00  0.00    +0.000 OA
ATOM     14  H   UNL     1       6.099   3.491  19.678  0.00  0.00    +0.000 HD
ENDBRANCH   1  13
BRANCH   4  15
ATOM     15  C   UNL     1       2.703   6.984  18.652  0.00  0.00    +0.000 C 
BRANCH  15  16
ATOM     16  C   UNL     1       1.911   7.815  19.619  0.00  0.00    +0.000 A 
ATOM     17  C   UNL     1       1.533   7.444  20.903  0.00  0.00    +0.000 A 
ATOM     18  N   UNL     1       0.894   8.503  21.490  0.00  0.00    +0.000 N 
ATOM     19  C   UNL     1       0.835   9.551  20.619  0.00  0.00    +0.000 A 
ATOM     20  N   UNL     1       0.295  10.748  20.912  0.00  0.00    +0.000 NA
ATOM     21  C   UNL     1       0.356  11.619  19.881  0.00  0.00    +0.000 A 
ATOM     22  C   UNL     1       0.887  11.352  18.626  0.00  0.00    +0.000 A 
ATOM     23  C   UNL     1       1.436  10.091  18.376  0.00  0.00    +0.000 A 
ATOM     24  C   UNL     1       1.424   9.151  19.422  0.00  0.00    +0.000 A 
ATOM     25  H   UNL     1       0.530   8.537  22.430  0.00  0.00    +0.000 HD
ENDBRANCH  15  16
ENDBRANCH   4  15
TORSDOF 4
ENDMDL
MODEL 4
REMARK VINA RESULT:      -7.7      1.907      2.849
REMARK  Name = 
REMARK  4 active torsions:
REMARK  status: ('A' for Active; 'I' for Inactive)
REMARK    1  A    between atoms: O_1  and  C_2
REMARK    2  A    between atoms: C_2  and  C_3
REMARK    3  A    between atoms: N_12  and  C_13
REMARK    4  A    between atoms: C_13  and  C_14
REMARK                            x       y       z     vdW  Elec       q    Type
REMARK                         _______ _______ _______ _____ _____    ______ ____
ROOT
ATOM      1  C   UNL     1       4.503   3.943  18.498  0.00  0.00    +0.000 C 
ATOM      2  C   UNL     1       3.094   3.399  18.255  0.00  0.00    +0.000 C 
ATOM      3  C   UNL     1       2.264   4.658  18.055  0.00  0.00    +0.000 C 
ATOM      4  N   UNL     1       2.791   5.611  19.038  0.00  0.00    +0.000 NA
ATOM      5  C   UNL     1       4.177   5.193  19.354  0.00  0.00    +0.000 C 
ENDROOT
BRANCH   1   6
ATOM      6  C   UNL     1       5.346   4.291  17.268  0.00  0.00    +0.000 A 
ATOM      7  C   UNL     1       6.517   5.065  17.324  0.00  0.00    +0.000 A 
ATOM      8  C   UNL     1       7.238   5.365  16.164  0.00  0.00    +0.000 A 
ATOM      9  C   UNL     1       6.799   4.900  14.929  0.00  0.00    +0.000 A 
ATOM     10 CL   UNL     1       7.690   5.274  13.506  0.00  0.00    +0.000 Cl
ATOM     11  C   UNL     1       5.639   4.138  14.842  0.00  0.00    +0.000 A 
ATOM     12  C   UNL     1       4.918   3.842  16.002  0.00  0.00    +0.000 A 
ENDBRANCH   1   6
BRANCH   1  13
ATOM     13  O   UNL     1       5.220   2.973  19.269  0.00  0.00    +0.000 OA
ATOM     14  H   UNL     1       5.699   2.398  18.649  0.00  0.00    +0.000 HD
ENDBRANCH   1  13
BRANCH   4  15
ATOM     15  C   UNL     1       2.689   6.999  18.569  0.00  0.00    +0.000 C 
BRANCH  15  16
ATOM     16  C   UNL     1       1.923   7.824  19.561  0.00  0.00    +0.000 A 
ATOM     17  C   UNL     1       1.563   7.439  20.846  0.00  0.00    +0.000 A 
ATOM     18  N   UNL     1       0.947   8.496  21.459  0.00  0.00    +0.000 N 
ATOM     19  C   UNL     1       0.884   9.557  20.605  0.00  0.00    +0.000 A 
ATOM     20  N   UNL     1       0.364  10.756  20.925  0.00  0.00    +0.000 NA
ATOM     21  C   UNL     1       0.417  11.641  19.906  0.00  0.00    +0.000 A 
ATOM     22  C   UNL     1       0.923  11.386  18.639  0.00  0.00    +0.000 A 
ATOM     23  C   UNL     1       1.452  10.123  18.360  0.00  0.00    +0.000 A 
ATOM     24  C   UNL     1       1.448   9.168  19.393  0.00  0.00    +0.000 A 
ATOM     25  H   UNL     1       0.599   8.520  22.407  0.00  0.00    +0.000 HD
ENDBRANCH  15  16
ENDBRANCH   4  15
TORSDOF 4
ENDMDL
MODEL 5
REMARK VINA RESULT:      -7.5      2.180      3.469
REMARK  Name = 
REMARK  4 active torsions:
REMARK  status: ('A' for Active; 'I' for Inactive)
REMARK    1  A    between atoms: O_1  and  C_2
REMARK    2  A    between atoms: C_2  and  C_3
REMARK    3  A    between atoms: N_12  and  C_13
REMARK    4  A    between atoms: C_13  and  C_14
REMARK                            x       y       z     vdW  Elec       q    Type
REMARK                         _______ _______ _______ _____ _____    ______ ____
ROOT
ATOM      1  C   UNL     1       6.620   5.959  16.745  0.00  0.00    +0.000 C 
ATOM      2  C   UNL     1       6.717   5.169  18.051  0.00  0.00    +0.000 C 
ATOM      3  C   UNL     1       5.263   4.950  18.436  0.00  0.00    +0.000 C 
ATOM      4  N   UNL     1       4.596   6.214  18.102  0.00  0.00    +0.000 NA
ATOM      5  C   UNL     1       5.417   6.882  17.065  0.00  0.00    +0.000 C 
ENDROOT
BRANCH   1   6
ATOM      6  C   UNL     1       6.408   5.163  15.454  0.00  0.00    +0.000 A 
ATOM      7  C   UNL     1       5.281   4.360  15.215  0.00  0.00    +0.000 A 
ATOM      8  C   UNL     1       5.149   3.641  14.021  0.00  0.00    +0.000 A 
ATOM      9  C   UNL     1       6.142   3.711  13.051  0.00  0.00    +0.000 A 
ATOM     10 CL   UNL     1       5.975   2.823  11.588  0.00  0.00    +0.000 Cl
ATOM     11  C   UNL     1       7.274   4.491  13.264  0.00  0.00    +0.000 A 
ATOM     12  C   UNL     1       7.405   5.205  14.458  0.00  0.00    +0.000 A 
ENDBRANCH   1   6
BRANCH   1  13
ATOM     13  O   UNL     1       7.822   6.723  16.604  0.00  0.00    +0.000 OA
ATOM     14  H   UNL     1       8.384   6.273  15.951  0.00  0.00    +0.000 HD
ENDBRANCH   1  13
BRANCH   4  15
ATOM     15  C   UNL     1       3.198   6.009  17.703  0.00  0.00    +0.000 C 
BRANCH  15  16
ATOM     16  C   UNL     1       2.752   4.626  18.076  0.00  0.00    +0.000 A 
ATOM     17  C   UNL     1       2.626   3.543  17.215  0.00  0.00    +0.000 A 
ATOM     18  N   UNL     1       2.272   2.444  17.949  0.00  0.00    +0.000 N 
ATOM     19  C   UNL     1       2.152   2.782  19.265  0.00  0.00    +0.000 A 
ATOM     20  N   UNL     1       1.847   1.912  20.245  0.00  0.00    +0.000 NA
ATOM     21  C   UNL     1       1.785   2.493  21.463  0.00  0.00    +0.000 A 
ATOM     22  C   UNL     1       1.985   3.841  21.728  0.00  0.00    +0.000 A 
ATOM     23  C   UNL     1       2.301   4.701  20.672  0.00  0.00    +0.000 A 
ATOM     24  C   UNL     1       2.404   4.146  19.383  0.00  0.00    +0.000 A 
ATOM     25  H   UNL     1       2.134   1.507  17.599  0.00  0.00    +0.000 HD
ENDBRANCH  15  16
ENDBRANCH   4  15
TORSDOF 4
ENDMDL
MODEL 6
REMARK VINA RESULT:      -7.5      1.714      2.999
REMARK  Name = 
REMARK  4 active torsions:
REMARK  status: ('A' for Active; 'I' for Inactive)
REMARK    1  A    between atoms: O_1  and  C_2
REMARK    2  A    between atoms: C_2  and  C_3
REMARK    3  A    between atoms: N_12  and  C_13
REMARK    4  A    between atoms: C_13  and  C_14
REMARK                            x       y       z     vdW  Elec       q    Type
REMARK                         _______ _______ _______ _____ _____    ______ ____
ROOT
ATOM      1  C   UNL     1       6.741   6.147  16.670  0.00  0.00    +0.000 C 
ATOM      2  C   UNL     1       6.827   5.451  18.030  0.00  0.00    +0.000 C 
ATOM      3  C   UNL     1       5.375   5.372  18.475  0.00  0.00    +0.000 C 
ATOM      4  N   UNL     1       4.791   6.654  18.065  0.00  0.00    +0.000 NA
ATOM      5  C   UNL     1       5.620   7.178  16.954  0.00  0.00    +0.000 C 
ENDROOT
BRANCH   1   6
ATOM      6  C   UNL     1       6.425   5.274  15.452  0.00  0.00    +0.000 A 
ATOM      7  C   UNL     1       5.258   4.503  15.333  0.00  0.00    +0.000 A 
ATOM      8  C   UNL     1       5.030   3.711  14.202  0.00  0.00    +0.000 A 
ATOM      9  C   UNL     1       5.967   3.675  13.175  0.00  0.00    +0.000 A 
ATOM     10 CL   UNL     1       5.682   2.698  11.788  0.00  0.00    +0.000 Cl
ATOM     11  C   UNL     1       7.136   4.422  13.269  0.00  0.00    +0.000 A 
ATOM     12  C   UNL     1       7.363   5.209  14.401  0.00  0.00    +0.000 A 
ENDBRANCH   1   6
BRANCH   1  13
ATOM     13  O   UNL     1       7.989   6.806  16.434  0.00  0.00    +0.000 OA
ATOM     14  H   UNL     1       8.211   6.692  15.495  0.00  0.00    +0.000 HD
ENDBRANCH   1  13
BRANCH   4  15
ATOM     15  C   UNL     1       3.368   6.526  17.725  0.00  0.00    +0.000 C 
BRANCH  15  16
ATOM     16  C   UNL     1       2.632   5.835  18.837  0.00  0.00    +0.000 A 
ATOM     17  C   UNL     1       2.256   6.400  20.047  0.00  0.00    +0.000 A 
ATOM     18  N   UNL     1       1.539   5.473  20.755  0.00  0.00    +0.000 N 
ATOM     19  C   UNL     1       1.448   4.314  20.042  0.00  0.00    +0.000 A 
ATOM     20  N   UNL     1       0.777   3.223  20.456  0.00  0.00    +0.000 NA
ATOM     21  C   UNL     1       0.838   2.202  19.573  0.00  0.00    +0.000 A 
ATOM     22  C   UNL     1       1.523   2.217  18.365  0.00  0.00    +0.000 A 
ATOM     23  C   UNL     1       2.202   3.377  17.984  0.00  0.00    +0.000 A 
ATOM     24  C   UNL     1       2.152   4.482  18.853  0.00  0.00    +0.000 A 
ATOM     25  H   UNL     1       1.113   5.607  21.660  0.00  0.00    +0.000 HD
ENDBRANCH  15  16
ENDBRANCH   4  15
TORSDOF 4
ENDMDL
MODEL 7
REMARK VINA RESULT:      -7.4      2.259      3.654
REMARK  Name = 
REMARK  4 active torsions:
REMARK  status: ('A' for Active; 'I' for Inactive)
REMARK    1  A    between atoms: O_1  and  C_2
REMARK    2  A    between atoms: C_2  and  C_3
REMARK    3  A    between atoms: N_12  and  C_13
REMARK    4  A    between atoms: C_13  and  C_14
REMARK                            x       y       z     vdW  Elec       q    Type
REMARK                         _______ _______ _______ _____ _____    ______ ____
ROOT
ATOM      1  C   UNL     1       6.634   5.881  16.774  0.00  0.00    +0.000 C 
ATOM      2  C   UNL     1       6.712   5.054  18.059  0.00  0.00    +0.000 C 
ATOM      3  C   UNL     1       5.253   4.771  18.382  0.00  0.00    +0.000 C 
ATOM      4  N   UNL     1       4.553   6.020  18.060  0.00  0.00    +0.000 NA
ATOM      5  C   UNL     1       5.387   6.749  17.075  0.00  0.00    +0.000 C 
ENDROOT
BRANCH   1   6
ATOM      6  C   UNL     1       6.501   5.118  15.453  0.00  0.00    +0.000 A 
ATOM      7  C   UNL     1       7.432   5.212  14.406  0.00  0.00    +0.000 A 
ATOM      8  C   UNL     1       7.250   4.503  13.214  0.00  0.00    +0.000 A 
ATOM      9  C   UNL     1       6.132   3.693  13.048  0.00  0.00    +0.000 A 
ATOM     10 CL   UNL     1       5.913   2.826  11.578  0.00  0.00    +0.000 Cl
ATOM     11  C   UNL     1       5.189   3.587  14.064  0.00  0.00    +0.000 A 
ATOM     12  C   UNL     1       5.371   4.298  15.252  0.00  0.00    +0.000 A 
ENDBRANCH   1   6
BRANCH   1  13
ATOM     13  O   UNL     1       7.812   6.691  16.703  0.00  0.00    +0.000 OA
ATOM     14  H   UNL     1       7.541   7.617  16.828  0.00  0.00    +0.000 HD
ENDBRANCH   1  13
BRANCH   4  15
ATOM     15  C   UNL     1       3.179   5.778  17.601  0.00  0.00    +0.000 C 
BRANCH  15  16
ATOM     16  C   UNL     1       2.716   4.423  18.051  0.00  0.00    +0.000 A 
ATOM     17  C   UNL     1       2.554   3.302  17.248  0.00  0.00    +0.000 A 
ATOM     18  N   UNL     1       2.195   2.247  18.043  0.00  0.00    +0.000 N 
ATOM     19  C   UNL     1       2.108   2.653  19.343  0.00  0.00    +0.000 A 
ATOM     20  N   UNL     1       1.807   1.838  20.370  0.00  0.00    +0.000 NA
ATOM     21  C   UNL     1       1.780   2.479  21.559  0.00  0.00    +0.000 A 
ATOM     22  C   UNL     1       2.010   3.835  21.752  0.00  0.00    +0.000 A 
ATOM     23  C   UNL     1       2.320   4.635  20.649  0.00  0.00    +0.000 A 
ATOM     24  C   UNL     1       2.387   4.016  19.388  0.00  0.00    +0.000 A 
ATOM     25  H   UNL     1       2.033   1.297  17.743  0.00  0.00    +0.000 HD
ENDBRANCH  15  16
ENDBRANCH   4  15
TORSDOF 4
ENDMDL
MODEL 8
REMARK VINA RESULT:      -7.3      1.708      3.167
REMARK  Name = 
REMARK  4 active torsions:
REMARK  status: ('A' for Active; 'I' for Inactive)
REMARK    1  A    between atoms: O_1  and  C_2
REMARK    2  A    between atoms: C_2  and  C_3
REMARK    3  A    between atoms: N_12  and  C_13
REMARK    4  A    between atoms: C_13  and  C_14
REMARK                            x       y       z     vdW  Elec       q    Type
REMARK                         _______ _______ _______ _____ _____    ______ ____
ROOT
ATOM      1  C   UNL     1       6.841   6.121  16.646  0.00  0.00    +0.000 C 
ATOM      2  C   UNL     1       6.924   5.403  17.994  0.00  0.00    +0.000 C 
ATOM      3  C   UNL     1       5.468   5.278  18.414  0.00  0.00    +0.000 C 
ATOM      4  N   UNL     1       4.857   6.552  18.018  0.00  0.00    +0.000 NA
ATOM      5  C   UNL     1       5.690   7.118  16.930  0.00  0.00    +0.000 C 
ENDROOT
BRANCH   1   6
ATOM      6  C   UNL     1       6.568   5.263  15.407  0.00  0.00    +0.000 A 
ATOM      7  C   UNL     1       7.399   5.250  14.275  0.00  0.00    +0.000 A 
ATOM      8  C   UNL     1       7.091   4.458  13.164  0.00  0.00    +0.000 A 
ATOM      9  C   UNL     1       5.945   3.669  13.166  0.00  0.00    +0.000 A 
ATOM     10 CL   UNL     1       5.570   2.699  11.796  0.00  0.00    +0.000 Cl
ATOM     11  C   UNL     1       5.100   3.668  14.270  0.00  0.00    +0.000 A 
ATOM     12  C   UNL     1       5.408   4.463  15.377  0.00  0.00    +0.000 A 
ENDBRANCH   1   6
BRANCH   1  13
ATOM     13  O   UNL     1       8.076   6.815  16.443  0.00  0.00    +0.000 OA
ATOM     14  H   UNL     1       7.871   7.665  16.016  0.00  0.00    +0.000 HD
ENDBRANCH   1  13
BRANCH   4  15
ATOM     15  C   UNL     1       3.443   6.394  17.652  0.00  0.00    +0.000 C 
BRANCH  15  16
ATOM     16  C   UNL     1       2.685   5.769  18.787  0.00  0.00    +0.000 A 
ATOM     17  C   UNL     1       2.313   6.395  19.969  0.00  0.00    +0.000 A 
ATOM     18  N   UNL     1       1.570   5.516  20.710  0.00  0.00    +0.000 N 
ATOM     19  C   UNL     1       1.456   4.330  20.047  0.00  0.00    +0.000 A 
ATOM     20  N   UNL     1       0.757   3.274  20.502  0.00  0.00    +0.000 NA
ATOM     21  C   UNL     1       0.799   2.215  19.664  0.00  0.00    +0.000 A 
ATOM     22  C   UNL     1       1.492   2.162  18.462  0.00  0.00    +0.000 A 
ATOM     23  C   UNL     1       2.201   3.288  18.037  0.00  0.00    +0.000 A 
ATOM     24  C   UNL     1       2.172   4.430  18.858  0.00  0.00    +0.000 A 
ATOM     25  H   UNL     1       1.141   5.699  21.606  0.00  0.00    +0.000 HD
ENDBRANCH  15  16
ENDBRANCH   4  15
TORSDOF 4
ENDMDL
MODEL 9
REMARK VINA RESULT:      -7.3      3.728      7.108
REMARK  Name = 
REMARK  4 active torsions:
REMARK  status: ('A' for Active; 'I' for Inactive)
REMARK    1  A    between atoms: O_1  and  C_2
REMARK    2  A    between atoms: C_2  and  C_3
REMARK    3  A    between atoms: N_12  and  C_13
REMARK    4  A    between atoms: C_13  and  C_14
REMARK                            x       y       z     vdW  Elec       q    Type
REMARK                         _______ _______ _______ _____ _____    ______ ____
ROOT
ATOM      1  C   UNL     1       2.224   4.363  18.212  0.00  0.00    +0.000 C 
ATOM      2  C   UNL     1       2.340   3.002  18.900  0.00  0.00    +0.000 C 
ATOM      3  C   UNL     1       3.798   2.952  19.332  0.00  0.00    +0.000 C 
ATOM      4  N   UNL     1       4.537   3.552  18.215  0.00  0.00    +0.000 NA
ATOM      5  C   UNL     1       3.590   4.425  17.482  0.00  0.00    +0.000 C 
ENDROOT
BRANCH   1   6
ATOM      6  C   UNL     1       1.992   5.586  19.104  0.00  0.00    +0.000 A 
ATOM      7  C   UNL     1       1.500   5.505  20.417  0.00  0.00    +0.000 A 
ATOM      8  C   UNL     1       1.292   6.658  21.181  0.00  0.00    +0.000 A 
ATOM      9  C   UNL     1       1.568   7.910  20.643  0.00  0.00    +0.000 A 
ATOM     10 CL   UNL     1       1.308   9.325  21.586  0.00  0.00    +0.000 Cl
ATOM     11  C   UNL     1       2.048   8.022  19.342  0.00  0.00    +0.000 A 
ATOM     12  C   UNL     1       2.252   6.869  18.580  0.00  0.00    +0.000 A 
ENDBRANCH   1   6
BRANCH   1  13
ATOM     13  O   UNL     1       1.149   4.288  17.270  0.00  0.00    +0.000 OA
ATOM     14  H   UNL     1       0.407   4.804  17.628  0.00  0.00    +0.000 HD
ENDBRANCH   1  13
BRANCH   4  15
ATOM     15  C   UNL     1       5.748   4.249  18.668  0.00  0.00    +0.000 C 
BRANCH  15  16
ATOM     16  C   UNL     1       6.387   4.972  17.519  0.00  0.00    +0.000 A 
ATOM     17  C   UNL     1       7.123   6.147  17.596  0.00  0.00    +0.000 A 
ATOM     18  N   UNL     1       7.601   6.442  16.347  0.00  0.00    +0.000 N 
ATOM     19  C   UNL     1       7.186   5.497  15.456  0.00  0.00    +0.000 A 
ATOM     20  N   UNL     1       7.519   5.490  14.152  0.00  0.00    +0.000 NA
ATOM     21  C   UNL     1       6.980   4.450  13.478  0.00  0.00    +0.000 A 
ATOM     22  C   UNL     1       6.149   3.478  14.019  0.00  0.00    +0.000 A 
ATOM     23  C   UNL     1       5.837   3.533  15.380  0.00  0.00    +0.000 A 
ATOM     24  C   UNL     1       6.391   4.580  16.138  0.00  0.00    +0.000 A 
ATOM     25  H   UNL     1       8.190   7.223  16.099  0.00  0.00    +0.000 HD
ENDBRANCH  15  16
ENDBRANCH   4  15
TORSDOF 4
ENDMDL
