MODEL 1
REMARK VINA RESULT:      -6.4      0.000      0.000
REMARK  Name = 
REMARK  7 active torsions:
REMARK  status: ('A' for Active; 'I' for Inactive)
REMARK    1  A    between atoms: C_1  and  C_2
REMARK    2  A    between atoms: C_2  and  C_4
REMARK    3  A    between atoms: C_4  and  C_8
REMARK    4  A    between atoms: C_5  and  C_6
REMARK    5  A    between atoms: C_5  and  O_7
REMARK    6  A    between atoms: C_16  and  C_17
REMARK    7  A    between atoms: C_21  and  N_22
REMARK                            x       y       z     vdW  Elec       q    Type
REMARK                         _______ _______ _______ _____ _____    ______ ____
ROOT
ATOM      1  C   UNL     1       3.794   5.098  16.666  0.00  0.00    +0.000 C 
ATOM      2  C   UNL     1       4.955   4.867  15.689  0.00  0.00    +0.000 A 
ATOM      3  C   UNL     1       4.748   4.100  14.528  0.00  0.00    +0.000 A 
ATOM      4  C   UNL     1       5.799   3.861  13.640  0.00  0.00    +0.000 A 
ATOM      5  C   UNL     1       7.055   4.415  13.875  0.00  0.00    +0.000 A 
ATOM      6  C   UNL     1       7.264   5.221  14.994  0.00  0.00    +0.000 A 
ATOM      7  C   UNL     1       6.227   5.439  15.898  0.00  0.00    +0.000 A 
ATOM      8  O   UNL     1       6.552   6.273  16.939  0.00  0.00    +0.000 OA
ATOM      9  C   UNL     1       5.619   6.277  18.050  0.00  0.00    +0.000 C 
ATOM     10  C   UNL     1       4.219   6.333  17.468  0.00  0.00    +0.000 C 
ENDROOT
BRANCH   9  11
ATOM     11  C   UNL     1       6.002   5.183  19.057  0.00  0.00    +0.000 C 
ATOM     12  F   UNL     1       6.720   4.190  18.483  0.00  0.00    +0.000 F 
ATOM     13  F   UNL     1       6.806   5.710  20.017  0.00  0.00    +0.000 F 
ATOM     14  F   UNL     1       4.961   4.626  19.691  0.00  0.00    +0.000 F 
ENDBRANCH   9  11
BRANCH   1  15
ATOM     15  C   UNL     1       3.248   3.834  17.427  0.00  0.00    +0.000 C 
ATOM     16  C   UNL     1       3.913   2.659  17.594  0.00  0.00    +0.000 C 
ATOM     17  C   UNL     1       3.560   1.414  18.359  0.00  0.00    +0.000 C 
BRANCH  15  19
ATOM     18  C   UNL     1       1.423   4.003  19.366  0.00  0.00    +0.000 C 
ATOM     19  C   UNL     1       1.829   4.105  17.923  0.00  0.00    +0.000 C 
ATOM     20  O   UNL     1       0.970   4.417  17.092  0.00  0.00    +0.000 OA
ENDBRANCH  15  19
BRANCH  16  21
ATOM     21  O   UNL     1       5.195   2.505  17.095  0.00  0.00    +0.000 OA
ATOM     22  H   UNL     1       5.842   2.747  17.782  0.00  0.00    +0.000 HD
ENDBRANCH  16  21
ENDBRANCH   1  15
BRANCH  10  23
ATOM     23  N   UNL     1       3.235   6.828  18.466  0.00  0.00    +0.000 N 
ATOM     24  O   UNL     1       3.459   6.623  19.659  0.00  0.00    +0.000 OA
ATOM     25  O   UNL     1       2.294   7.503  18.029  0.00  0.00    +0.000 OA
ENDBRANCH  10  23
TORSDOF 5
ENDMDL
MODEL 2
REMARK VINA RESULT:      -5.4      8.188     10.162
REMARK  Name = 
REMARK  7 active torsions:
REMARK  status: ('A' for Active; 'I' for Inactive)
REMARK    1  A    between atoms: C_1  and  C_2
REMARK    2  A    between atoms: C_2  and  C_4
REMARK    3  A    between atoms: C_4  and  C_8
REMARK    4  A    between atoms: C_5  and  C_6
REMARK    5  A    between atoms: C_5  and  O_7
REMARK    6  A    between atoms: C_16  and  C_17
REMARK    7  A    between atoms: C_21  and  N_22
REMARK                            x       y       z     vdW  Elec       q    Type
REMARK                         _______ _______ _______ _____ _____    ______ ____
ROOT
ATOM      1  C   UNL     1       0.504  12.661  21.198  0.00  0.00    +0.000 C 
ATOM      2  C   UNL     1       1.337  13.366  20.117  0.00  0.00    +0.000 A 
ATOM      3  C   UNL     1       1.712  14.710  20.292  0.00  0.00    +0.000 A 
ATOM      4  C   UNL     1       2.449  15.374  19.309  0.00  0.00    +0.000 A 
ATOM      5  C   UNL     1       2.856  14.697  18.161  0.00  0.00    +0.000 A 
ATOM      6  C   UNL     1       2.536  13.349  17.996  0.00  0.00    +0.000 A 
ATOM      7  C   UNL     1       1.776  12.691  18.960  0.00  0.00    +0.000 A 
ATOM      8  O   UNL     1       1.557  11.362  18.694  0.00  0.00    +0.000 OA
ATOM      9  C   UNL     1       0.527  10.728  19.496  0.00  0.00    +0.000 C 
ATOM     10  C   UNL     1       0.733  11.169  20.933  0.00  0.00    +0.000 C 
ENDROOT
BRANCH   9  11
ATOM     11  C   UNL     1      -0.840  10.894  18.817  0.00  0.00    +0.000 C 
ATOM     12  F   UNL     1      -0.847  11.914  17.930  0.00  0.00    +0.000 F 
ATOM     13  F   UNL     1      -1.128   9.778  18.097  0.00  0.00    +0.000 F 
ATOM     14  F   UNL     1      -1.860  11.077  19.666  0.00  0.00    +0.000 F 
ENDBRANCH   9  11
BRANCH   1  15
ATOM     15  C   UNL     1      -0.961  13.191  21.419  0.00  0.00    +0.000 C 
ATOM     16  C   UNL     1      -1.713  13.855  20.501  0.00  0.00    +0.000 C 
ATOM     17  C   UNL     1      -3.136  14.338  20.539  0.00  0.00    +0.000 C 
BRANCH  15  19
ATOM     18  C   UNL     1      -2.554  11.966  23.175  0.00  0.00    +0.000 C 
ATOM     19  C   UNL     1      -1.408  12.882  22.847  0.00  0.00    +0.000 C 
ATOM     20  O   UNL     1      -0.801  13.420  23.778  0.00  0.00    +0.000 OA
ENDBRANCH  15  19
BRANCH  16  21
ATOM     21  O   UNL     1      -1.212  14.099  19.233  0.00  0.00    +0.000 OA
ATOM     22  H   UNL     1      -0.658  14.900  19.252  0.00  0.00    +0.000 HD
ENDBRANCH  16  21
ENDBRANCH   1  15
BRANCH  10  23
ATOM     23  N   UNL     1       0.082  10.234  21.887  0.00  0.00    +0.000 N 
ATOM     24  O   UNL     1      -0.661   9.363  21.437  0.00  0.00    +0.000 OA
ATOM     25  O   UNL     1       0.409  10.339  23.076  0.00  0.00    +0.000 OA
ENDBRANCH  10  23
TORSDOF 5
ENDMDL
MODEL 3
REMARK VINA RESULT:      -5.3      2.182      4.712
REMARK  Name = 
REMARK  7 active torsions:
REMARK  status: ('A' for Active; 'I' for Inactive)
REMARK    1  A    between atoms: C_1  and  C_2
REMARK    2  A    between atoms: C_2  and  C_4
REMARK    3  A    between atoms: C_4  and  C_8
REMARK    4  A    between atoms: C_5  and  C_6
REMARK    5  A    between atoms: C_5  and  O_7
REMARK    6  A    between atoms: C_16  and  C_17
REMARK    7  A    between atoms: C_21  and  N_22
REMARK                            x       y       z     vdW  Elec       q    Type
REMARK                         _______ _______ _______ _____ _____    ______ ____
ROOT
ATOM      1  C   UNL     1       4.847   4.255  18.832  0.00  0.00    +0.000 C 
ATOM      2  C   UNL     1       3.644   3.942  19.733  0.00  0.00    +0.000 A 
ATOM      3  C   UNL     1       3.342   2.605  20.052  0.00  0.00    +0.000 A 
ATOM      4  C   UNL     1       2.238   2.300  20.851  0.00  0.00    +0.000 A 
ATOM      5  C   UNL     1       1.448   3.321  21.374  0.00  0.00    +0.000 A 
ATOM      6  C   UNL     1       1.764   4.653  21.110  0.00  0.00    +0.000 A 
ATOM      7  C   UNL     1       2.847   4.962  20.290  0.00  0.00    +0.000 A 
ATOM      8  O   UNL     1       3.071   6.308  20.133  0.00  0.00    +0.000 OA
ATOM      9  C   UNL     1       3.975   6.668  19.058  0.00  0.00    +0.000 C 
ATOM     10  C   UNL     1       5.162   5.726  19.127  0.00  0.00    +0.000 C 
ENDROOT
BRANCH   9  11
ATOM     11  C   UNL     1       3.190   6.840  17.750  0.00  0.00    +0.000 C 
ATOM     12  F   UNL     1       2.003   6.191  17.779  0.00  0.00    +0.000 F 
ATOM     13  F   UNL     1       2.887   8.152  17.571  0.00  0.00    +0.000 F 
ATOM     14  F   UNL     1       3.850   6.445  16.653  0.00  0.00    +0.000 F 
ENDBRANCH   9  11
BRANCH   1  15
ATOM     15  C   UNL     1       4.759   3.769  17.338  0.00  0.00    +0.000 C 
ATOM     16  C   UNL     1       5.726   3.920  16.395  0.00  0.00    +0.000 C 
ATOM     17  C   UNL     1       5.817   3.438  14.974  0.00  0.00    +0.000 C 
BRANCH  15  19
ATOM     18  C   UNL     1       3.102   1.677  17.342  0.00  0.00    +0.000 C 
ATOM     19  C   UNL     1       3.394   3.129  17.087  0.00  0.00    +0.000 C 
ATOM     20  O   UNL     1       2.489   3.842  16.643  0.00  0.00    +0.000 OA
ENDBRANCH  15  19
BRANCH  16  21
ATOM     21  O   UNL     1       6.928   4.527  16.718  0.00  0.00    +0.000 OA
ATOM     22  H   UNL     1       7.340   4.055  17.463  0.00  0.00    +0.000 HD
ENDBRANCH  16  21
ENDBRANCH   1  15
BRANCH  10  23
ATOM     23  N   UNL     1       6.345   6.289  18.424  0.00  0.00    +0.000 N 
ATOM     24  O   UNL     1       6.154   7.056  17.481  0.00  0.00    +0.000 OA
ATOM     25  O   UNL     1       7.454   6.019  18.902  0.00  0.00    +0.000 OA
ENDBRANCH  10  23
TORSDOF 5
ENDMDL
MODEL 4
REMARK VINA RESULT:      -5.3      2.320      5.191
REMARK  Name = 
REMARK  7 active torsions:
REMARK  status: ('A' for Active; 'I' for Inactive)
REMARK    1  A    between atoms: C_1  and  C_2
REMARK    2  A    between atoms: C_2  and  C_4
REMARK    3  A    between atoms: C_4  and  C_8
REMARK    4  A    between atoms: C_5  and  C_6
REMARK    5  A    between atoms: C_5  and  O_7
REMARK    6  A    between atoms: C_16  and  C_17
REMARK    7  A    between atoms: C_21  and  N_22
REMARK                            x       y       z     vdW  Elec       q    Type
REMARK                         _______ _______ _______ _____ _____    ______ ____
ROOT
ATOM      1  C   UNL     1       3.104   5.127  17.765  0.00  0.00    +0.000 C 
ATOM      2  C   UNL     1       2.499   6.203  18.678  0.00  0.00    +0.000 A 
ATOM      3  C   UNL     1       2.692   7.563  18.376  0.00  0.00    +0.000 A 
ATOM      4  C   UNL     1       2.169   8.555  19.208  0.00  0.00    +0.000 A 
ATOM      5  C   UNL     1       1.416   8.206  20.326  0.00  0.00    +0.000 A 
ATOM      6  C   UNL     1       1.172   6.863  20.612  0.00  0.00    +0.000 A 
ATOM      7  C   UNL     1       1.715   5.869  19.801  0.00  0.00    +0.000 A 
ATOM      8  O   UNL     1       1.376   4.591  20.171  0.00  0.00    +0.000 OA
ATOM      9  C   UNL     1       2.159   3.536  19.556  0.00  0.00    +0.000 C 
ATOM     10  C   UNL     1       2.291   3.867  18.081  0.00  0.00    +0.000 C 
ENDROOT
BRANCH   9  11
ATOM     11  C   UNL     1       3.405   3.248  20.405  0.00  0.00    +0.000 C 
ATOM     12  F   UNL     1       3.738   4.295  21.193  0.00  0.00    +0.000 F 
ATOM     13  F   UNL     1       3.149   2.217  21.252  0.00  0.00    +0.000 F 
ATOM     14  F   UNL     1       4.489   2.903  19.697  0.00  0.00    +0.000 F 
ENDBRANCH   9  11
BRANCH   1  15
ATOM     15  C   UNL     1       4.674   5.041  17.716  0.00  0.00    +0.000 C 
ATOM     16  C   UNL     1       5.522   5.426  18.708  0.00  0.00    +0.000 C 
ATOM     17  C   UNL     1       7.016   5.324  18.836  0.00  0.00    +0.000 C 
BRANCH  15  19
ATOM     18  C   UNL     1       5.107   5.307  15.096  0.00  0.00    +0.000 C 
ATOM     19  C   UNL     1       5.117   4.494  16.360  0.00  0.00    +0.000 C 
ATOM     20  O   UNL     1       5.494   3.320  16.300  0.00  0.00    +0.000 OA
ENDBRANCH  15  19
BRANCH  16  21
ATOM     21  O   UNL     1       5.023   5.923  19.899  0.00  0.00    +0.000 OA
ATOM     22  H   UNL     1       4.882   5.190  20.524  0.00  0.00    +0.000 HD
ENDBRANCH  16  21
ENDBRANCH   1  15
BRANCH  10  23
ATOM     23  N   UNL     1       2.627   2.661  17.281  0.00  0.00    +0.000 N 
ATOM     24  O   UNL     1       3.030   1.660  17.873  0.00  0.00    +0.000 OA
ATOM     25  O   UNL     1       2.386   2.715  16.068  0.00  0.00    +0.000 OA
ENDBRANCH  10  23
TORSDOF 5
ENDMDL
MODEL 5
REMARK VINA RESULT:      -5.2     10.552     12.243
REMARK  Name = 
REMARK  7 active torsions:
REMARK  status: ('A' for Active; 'I' for Inactive)
REMARK    1  A    between atoms: C_1  and  C_2
REMARK    2  A    between atoms: C_2  and  C_4
REMARK    3  A    between atoms: C_4  and  C_8
REMARK    4  A    between atoms: C_5  and  C_6
REMARK    5  A    between atoms: C_5  and  O_7
REMARK    6  A    between atoms: C_16  and  C_17
REMARK    7  A    between atoms: C_21  and  N_22
REMARK                            x       y       z     vdW  Elec       q    Type
REMARK                         _______ _______ _______ _____ _____    ______ ____
ROOT
ATOM      1  C   UNL     1       8.507  15.124  19.178  0.00  0.00    +0.000 C 
ATOM      2  C   UNL     1       9.333  13.944  18.645  0.00  0.00    +0.000 A 
ATOM      3  C   UNL     1       9.066  12.642  19.107  0.00  0.00    +0.000 A 
ATOM      4  C   UNL     1       9.822  11.560  18.651  0.00  0.00    +0.000 A 
ATOM      5  C   UNL     1      10.823  11.755  17.702  0.00  0.00    +0.000 A 
ATOM      6  C   UNL     1      11.065  13.031  17.195  0.00  0.00    +0.000 A 
ATOM      7  C   UNL     1      10.333  14.118  17.668  0.00  0.00    +0.000 A 
ATOM      8  O   UNL     1      10.647  15.313  17.068  0.00  0.00    +0.000 OA
ATOM      9  C   UNL     1      10.142  16.498  17.737  0.00  0.00    +0.000 C 
ATOM     10  C   UNL     1       8.702  16.222  18.126  0.00  0.00    +0.000 C 
ENDROOT
BRANCH   9  11
ATOM     11  C   UNL     1      11.156  16.976  18.786  0.00  0.00    +0.000 C 
ATOM     12  F   UNL     1      12.023  16.000  19.140  0.00  0.00    +0.000 F 
ATOM     13  F   UNL     1      11.917  17.972  18.261  0.00  0.00    +0.000 F 
ATOM     14  F   UNL     1      10.604  17.465  19.905  0.00  0.00    +0.000 F 
ENDBRANCH   9  11
BRANCH   1  15
ATOM     15  C   UNL     1       8.678  15.476  20.701  0.00  0.00    +0.000 C 
ATOM     16  C   UNL     1       9.745  15.147  21.478  0.00  0.00    +0.000 C 
ATOM     17  C   UNL     1      10.081  15.485  22.904  0.00  0.00    +0.000 C 
BRANCH  15  19
ATOM     18  C   UNL     1       6.065  15.602  21.232  0.00  0.00    +0.000 C 
ATOM     19  C   UNL     1       7.437  16.216  21.200  0.00  0.00    +0.000 C 
ATOM     20  O   UNL     1       7.569  17.380  21.588  0.00  0.00    +0.000 OA
ENDBRANCH  15  19
BRANCH  16  21
ATOM     21  O   UNL     1      10.819  14.463  20.936  0.00  0.00    +0.000 OA
ATOM     22  H   UNL     1      10.997  14.796  20.039  0.00  0.00    +0.000 HD
ENDBRANCH  16  21
ENDBRANCH   1  15
BRANCH  10  23
ATOM     23  N   UNL     1       7.951  17.483  18.358  0.00  0.00    +0.000 N 
ATOM     24  O   UNL     1       8.583  18.538  18.411  0.00  0.00    +0.000 OA
ATOM     25  O   UNL     1       6.717  17.396  18.390  0.00  0.00    +0.000 OA
ENDBRANCH  10  23
TORSDOF 5
ENDMDL
MODEL 6
REMARK VINA RESULT:      -5.1     10.148     12.443
REMARK  Name = 
REMARK  7 active torsions:
REMARK  status: ('A' for Active; 'I' for Inactive)
REMARK    1  A    between atoms: C_1  and  C_2
REMARK    2  A    between atoms: C_2  and  C_4
REMARK    3  A    between atoms: C_4  and  C_8
REMARK    4  A    between atoms: C_5  and  C_6
REMARK    5  A    between atoms: C_5  and  O_7
REMARK    6  A    between atoms: C_16  and  C_17
REMARK    7  A    between atoms: C_21  and  N_22
REMARK                            x       y       z     vdW  Elec       q    Type
REMARK                         _______ _______ _______ _____ _____    ______ ____
ROOT
ATOM      1  C   UNL     1      10.589  13.715  20.163  0.00  0.00    +0.000 C 
ATOM      2  C   UNL     1      10.594  14.909  21.129  0.00  0.00    +0.000 A 
ATOM      3  C   UNL     1       9.778  14.882  22.274  0.00  0.00    +0.000 A 
ATOM      4  C   UNL     1       9.752  15.969  23.151  0.00  0.00    +0.000 A 
ATOM      5  C   UNL     1      10.568  17.075  22.920  0.00  0.00    +0.000 A 
ATOM      6  C   UNL     1      11.421  17.095  21.817  0.00  0.00    +0.000 A 
ATOM      7  C   UNL     1      11.429  16.026  20.924  0.00  0.00    +0.000 A 
ATOM      8  O   UNL     1      12.333  16.154  19.899  0.00  0.00    +0.000 OA
ATOM      9  C   UNL     1      12.158  15.230  18.794  0.00  0.00    +0.000 C 
ATOM     10  C   UNL     1      11.901  13.857  19.385  0.00  0.00    +0.000 C 
ENDROOT
BRANCH   9  11
ATOM     11  C   UNL     1      11.191  15.829  17.762  0.00  0.00    +0.000 C 
ATOM     12  F   UNL     1      10.458  16.842  18.278  0.00  0.00    +0.000 F 
ATOM     13  F   UNL     1      11.899  16.371  16.737  0.00  0.00    +0.000 F 
ATOM     14  F   UNL     1      10.346  14.943  17.218  0.00  0.00    +0.000 F 
ENDBRANCH   9  11
BRANCH   1  15
ATOM     15  C   UNL     1       9.252  13.445  19.379  0.00  0.00    +0.000 C 
ATOM     16  C   UNL     1       8.271  14.357  19.144  0.00  0.00    +0.000 C 
ATOM     17  C   UNL     1       6.998  14.269  18.349  0.00  0.00    +0.000 C 
BRANCH  15  19
ATOM     18  C   UNL     1       9.283  10.830  19.914  0.00  0.00    +0.000 C 
ATOM     19  C   UNL     1       9.196  11.980  18.949  0.00  0.00    +0.000 C 
ATOM     20  O   UNL     1       9.081  11.729  17.746  0.00  0.00    +0.000 OA
ENDBRANCH  15  19
BRANCH  16  21
ATOM     21  O   UNL     1       8.409  15.661  19.587  0.00  0.00    +0.000 OA
ATOM     22  H   UNL     1       8.212  15.703  20.539  0.00  0.00    +0.000 HD
ENDBRANCH  16  21
ENDBRANCH   1  15
BRANCH  10  23
ATOM     23  N   UNL     1      12.194  12.780  18.403  0.00  0.00    +0.000 N 
ATOM     24  O   UNL     1      12.332  11.631  18.821  0.00  0.00    +0.000 OA
ATOM     25  O   UNL     1      12.185  13.102  17.208  0.00  0.00    +0.000 OA
ENDBRANCH  10  23
TORSDOF 5
ENDMDL
MODEL 7
REMARK VINA RESULT:      -5.1      9.290     11.481
REMARK  Name = 
REMARK  7 active torsions:
REMARK  status: ('A' for Active; 'I' for Inactive)
REMARK    1  A    between atoms: C_1  and  C_2
REMARK    2  A    between atoms: C_2  and  C_4
REMARK    3  A    between atoms: C_4  and  C_8
REMARK    4  A    between atoms: C_5  and  C_6
REMARK    5  A    between atoms: C_5  and  O_7
REMARK    6  A    between atoms: C_16  and  C_17
REMARK    7  A    between atoms: C_21  and  N_22
REMARK                            x       y       z     vdW  Elec       q    Type
REMARK                         _______ _______ _______ _____ _____    ______ ____
ROOT
ATOM      1  C   UNL     1       8.505  13.858  19.881  0.00  0.00    +0.000 C 
ATOM      2  C   UNL     1       8.323  13.382  21.330  0.00  0.00    +0.000 A 
ATOM      3  C   UNL     1       7.713  14.230  22.272  0.00  0.00    +0.000 A 
ATOM      4  C   UNL     1       7.561  13.822  23.598  0.00  0.00    +0.000 A 
ATOM      5  C   UNL     1       7.976  12.552  23.993  0.00  0.00    +0.000 A 
ATOM      6  C   UNL     1       8.535  11.679  23.060  0.00  0.00    +0.000 A 
ATOM      7  C   UNL     1       8.716  12.092  21.742  0.00  0.00    +0.000 A 
ATOM      8  O   UNL     1       9.247  11.131  20.918  0.00  0.00    +0.000 OA
ATOM      9  C   UNL     1       9.735  11.608  19.637  0.00  0.00    +0.000 C 
ATOM     10  C   UNL     1       8.696  12.565  19.082  0.00  0.00    +0.000 C 
ENDROOT
BRANCH   9  11
ATOM     11  C   UNL     1      11.202  12.040  19.765  0.00  0.00    +0.000 C 
ATOM     12  F   UNL     1      11.598  12.127  21.056  0.00  0.00    +0.000 F 
ATOM     13  F   UNL     1      12.003  11.100  19.198  0.00  0.00    +0.000 F 
ATOM     14  F   UNL     1      11.491  13.203  19.166  0.00  0.00    +0.000 F 
ENDBRANCH   9  11
BRANCH   1  15
ATOM     15  C   UNL     1       9.493  15.060  19.651  0.00  0.00    +0.000 C 
ATOM     16  C   UNL     1      10.470  15.461  20.509  0.00  0.00    +0.000 C 
ATOM     17  C   UNL     1      11.530  16.520  20.387  0.00  0.00    +0.000 C 
BRANCH  15  19
ATOM     18  C   UNL     1      10.203  16.079  17.289  0.00  0.00    +0.000 C 
ATOM     19  C   UNL     1       9.167  15.747  18.326  0.00  0.00    +0.000 C 
ATOM     20  O   UNL     1       7.992  16.052  18.101  0.00  0.00    +0.000 OA
ENDBRANCH  15  19
BRANCH  16  21
ATOM     21  O   UNL     1      10.680  14.780  21.695  0.00  0.00    +0.000 OA
ATOM     22  H   UNL     1      10.459  13.840  21.573  0.00  0.00    +0.000 HD
ENDBRANCH  16  21
ENDBRANCH   1  15
BRANCH  10  23
ATOM     23  N   UNL     1       8.835  12.725  17.611  0.00  0.00    +0.000 N 
ATOM     24  O   UNL     1       7.826  12.971  16.952  0.00  0.00    +0.000 OA
ATOM     25  O   UNL     1       9.986  12.693  17.157  0.00  0.00    +0.000 OA
ENDBRANCH  10  23
TORSDOF 5
ENDMDL
MODEL 8
REMARK VINA RESULT:      -5.0      9.784     11.545
REMARK  Name = 
REMARK  7 active torsions:
REMARK  status: ('A' for Active; 'I' for Inactive)
REMARK    1  A    between atoms: C_1  and  C_2
REMARK    2  A    between atoms: C_2  and  C_4
REMARK    3  A    between atoms: C_4  and  C_8
REMARK    4  A    between atoms: C_5  and  C_6
REMARK    5  A    between atoms: C_5  and  O_7
REMARK    6  A    between atoms: C_16  and  C_17
REMARK    7  A    between atoms: C_21  and  N_22
REMARK                            x       y       z     vdW  Elec       q    Type
REMARK                         _______ _______ _______ _____ _____    ______ ____
ROOT
ATOM      1  C   UNL     1       0.703  15.634  20.361  0.00  0.00    +0.000 C 
ATOM      2  C   UNL     1       0.486  16.569  19.163  0.00  0.00    +0.000 A 
ATOM      3  C   UNL     1      -0.788  17.115  18.926  0.00  0.00    +0.000 A 
ATOM      4  C   UNL     1      -1.010  17.949  17.828  0.00  0.00    +0.000 A 
ATOM      5  C   UNL     1       0.042  18.281  16.977  0.00  0.00    +0.000 A 
ATOM      6  C   UNL     1       1.324  17.790  17.227  0.00  0.00    +0.000 A 
ATOM      7  C   UNL     1       1.543  16.935  18.305  0.00  0.00    +0.000 A 
ATOM      8  O   UNL     1       2.851  16.547  18.459  0.00  0.00    +0.000 OA
ATOM      9  C   UNL     1       3.068  15.430  19.360  0.00  0.00    +0.000 C 
ATOM     10  C   UNL     1       2.217  15.669  20.594  0.00  0.00    +0.000 C 
ENDROOT
BRANCH   9  11
ATOM     11  C   UNL     1       2.966  14.108  18.587  0.00  0.00    +0.000 C 
ATOM     12  F   UNL     1       2.241  14.236  17.452  0.00  0.00    +0.000 F 
ATOM     13  F   UNL     1       4.205  13.717  18.191  0.00  0.00    +0.000 F 
ATOM     14  F   UNL     1       2.450  13.093  19.293  0.00  0.00    +0.000 F 
ENDBRANCH   9  11
BRANCH   1  15
ATOM     15  C   UNL     1      -0.040  14.249  20.321  0.00  0.00    +0.000 C 
ATOM     16  C   UNL     1      -0.550  13.653  19.210  0.00  0.00    +0.000 C 
ATOM     17  C   UNL     1      -1.199  12.312  19.007  0.00  0.00    +0.000 C 
BRANCH  15  19
ATOM     18  C   UNL     1      -0.790  14.412  22.877  0.00  0.00    +0.000 C 
ATOM     19  C   UNL     1      -0.143  13.680  21.735  0.00  0.00    +0.000 C 
ATOM     20  O   UNL     1       0.338  12.563  21.951  0.00  0.00    +0.000 OA
ENDBRANCH  15  19
BRANCH  16  21
ATOM     21  O   UNL     1      -0.417  14.256  17.971  0.00  0.00    +0.000 OA
ATOM     22  H   UNL     1       0.150  13.705  17.401  0.00  0.00    +0.000 HD
ENDBRANCH  16  21
ENDBRANCH   1  15
BRANCH  10  23
ATOM     23  N   UNL     1       2.714  14.886  21.756  0.00  0.00    +0.000 N 
ATOM     24  O   UNL     1       3.333  13.846  21.537  0.00  0.00    +0.000 OA
ATOM     25  O   UNL     1       2.548  15.389  22.874  0.00  0.00    +0.000 OA
ENDBRANCH  10  23
TORSDOF 5
ENDMDL
MODEL 9
REMARK VINA RESULT:      -5.0      9.653     11.786
REMARK  Name = 
REMARK  7 active torsions:
REMARK  status: ('A' for Active; 'I' for Inactive)
REMARK    1  A    between atoms: C_1  and  C_2
REMARK    2  A    between atoms: C_2  and  C_4
REMARK    3  A    between atoms: C_4  and  C_8
REMARK    4  A    between atoms: C_5  and  C_6
REMARK    5  A    between atoms: C_5  and  O_7
REMARK    6  A    between atoms: C_16  and  C_17
REMARK    7  A    between atoms: C_21  and  N_22
REMARK                            x       y       z     vdW  Elec       q    Type
REMARK                         _______ _______ _______ _____ _____    ______ ____
ROOT
ATOM      1  C   UNL     1      10.218  14.463  18.910  0.00  0.00    +0.000 C 
ATOM      2  C   UNL     1       9.879  12.975  19.082  0.00  0.00    +0.000 A 
ATOM      3  C   UNL     1       9.605  12.187  17.950  0.00  0.00    +0.000 A 
ATOM      4  C   UNL     1       9.272  10.838  18.089  0.00  0.00    +0.000 A 
ATOM      5  C   UNL     1       9.249  10.249  19.351  0.00  0.00    +0.000 A 
ATOM      6  C   UNL     1       9.569  11.003  20.480  0.00  0.00    +0.000 A 
ATOM      7  C   UNL     1       9.873  12.356  20.348  0.00  0.00    +0.000 A 
ATOM      8  O   UNL     1      10.200  12.978  21.529  0.00  0.00    +0.000 OA
ATOM      9  C   UNL     1      10.217  14.428  21.486  0.00  0.00    +0.000 C 
ATOM     10  C   UNL     1      10.933  14.837  20.213  0.00  0.00    +0.000 C 
ENDROOT
BRANCH   9  11
ATOM     11  C   UNL     1       8.818  14.976  21.804  0.00  0.00    +0.000 C 
ATOM     12  F   UNL     1       7.853  14.046  21.624  0.00  0.00    +0.000 F 
ATOM     13  F   UNL     1       8.754  15.323  23.116  0.00  0.00    +0.000 F 
ATOM     14  F   UNL     1       8.478  16.065  21.102  0.00  0.00    +0.000 F 
ENDBRANCH   9  11
BRANCH   1  15
ATOM     15  C   UNL     1       9.071  15.391  18.366  0.00  0.00    +0.000 C 
ATOM     16  C   UNL     1       7.738  15.131  18.436  0.00  0.00    +0.000 C 
ATOM     17  C   UNL     1       6.540  15.950  18.043  0.00  0.00    +0.000 C 
BRANCH  15  19
ATOM     18  C   UNL     1       9.388  18.032  18.144  0.00  0.00    +0.000 C 
ATOM     19  C   UNL     1       9.680  16.625  17.702  0.00  0.00    +0.000 C 
ATOM     20  O   UNL     1      10.445  16.456  16.747  0.00  0.00    +0.000 OA
ENDBRANCH  15  19
BRANCH  16  21
ATOM     21  O   UNL     1       7.283  13.975  19.048  0.00  0.00    +0.000 OA
ATOM     22  H   UNL     1       7.376  13.225  18.434  0.00  0.00    +0.000 HD
ENDBRANCH  16  21
ENDBRANCH   1  15
BRANCH  10  23
ATOM     23  N   UNL     1      11.438  16.232  20.298  0.00  0.00    +0.000 N 
ATOM     24  O   UNL     1      11.015  16.952  21.202  0.00  0.00    +0.000 OA
ATOM     25  O   UNL     1      12.331  16.549  19.501  0.00  0.00    +0.000 OA
ENDBRANCH  10  23
TORSDOF 5
ENDMDL
