MODEL 1
REMARK VINA RESULT:      -7.4      0.000      0.000
REMARK  Name = 
REMARK  10 active torsions:
REMARK  status: ('A' for Active; 'I' for Inactive)
REMARK    1  A    between atoms: C_1  and  C_2
REMARK    2  A    between atoms: C_2  and  C_3
REMARK    3  A    between atoms: C_2  and  N_10
REMARK    4  A    between atoms: N_13  and  S_14
REMARK    5  A    between atoms: S_14  and  C_17
REMARK    6  A    between atoms: C_20  and  C_21
REMARK    7  A    between atoms: C_21  and  C_22
REMARK    8  A    between atoms: C_21  and  C_23
REMARK    9  A    between atoms: C_21  and  C_24
REMARK   10  A    between atoms: C_27  and  C_28
REMARK                            x       y       z     vdW  Elec       q    Type
REMARK                         _______ _______ _______ _____ _____    ______ ____
ROOT
ATOM      1  N   UNL     1       1.959  14.459  19.570  0.00  0.00    +0.000 NA
ATOM      2  C   UNL     1       2.150  13.498  18.461  0.00  0.00    +0.000 C 
ATOM      3  C   UNL     1       1.156  12.315  18.517  0.00  0.00    +0.000 C 
ATOM      4  N   UNL     1       1.158  11.640  19.855  0.00  0.00    +0.000 NA
ATOM      5  C   UNL     1       1.040  12.617  21.000  0.00  0.00    +0.000 C 
ATOM      6  C   UNL     1      -0.352  13.237  21.125  0.00  0.00    +0.000 C 
ATOM      7  C   UNL     1       2.111  13.725  20.844  0.00  0.00    +0.000 C 
ENDROOT
BRANCH   4   8
ATOM      8  S   UNL     1       0.159  10.260  19.971  0.00  0.00    +0.000 S 
ATOM      9  O   UNL     1      -0.105  10.013  21.373  0.00  0.00    +0.000 OA
ATOM     10  O   UNL     1      -0.923  10.417  19.020  0.00  0.00    +0.000 OA
BRANCH   8  11
ATOM     11  C   UNL     1       1.206   8.939  19.406  0.00  0.00    +0.000 A 
ATOM     12  C   UNL     1       1.710   8.990  18.110  0.00  0.00    +0.000 A 
ATOM     13  C   UNL     1       2.591   7.998  17.668  0.00  0.00    +0.000 A 
ATOM     14  C   UNL     1       2.999   6.941  18.505  0.00  0.00    +0.000 A 
ATOM     15  C   UNL     1       2.472   6.919  19.813  0.00  0.00    +0.000 A 
ATOM     16  C   UNL     1       1.586   7.908  20.265  0.00  0.00    +0.000 A 
BRANCH  14  17
ATOM     17  C   UNL     1       3.995   5.861  18.036  0.00  0.00    +0.000 C 
ATOM     18  C   UNL     1       4.932   6.348  16.906  0.00  0.00    +0.000 C 
ATOM     19  C   UNL     1       4.890   5.414  19.214  0.00  0.00    +0.000 C 
ATOM     20  C   UNL     1       3.244   4.622  17.497  0.00  0.00    +0.000 C 
ENDBRANCH  14  17
ENDBRANCH   8  11
ENDBRANCH   4   8
BRANCH   1  22
ATOM     21  C   UNL     1       4.324  15.344  19.782  0.00  0.00    +0.000 C 
ATOM     22  C   UNL     1       2.845  15.653  19.507  0.00  0.00    +0.000 C 
BRANCH  22  23
ATOM     23  C   UNL     1       2.691  16.381  18.134  0.00  0.00    +0.000 C 
ATOM     24  O   UNL     1       3.523  16.231  17.241  0.00  0.00    +0.000 OA
ATOM     25  N   UNL     1       1.591  17.200  17.944  0.00  0.00    +0.000 N 
ATOM     26  C   UNL     1       0.505  17.479  18.863  0.00  0.00    +0.000 C 
ATOM     27  C   UNL     1      -0.657  17.795  17.935  0.00  0.00    +0.000 C 
ATOM     28  C   UNL     1       0.004  18.527  16.771  0.00  0.00    +0.000 C 
ATOM     29  C   UNL     1       1.424  17.965  16.718  0.00  0.00    +0.000 C 
ENDBRANCH  22  23
ENDBRANCH   1  22
TORSDOF 5
ENDMDL
MODEL 2
REMARK VINA RESULT:      -7.1      2.567      9.221
REMARK  Name = 
REMARK  10 active torsions:
REMARK  status: ('A' for Active; 'I' for Inactive)
REMARK    1  A    between atoms: C_1  and  C_2
REMARK    2  A    between atoms: C_2  and  C_3
REMARK    3  A    between atoms: C_2  and  N_10
REMARK    4  A    between atoms: N_13  and  S_14
REMARK    5  A    between atoms: S_14  and  C_17
REMARK    6  A    between atoms: C_20  and  C_21
REMARK    7  A    between atoms: C_21  and  C_22
REMARK    8  A    between atoms: C_21  and  C_23
REMARK    9  A    between atoms: C_21  and  C_24
REMARK   10  A    between atoms: C_27  and  C_28
REMARK                            x       y       z     vdW  Elec       q    Type
REMARK                         _______ _______ _______ _____ _____    ______ ____
ROOT
ATOM      1  N   UNL     1       2.153   7.486  18.490  0.00  0.00    +0.000 NA
ATOM      2  C   UNL     1       2.149   7.464  19.970  0.00  0.00    +0.000 C 
ATOM      3  C   UNL     1       1.119   8.442  20.579  0.00  0.00    +0.000 C 
ATOM      4  N   UNL     1       1.272   9.831  20.036  0.00  0.00    +0.000 NA
ATOM      5  C   UNL     1       1.354   9.861  18.530  0.00  0.00    +0.000 C 
ATOM      6  C   UNL     1       0.021   9.556  17.844  0.00  0.00    +0.000 C 
ATOM      7  C   UNL     1       2.444   8.868  18.053  0.00  0.00    +0.000 C 
ENDROOT
BRANCH   4   8
ATOM      8  S   UNL     1       0.236  10.997  20.731  0.00  0.00    +0.000 S 
ATOM      9  O   UNL     1      -1.093  10.796  20.193  0.00  0.00    +0.000 OA
ATOM     10  O   UNL     1       0.474  11.004  22.161  0.00  0.00    +0.000 OA
BRANCH   8  11
ATOM     11  C   UNL     1       0.832  12.534  20.064  0.00  0.00    +0.000 A 
ATOM     12  C   UNL     1      -0.011  13.280  19.244  0.00  0.00    +0.000 A 
ATOM     13  C   UNL     1       0.411  14.524  18.765  0.00  0.00    +0.000 A 
ATOM     14  C   UNL     1       1.672  15.060  19.097  0.00  0.00    +0.000 A 
ATOM     15  C   UNL     1       2.500  14.279  19.931  0.00  0.00    +0.000 A 
ATOM     16  C   UNL     1       2.087  13.029  20.414  0.00  0.00    +0.000 A 
BRANCH  14  17
ATOM     17  C   UNL     1       2.132  16.445  18.599  0.00  0.00    +0.000 C 
ATOM     18  C   UNL     1       3.130  16.366  17.420  0.00  0.00    +0.000 C 
ATOM     19  C   UNL     1       0.916  17.268  18.118  0.00  0.00    +0.000 C 
ATOM     20  C   UNL     1       2.833  17.227  19.732  0.00  0.00    +0.000 C 
ENDBRANCH  14  17
ENDBRANCH   8  11
ENDBRANCH   4   8
BRANCH   1  22
ATOM     21  C   UNL     1       4.340   7.129  17.260  0.00  0.00    +0.000 C 
ATOM     22  C   UNL     1       3.077   6.500  17.864  0.00  0.00    +0.000 C 
BRANCH  22  23
ATOM     23  C   UNL     1       3.463   5.384  18.885  0.00  0.00    +0.000 C 
ATOM     24  O   UNL     1       4.432   5.517  19.631  0.00  0.00    +0.000 OA
ATOM     25  N   UNL     1       2.688   4.239  18.932  0.00  0.00    +0.000 N 
ATOM     26  C   UNL     1       1.508   3.916  18.155  0.00  0.00    +0.000 C 
ATOM     27  C   UNL     1       0.737   2.980  19.073  0.00  0.00    +0.000 C 
ATOM     28  C   UNL     1       1.833   2.184  19.774  0.00  0.00    +0.000 C 
ATOM     29  C   UNL     1       3.034   3.129  19.807  0.00  0.00    +0.000 C 
ENDBRANCH  22  23
ENDBRANCH   1  22
TORSDOF 5
ENDMDL
MODEL 3
REMARK VINA RESULT:      -6.8      1.787      3.062
REMARK  Name = 
REMARK  10 active torsions:
REMARK  status: ('A' for Active; 'I' for Inactive)
REMARK    1  A    between atoms: C_1  and  C_2
REMARK    2  A    between atoms: C_2  and  C_3
REMARK    3  A    between atoms: C_2  and  N_10
REMARK    4  A    between atoms: N_13  and  S_14
REMARK    5  A    between atoms: S_14  and  C_17
REMARK    6  A    between atoms: C_20  and  C_21
REMARK    7  A    between atoms: C_21  and  C_22
REMARK    8  A    between atoms: C_21  and  C_23
REMARK    9  A    between atoms: C_21  and  C_24
REMARK   10  A    between atoms: C_27  and  C_28
REMARK                            x       y       z     vdW  Elec       q    Type
REMARK                         _______ _______ _______ _____ _____    ______ ____
ROOT
ATOM      1  N   UNL     1       2.650  14.786  19.002  0.00  0.00    +0.000 NA
ATOM      2  C   UNL     1       2.403  13.700  18.027  0.00  0.00    +0.000 C 
ATOM      3  C   UNL     1       1.304  12.717  18.492  0.00  0.00    +0.000 C 
ATOM      4  N   UNL     1       1.569  12.189  19.870  0.00  0.00    +0.000 NA
ATOM      5  C   UNL     1       1.897  13.281  20.859  0.00  0.00    +0.000 C 
ATOM      6  C   UNL     1       0.689  14.140  21.235  0.00  0.00    +0.000 C 
ATOM      7  C   UNL     1       3.032  14.168  20.289  0.00  0.00    +0.000 C 
ENDROOT
BRANCH   4   8
ATOM      8  S   UNL     1       0.454  11.019  20.422  0.00  0.00    +0.000 S 
ATOM      9  O   UNL     1       0.519  10.984  21.868  0.00  0.00    +0.000 OA
ATOM     10  O   UNL     1      -0.801  11.243  19.732  0.00  0.00    +0.000 OA
BRANCH   8  11
ATOM     11  C   UNL     1       1.139   9.484  19.841  0.00  0.00    +0.000 A 
ATOM     12  C   UNL     1       1.488   9.372  18.499  0.00  0.00    +0.000 A 
ATOM     13  C   UNL     1       2.092   8.199  18.035  0.00  0.00    +0.000 A 
ATOM     14  C   UNL     1       2.372   7.118  18.894  0.00  0.00    +0.000 A 
ATOM     15  C   UNL     1       2.007   7.265  20.249  0.00  0.00    +0.000 A 
ATOM     16  C   UNL     1       1.399   8.436  20.724  0.00  0.00    +0.000 A 
BRANCH  14  17
ATOM     17  C   UNL     1       3.067   5.833  18.398  0.00  0.00    +0.000 C 
ATOM     18  C   UNL     1       2.076   4.781  17.847  0.00  0.00    +0.000 C 
ATOM     19  C   UNL     1       4.059   6.170  17.262  0.00  0.00    +0.000 C 
ATOM     20  C   UNL     1       3.851   5.158  19.545  0.00  0.00    +0.000 C 
ENDBRANCH  14  17
ENDBRANCH   8  11
ENDBRANCH   4   8
BRANCH   1  22
ATOM     21  C   UNL     1       3.441  16.273  17.108  0.00  0.00    +0.000 C 
ATOM     22  C   UNL     1       3.645  15.799  18.554  0.00  0.00    +0.000 C 
BRANCH  22  23
ATOM     23  C   UNL     1       3.663  17.020  19.526  0.00  0.00    +0.000 C 
ATOM     24  O   UNL     1       2.698  17.779  19.607  0.00  0.00    +0.000 OA
ATOM     25  N   UNL     1       4.792  17.229  20.299  0.00  0.00    +0.000 N 
ATOM     26  C   UNL     1       6.005  16.437  20.356  0.00  0.00    +0.000 C 
ATOM     27  C   UNL     1       6.510  16.683  21.770  0.00  0.00    +0.000 C 
ATOM     28  C   UNL     1       6.144  18.141  22.030  0.00  0.00    +0.000 C 
ATOM     29  C   UNL     1       4.905  18.388  21.171  0.00  0.00    +0.000 C 
ENDBRANCH  22  23
ENDBRANCH   1  22
TORSDOF 5
ENDMDL
MODEL 4
REMARK VINA RESULT:      -6.8      2.601      9.132
REMARK  Name = 
REMARK  10 active torsions:
REMARK  status: ('A' for Active; 'I' for Inactive)
REMARK    1  A    between atoms: C_1  and  C_2
REMARK    2  A    between atoms: C_2  and  C_3
REMARK    3  A    between atoms: C_2  and  N_10
REMARK    4  A    between atoms: N_13  and  S_14
REMARK    5  A    between atoms: S_14  and  C_17
REMARK    6  A    between atoms: C_20  and  C_21
REMARK    7  A    between atoms: C_21  and  C_22
REMARK    8  A    between atoms: C_21  and  C_23
REMARK    9  A    between atoms: C_21  and  C_24
REMARK   10  A    between atoms: C_27  and  C_28
REMARK                            x       y       z     vdW  Elec       q    Type
REMARK                         _______ _______ _______ _____ _____    ______ ____
ROOT
ATOM      1  N   UNL     1       2.108   7.452  18.517  0.00  0.00    +0.000 NA
ATOM      2  C   UNL     1       2.120   7.500  19.996  0.00  0.00    +0.000 C 
ATOM      3  C   UNL     1       1.124   8.534  20.569  0.00  0.00    +0.000 C 
ATOM      4  N   UNL     1       1.310   9.891  19.960  0.00  0.00    +0.000 NA
ATOM      5  C   UNL     1       1.375   9.849  18.453  0.00  0.00    +0.000 C 
ATOM      6  C   UNL     1       0.027   9.550  17.795  0.00  0.00    +0.000 C 
ATOM      7  C   UNL     1       2.432   8.804  18.013  0.00  0.00    +0.000 C 
ENDROOT
BRANCH   4   8
ATOM      8  S   UNL     1       0.315  11.118  20.609  0.00  0.00    +0.000 S 
ATOM      9  O   UNL     1      -0.953  11.086  19.910  0.00  0.00    +0.000 OA
ATOM     10  O   UNL     1       0.377  11.020  22.054  0.00  0.00    +0.000 OA
BRANCH   8  11
ATOM     11  C   UNL     1       1.132  12.620  20.120  0.00  0.00    +0.000 A 
ATOM     12  C   UNL     1       2.290  13.002  20.790  0.00  0.00    +0.000 A 
ATOM     13  C   UNL     1       2.987  14.142  20.377  0.00  0.00    +0.000 A 
ATOM     14  C   UNL     1       2.556  14.920  19.284  0.00  0.00    +0.000 A 
ATOM     15  C   UNL     1       1.380  14.504  18.625  0.00  0.00    +0.000 A 
ATOM     16  C   UNL     1       0.672  13.364  19.034  0.00  0.00    +0.000 A 
BRANCH  14  17
ATOM     17  C   UNL     1       3.337  16.160  18.802  0.00  0.00    +0.000 C 
ATOM     18  C   UNL     1       3.459  17.259  19.883  0.00  0.00    +0.000 C 
ATOM     19  C   UNL     1       4.771  15.759  18.389  0.00  0.00    +0.000 C 
ATOM     20  C   UNL     1       2.640  16.803  17.581  0.00  0.00    +0.000 C 
ENDBRANCH  14  17
ENDBRANCH   8  11
ENDBRANCH   4   8
BRANCH   1  22
ATOM     21  C   UNL     1       4.204   6.983  17.173  0.00  0.00    +0.000 C 
ATOM     22  C   UNL     1       2.996   6.412  17.930  0.00  0.00    +0.000 C 
BRANCH  22  23
ATOM     23  C   UNL     1       3.470   5.409  19.028  0.00  0.00    +0.000 C 
ATOM     24  O   UNL     1       4.521   5.591  19.640  0.00  0.00    +0.000 OA
ATOM     25  N   UNL     1       2.676   4.309  19.300  0.00  0.00    +0.000 N 
ATOM     26  C   UNL     1       1.406   3.944  18.704  0.00  0.00    +0.000 C 
ATOM     27  C   UNL     1       0.723   3.152  19.809  0.00  0.00    +0.000 C 
ATOM     28  C   UNL     1       1.873   2.402  20.474  0.00  0.00    +0.000 C 
ATOM     29  C   UNL     1       3.093   3.296  20.258  0.00  0.00    +0.000 C 
ENDBRANCH  22  23
ENDBRANCH   1  22
TORSDOF 5
ENDMDL
MODEL 5
REMARK VINA RESULT:      -6.7      4.215      9.214
REMARK  Name = 
REMARK  10 active torsions:
REMARK  status: ('A' for Active; 'I' for Inactive)
REMARK    1  A    between atoms: C_1  and  C_2
REMARK    2  A    between atoms: C_2  and  C_3
REMARK    3  A    between atoms: C_2  and  N_10
REMARK    4  A    between atoms: N_13  and  S_14
REMARK    5  A    between atoms: S_14  and  C_17
REMARK    6  A    between atoms: C_20  and  C_21
REMARK    7  A    between atoms: C_21  and  C_22
REMARK    8  A    between atoms: C_21  and  C_23
REMARK    9  A    between atoms: C_21  and  C_24
REMARK   10  A    between atoms: C_27  and  C_28
REMARK                            x       y       z     vdW  Elec       q    Type
REMARK                         _______ _______ _______ _____ _____    ______ ____
ROOT
ATOM      1  N   UNL     1       2.166   6.809  20.155  0.00  0.00    +0.000 NA
ATOM      2  C   UNL     1       2.200   7.521  18.858  0.00  0.00    +0.000 C 
ATOM      3  C   UNL     1       2.056   9.053  19.013  0.00  0.00    +0.000 C 
ATOM      4  N   UNL     1       0.855   9.425  19.829  0.00  0.00    +0.000 NA
ATOM      5  C   UNL     1       0.767   8.651  21.122  0.00  0.00    +0.000 C 
ATOM      6  C   UNL     1       1.813   9.074  22.154  0.00  0.00    +0.000 C 
ATOM      7  C   UNL     1       0.888   7.135  20.823  0.00  0.00    +0.000 C 
ENDROOT
BRANCH   4   8
ATOM      8  S   UNL     1       0.566  11.103  19.966  0.00  0.00    +0.000 S 
ATOM      9  O   UNL     1       0.677  11.466  21.364  0.00  0.00    +0.000 OA
ATOM     10  O   UNL     1       1.356  11.772  18.952  0.00  0.00    +0.000 OA
BRANCH   8  11
ATOM     11  C   UNL     1      -1.150  11.267  19.529  0.00  0.00    +0.000 A 
ATOM     12  C   UNL     1      -1.928  12.200  20.208  0.00  0.00    +0.000 A 
ATOM     13  C   UNL     1      -3.261  12.395  19.834  0.00  0.00    +0.000 A 
ATOM     14  C   UNL     1      -3.847  11.678  18.772  0.00  0.00    +0.000 A 
ATOM     15  C   UNL     1      -3.031  10.742  18.103  0.00  0.00    +0.000 A 
ATOM     16  C   UNL     1      -1.693  10.537  18.473  0.00  0.00    +0.000 A 
BRANCH  14  17
ATOM     17  C   UNL     1      -5.307  11.910  18.332  0.00  0.00    +0.000 C 
ATOM     18  C   UNL     1      -5.443  12.233  16.825  0.00  0.00    +0.000 C 
ATOM     19  C   UNL     1      -6.154  10.647  18.609  0.00  0.00    +0.000 C 
ATOM     20  C   UNL     1      -5.929  13.094  19.105  0.00  0.00    +0.000 C 
ENDBRANCH  14  17
ENDBRANCH   8  11
ENDBRANCH   4   8
BRANCH   1  22
ATOM     21  C   UNL     1       1.193   4.503  20.551  0.00  0.00    +0.000 C 
ATOM     22  C   UNL     1       2.381   5.340  20.055  0.00  0.00    +0.000 C 
BRANCH  22  23
ATOM     23  C   UNL     1       2.752   4.937  18.593  0.00  0.00    +0.000 C 
ATOM     24  O   UNL     1       1.880   4.672  17.768  0.00  0.00    +0.000 OA
ATOM     25  N   UNL     1       4.091   4.888  18.245  0.00  0.00    +0.000 N 
ATOM     26  C   UNL     1       5.248   5.185  19.066  0.00  0.00    +0.000 C 
ATOM     27  C   UNL     1       6.281   5.647  18.050  0.00  0.00    +0.000 C 
ATOM     28  C   UNL     1       6.003   4.770  16.834  0.00  0.00    +0.000 C 
ATOM     29  C   UNL     1       4.511   4.449  16.923  0.00  0.00    +0.000 C 
ENDBRANCH  22  23
ENDBRANCH   1  22
TORSDOF 5
ENDMDL
MODEL 6
REMARK VINA RESULT:      -6.7      4.148      9.190
REMARK  Name = 
REMARK  10 active torsions:
REMARK  status: ('A' for Active; 'I' for Inactive)
REMARK    1  A    between atoms: C_1  and  C_2
REMARK    2  A    between atoms: C_2  and  C_3
REMARK    3  A    between atoms: C_2  and  N_10
REMARK    4  A    between atoms: N_13  and  S_14
REMARK    5  A    between atoms: S_14  and  C_17
REMARK    6  A    between atoms: C_20  and  C_21
REMARK    7  A    between atoms: C_21  and  C_22
REMARK    8  A    between atoms: C_21  and  C_23
REMARK    9  A    between atoms: C_21  and  C_24
REMARK   10  A    between atoms: C_27  and  C_28
REMARK                            x       y       z     vdW  Elec       q    Type
REMARK                         _______ _______ _______ _____ _____    ______ ____
ROOT
ATOM      1  N   UNL     1       2.097   6.807  20.148  0.00  0.00    +0.000 NA
ATOM      2  C   UNL     1       2.136   7.545  18.866  0.00  0.00    +0.000 C 
ATOM      3  C   UNL     1       2.050   9.077  19.055  0.00  0.00    +0.000 C 
ATOM      4  N   UNL     1       0.877   9.474  19.899  0.00  0.00    +0.000 NA
ATOM      5  C   UNL     1       0.782   8.676  21.176  0.00  0.00    +0.000 C 
ATOM      6  C   UNL     1       1.858   9.040  22.200  0.00  0.00    +0.000 C 
ATOM      7  C   UNL     1       0.843   7.164  20.844  0.00  0.00    +0.000 C 
ENDROOT
BRANCH   4   8
ATOM      8  S   UNL     1       0.650  11.158  20.076  0.00  0.00    +0.000 S 
ATOM      9  O   UNL     1       0.686  11.470  21.489  0.00  0.00    +0.000 OA
ATOM     10  O   UNL     1       1.532  11.824  19.137  0.00  0.00    +0.000 OA
BRANCH   8  11
ATOM     11  C   UNL     1      -1.025  11.412  19.537  0.00  0.00    +0.000 A 
ATOM     12  C   UNL     1      -1.513  10.647  18.481  0.00  0.00    +0.000 A 
ATOM     13  C   UNL     1      -2.848  10.781  18.086  0.00  0.00    +0.000 A 
ATOM     14  C   UNL     1      -3.730  11.667  18.737  0.00  0.00    +0.000 A 
ATOM     15  C   UNL     1      -3.204  12.425  19.804  0.00  0.00    +0.000 A 
ATOM     16  C   UNL     1      -1.866  12.301  20.206  0.00  0.00    +0.000 A 
BRANCH  14  17
ATOM     17  C   UNL     1      -5.211  11.797  18.329  0.00  0.00    +0.000 C 
ATOM     18  C   UNL     1      -5.945  12.943  19.064  0.00  0.00    +0.000 C 
ATOM     19  C   UNL     1      -5.324  12.077  16.814  0.00  0.00    +0.000 C 
ATOM     20  C   UNL     1      -5.981  10.495  18.643  0.00  0.00    +0.000 C 
ENDBRANCH  14  17
ENDBRANCH   8  11
ENDBRANCH   4   8
BRANCH   1  22
ATOM     21  C   UNL     1       1.027   4.531  20.460  0.00  0.00    +0.000 C 
ATOM     22  C   UNL     1       2.258   5.333  20.013  0.00  0.00    +0.000 C 
BRANCH  22  23
ATOM     23  C   UNL     1       2.648   4.954  18.550  0.00  0.00    +0.000 C 
ATOM     24  O   UNL     1       1.787   4.775  17.691  0.00  0.00    +0.000 OA
ATOM     25  N   UNL     1       3.991   4.827  18.240  0.00  0.00    +0.000 N 
ATOM     26  C   UNL     1       5.139   5.020  19.104  0.00  0.00    +0.000 C 
ATOM     27  C   UNL     1       6.231   5.445  18.135  0.00  0.00    +0.000 C 
ATOM     28  C   UNL     1       5.934   4.628  16.882  0.00  0.00    +0.000 C 
ATOM     29  C   UNL     1       4.423   4.404  16.916  0.00  0.00    +0.000 C 
ENDBRANCH  22  23
ENDBRANCH   1  22
TORSDOF 5
ENDMDL
MODEL 7
REMARK VINA RESULT:      -6.7      2.200      3.669
REMARK  Name = 
REMARK  10 active torsions:
REMARK  status: ('A' for Active; 'I' for Inactive)
REMARK    1  A    between atoms: C_1  and  C_2
REMARK    2  A    between atoms: C_2  and  C_3
REMARK    3  A    between atoms: C_2  and  N_10
REMARK    4  A    between atoms: N_13  and  S_14
REMARK    5  A    between atoms: S_14  and  C_17
REMARK    6  A    between atoms: C_20  and  C_21
REMARK    7  A    between atoms: C_21  and  C_22
REMARK    8  A    between atoms: C_21  and  C_23
REMARK    9  A    between atoms: C_21  and  C_24
REMARK   10  A    between atoms: C_27  and  C_28
REMARK                            x       y       z     vdW  Elec       q    Type
REMARK                         _______ _______ _______ _____ _____    ______ ____
ROOT
ATOM      1  N   UNL     1       2.665  14.932  19.874  0.00  0.00    +0.000 NA
ATOM      2  C   UNL     1       3.161  13.772  19.100  0.00  0.00    +0.000 C 
ATOM      3  C   UNL     1       2.038  12.779  18.724  0.00  0.00    +0.000 C 
ATOM      4  N   UNL     1       1.235  12.359  19.918  0.00  0.00    +0.000 NA
ATOM      5  C   UNL     1       0.786  13.529  20.759  0.00  0.00    +0.000 C 
ATOM      6  C   UNL     1      -0.314  14.362  20.099  0.00  0.00    +0.000 C 
ATOM      7  C   UNL     1       2.008  14.420  21.095  0.00  0.00    +0.000 C 
ENDROOT
BRANCH   4   8
ATOM      8  S   UNL     1       0.034  11.185  19.606  0.00  0.00    +0.000 S 
ATOM      9  O   UNL     1      -0.713  10.971  20.827  0.00  0.00    +0.000 OA
ATOM     10  O   UNL     1      -0.632  11.552  18.372  0.00  0.00    +0.000 OA
BRANCH   8  11
ATOM     11  C   UNL     1       0.969   9.701  19.310  0.00  0.00    +0.000 A 
ATOM     12  C   UNL     1       1.252   8.862  20.384  0.00  0.00    +0.000 A 
ATOM     13  C   UNL     1       1.925   7.657  20.163  0.00  0.00    +0.000 A 
ATOM     14  C   UNL     1       2.321   7.252  18.872  0.00  0.00    +0.000 A 
ATOM     15  C   UNL     1       2.017   8.125  17.806  0.00  0.00    +0.000 A 
ATOM     16  C   UNL     1       1.345   9.338  18.017  0.00  0.00    +0.000 A 
BRANCH  14  17
ATOM     17  C   UNL     1       3.035   5.910  18.616  0.00  0.00    +0.000 C 
ATOM     18  C   UNL     1       3.424   5.171  19.918  0.00  0.00    +0.000 C 
ATOM     19  C   UNL     1       2.117   4.965  17.808  0.00  0.00    +0.000 C 
ATOM     20  C   UNL     1       4.337   6.127  17.814  0.00  0.00    +0.000 C 
ENDBRANCH  14  17
ENDBRANCH   8  11
ENDBRANCH   4   8
BRANCH   1  22
ATOM     21  C   UNL     1       3.257  16.998  21.217  0.00  0.00    +0.000 C 
ATOM     22  C   UNL     1       3.704  15.951  20.187  0.00  0.00    +0.000 C 
BRANCH  22  23
ATOM     23  C   UNL     1       5.026  15.262  20.654  0.00  0.00    +0.000 C 
ATOM     24  O   UNL     1       5.114  14.754  21.770  0.00  0.00    +0.000 OA
ATOM     25  N   UNL     1       6.098  15.235  19.780  0.00  0.00    +0.000 N 
ATOM     26  C   UNL     1       6.173  15.757  18.429  0.00  0.00    +0.000 C 
ATOM     27  C   UNL     1       7.214  14.862  17.773  0.00  0.00    +0.000 C 
ATOM     28  C   UNL     1       8.210  14.591  18.895  0.00  0.00    +0.000 C 
ATOM     29  C   UNL     1       7.381  14.677  20.176  0.00  0.00    +0.000 C 
ENDBRANCH  22  23
ENDBRANCH   1  22
TORSDOF 5
ENDMDL
MODEL 8
REMARK VINA RESULT:      -6.6      4.007      7.318
REMARK  Name = 
REMARK  10 active torsions:
REMARK  status: ('A' for Active; 'I' for Inactive)
REMARK    1  A    between atoms: C_1  and  C_2
REMARK    2  A    between atoms: C_2  and  C_3
REMARK    3  A    between atoms: C_2  and  N_10
REMARK    4  A    between atoms: N_13  and  S_14
REMARK    5  A    between atoms: S_14  and  C_17
REMARK    6  A    between atoms: C_20  and  C_21
REMARK    7  A    between atoms: C_21  and  C_22
REMARK    8  A    between atoms: C_21  and  C_23
REMARK    9  A    between atoms: C_21  and  C_24
REMARK   10  A    between atoms: C_27  and  C_28
REMARK                            x       y       z     vdW  Elec       q    Type
REMARK                         _______ _______ _______ _____ _____    ______ ____
ROOT
ATOM      1  N   UNL     1       0.350  12.660  19.666  0.00  0.00    +0.000 NA
ATOM      2  C   UNL     1       1.699  12.363  20.199  0.00  0.00    +0.000 C 
ATOM      3  C   UNL     1       2.521  13.640  20.489  0.00  0.00    +0.000 C 
ATOM      4  N   UNL     1       2.571  14.559  19.305  0.00  0.00    +0.000 NA
ATOM      5  C   UNL     1       1.209  14.809  18.706  0.00  0.00    +0.000 C 
ATOM      6  C   UNL     1       0.319  15.700  19.573  0.00  0.00    +0.000 C 
ATOM      7  C   UNL     1       0.510  13.454  18.430  0.00  0.00    +0.000 C 
ENDROOT
BRANCH   4   8
ATOM      8  S   UNL     1       3.542  15.948  19.509  0.00  0.00    +0.000 S 
ATOM      9  O   UNL     1       3.262  16.857  18.417  0.00  0.00    +0.000 OA
ATOM     10  O   UNL     1       3.422  16.374  20.889  0.00  0.00    +0.000 OA
BRANCH   8  11
ATOM     11  C   UNL     1       5.195  15.341  19.259  0.00  0.00    +0.000 A 
ATOM     12  C   UNL     1       5.576  14.941  17.981  0.00  0.00    +0.000 A 
ATOM     13  C   UNL     1       6.891  14.526  17.747  0.00  0.00    +0.000 A 
ATOM     14  C   UNL     1       7.858  14.511  18.772  0.00  0.00    +0.000 A 
ATOM     15  C   UNL     1       7.440  14.924  20.054  0.00  0.00    +0.000 A 
ATOM     16  C   UNL     1       6.123  15.339  20.300  0.00  0.00    +0.000 A 
BRANCH  14  17
ATOM     17  C   UNL     1       9.318  14.086  18.516  0.00  0.00    +0.000 C 
ATOM     18  C   UNL     1      10.112  13.825  19.817  0.00  0.00    +0.000 C 
ATOM     19  C   UNL     1       9.356  12.783  17.686  0.00  0.00    +0.000 C 
ATOM     20  C   UNL     1      10.078  15.183  17.736  0.00  0.00    +0.000 C 
ENDBRANCH  14  17
ENDBRANCH   8  11
ENDBRANCH   4   8
BRANCH   1  22
ATOM     21  C   UNL     1      -0.443  10.439  20.596  0.00  0.00    +0.000 C 
ATOM     22  C   UNL     1      -0.501  11.458  19.448  0.00  0.00    +0.000 C 
BRANCH  22  23
ATOM     23  C   UNL     1      -1.980  11.875  19.170  0.00  0.00    +0.000 C 
ATOM     24  O   UNL     1      -2.567  12.660  19.912  0.00  0.00    +0.000 OA
ATOM     25  N   UNL     1      -2.616  11.341  18.063  0.00  0.00    +0.000 N 
ATOM     26  C   UNL     1      -2.084  10.427  17.070  0.00  0.00    +0.000 C 
ATOM     27  C   UNL     1      -2.894  10.761  15.827  0.00  0.00    +0.000 C 
ATOM     28  C   UNL     1      -4.278  11.087  16.380  0.00  0.00    +0.000 C 
ATOM     29  C   UNL     1      -4.015  11.628  17.785  0.00  0.00    +0.000 C 
ENDBRANCH  22  23
ENDBRANCH   1  22
TORSDOF 5
ENDMDL
MODEL 9
REMARK VINA RESULT:      -6.6      4.100      5.917
REMARK  Name = 
REMARK  10 active torsions:
REMARK  status: ('A' for Active; 'I' for Inactive)
REMARK    1  A    between atoms: C_1  and  C_2
REMARK    2  A    between atoms: C_2  and  C_3
REMARK    3  A    between atoms: C_2  and  N_10
REMARK    4  A    between atoms: N_13  and  S_14
REMARK    5  A    between atoms: S_14  and  C_17
REMARK    6  A    between atoms: C_20  and  C_21
REMARK    7  A    between atoms: C_21  and  C_22
REMARK    8  A    between atoms: C_21  and  C_23
REMARK    9  A    between atoms: C_21  and  C_24
REMARK   10  A    between atoms: C_27  and  C_28
REMARK                            x       y       z     vdW  Elec       q    Type
REMARK                         _______ _______ _______ _____ _____    ______ ____
ROOT
ATOM      1  N   UNL     1      -2.794  12.831  22.383  0.00  0.00    +0.000 NA
ATOM      2  C   UNL     1      -1.816  11.833  22.871  0.00  0.00    +0.000 C 
ATOM      3  C   UNL     1      -0.469  11.896  22.115  0.00  0.00    +0.000 C 
ATOM      4  N   UNL     1      -0.654  11.824  20.629  0.00  0.00    +0.000 NA
ATOM      5  C   UNL     1      -1.705  12.784  20.126  0.00  0.00    +0.000 C 
ATOM      6  C   UNL     1      -1.260  14.247  20.171  0.00  0.00    +0.000 C 
ATOM      7  C   UNL     1      -3.009  12.593  20.940  0.00  0.00    +0.000 C 
ENDROOT
BRANCH   4   8
ATOM      8  S   UNL     1       0.791  11.788  19.721  0.00  0.00    +0.000 S 
ATOM      9  O   UNL     1       0.487  12.225  18.374  0.00  0.00    +0.000 OA
ATOM     10  O   UNL     1       1.823  12.436  20.505  0.00  0.00    +0.000 OA
BRANCH   8  11
ATOM     11  C   UNL     1       1.178  10.055  19.622  0.00  0.00    +0.000 A 
ATOM     12  C   UNL     1       1.690   9.549  18.431  0.00  0.00    +0.000 A 
ATOM     13  C   UNL     1       2.066   8.205  18.353  0.00  0.00    +0.000 A 
ATOM     14  C   UNL     1       1.954   7.336  19.457  0.00  0.00    +0.000 A 
ATOM     15  C   UNL     1       1.433   7.881  20.650  0.00  0.00    +0.000 A 
ATOM     16  C   UNL     1       1.050   9.228  20.738  0.00  0.00    +0.000 A 
BRANCH  14  17
ATOM     17  C   UNL     1       2.396   5.861  19.389  0.00  0.00    +0.000 C 
ATOM     18  C   UNL     1       1.905   5.137  18.114  0.00  0.00    +0.000 C 
ATOM     19  C   UNL     1       3.938   5.766  19.406  0.00  0.00    +0.000 C 
ATOM     20  C   UNL     1       1.847   5.069  20.597  0.00  0.00    +0.000 C 
ENDBRANCH  14  17
ENDBRANCH   8  11
ENDBRANCH   4   8
BRANCH   1  22
ATOM     21  C   UNL     1      -4.017  12.115  24.484  0.00  0.00    +0.000 C 
ATOM     22  C   UNL     1      -4.076  12.854  23.140  0.00  0.00    +0.000 C 
BRANCH  22  23
ATOM     23  C   UNL     1      -4.563  14.323  23.350  0.00  0.00    +0.000 C 
ATOM     24  O   UNL     1      -3.785  15.201  23.720  0.00  0.00    +0.000 OA
ATOM     25  N   UNL     1      -5.894  14.615  23.108  0.00  0.00    +0.000 N 
ATOM     26  C   UNL     1      -6.943  13.727  22.650  0.00  0.00    +0.000 C 
ATOM     27  C   UNL     1      -7.892  14.664  21.918  0.00  0.00    +0.000 C 
ATOM     28  C   UNL     1      -7.830  15.947  22.740  0.00  0.00    +0.000 C 
ATOM     29  C   UNL     1      -6.431  15.945  23.355  0.00  0.00    +0.000 C 
ENDBRANCH  22  23
ENDBRANCH   1  22
TORSDOF 5
ENDMDL
