MODEL 1
REMARK VINA RESULT:      -7.2      0.000      0.000
REMARK  Name = 
REMARK  5 active torsions:
REMARK  status: ('A' for Active; 'I' for Inactive)
REMARK    1  A    between atoms: C_1  and  N_2
REMARK    2  A    between atoms: N_2  and  C_3
REMARK    3  A    between atoms: N_2  and  C_4
REMARK    4  A    between atoms: C_4  and  C_5
REMARK    5  A    between atoms: C_8  and  C_9
REMARK                            x       y       z     vdW  Elec       q    Type
REMARK                         _______ _______ _______ _____ _____    ______ ____
ROOT
ATOM      1  C   UNL     1       1.263   9.091  19.157  0.00  0.00    +0.000 A 
ATOM      2  C   UNL     1       1.945   8.882  17.961  0.00  0.00    +0.000 A 
ATOM      3  C   UNL     1       2.810   7.812  17.813  0.00  0.00    +0.000 A 
ATOM      4  C   UNL     1       3.047   6.899  18.856  0.00  0.00    +0.000 A 
ATOM      5  N   UNL     1       2.380   7.091  20.029  0.00  0.00    +0.000 NA
ATOM      6  C   UNL     1       1.529   8.156  20.152  0.00  0.00    +0.000 A 
ENDROOT
BRANCH   4   7
ATOM      7  C   UNL     1       3.757   5.566  18.710  0.00  0.00    +0.000 A 
ATOM      8  C   UNL     1       2.854   4.514  18.497  0.00  0.00    +0.000 A 
ATOM      9  C   UNL     1       2.946   3.797  17.309  0.00  0.00    +0.000 A 
ATOM     10  C   UNL     1       4.145   3.722  16.625  0.00  0.00    +0.000 A 
ATOM     11  C   UNL     1       5.209   4.514  17.024  0.00  0.00    +0.000 A 
ATOM     12  C   UNL     1       6.445   4.394  16.383  0.00  0.00    +0.000 A 
ATOM     13  N   UNL     1       7.594   4.644  16.981  0.00  0.00    +0.000 NA
ATOM     14  C   UNL     1       7.487   5.076  18.268  0.00  0.00    +0.000 A 
ATOM     15  C   UNL     1       6.287   5.492  18.860  0.00  0.00    +0.000 A 
ATOM     16  C   UNL     1       5.070   5.320  18.173  0.00  0.00    +0.000 A 
ENDBRANCH   4   7
BRANCH   1  17
ATOM     17  C   UNL     1       0.397  10.317  19.445  0.00  0.00    +0.000 C 
BRANCH  17  19
ATOM     18  C   UNL     1      -1.710  10.156  18.221  0.00  0.00    +0.000 C 
ATOM     19  N   UNL     1      -0.438  10.834  18.321  0.00  0.00    +0.000 NA
ATOM     20  C   UNL     1      -0.689  12.272  18.504  0.00  0.00    +0.000 C 
ENDBRANCH  17  19
ENDBRANCH   1  17
TORSDOF 3
ENDMDL
MODEL 2
REMARK VINA RESULT:      -7.2      1.561      2.355
REMARK  Name = 
REMARK  5 active torsions:
REMARK  status: ('A' for Active; 'I' for Inactive)
REMARK    1  A    between atoms: C_1  and  N_2
REMARK    2  A    between atoms: N_2  and  C_3
REMARK    3  A    between atoms: N_2  and  C_4
REMARK    4  A    between atoms: C_4  and  C_5
REMARK    5  A    between atoms: C_8  and  C_9
REMARK                            x       y       z     vdW  Elec       q    Type
REMARK                         _______ _______ _______ _____ _____    ______ ____
ROOT
ATOM      1  C   UNL     1       0.810  10.055  19.045  0.00  0.00    +0.000 A 
ATOM      2  C   UNL     1       1.526   9.431  18.027  0.00  0.00    +0.000 A 
ATOM      3  C   UNL     1       2.170   8.226  18.247  0.00  0.00    +0.000 A 
ATOM      4  C   UNL     1       2.141   7.585  19.499  0.00  0.00    +0.000 A 
ATOM      5  N   UNL     1       1.437   8.184  20.500  0.00  0.00    +0.000 NA
ATOM      6  C   UNL     1       0.808   9.376  20.259  0.00  0.00    +0.000 A 
ENDROOT
BRANCH   4   7
ATOM      7  C   UNL     1       2.581   6.157  19.764  0.00  0.00    +0.000 A 
ATOM      8  C   UNL     1       1.770   5.530  20.720  0.00  0.00    +0.000 A 
ATOM      9  C   UNL     1       1.052   4.401  20.338  0.00  0.00    +0.000 A 
ATOM     10  C   UNL     1       1.494   3.608  19.296  0.00  0.00    +0.000 A 
ATOM     11  C   UNL     1       2.551   4.039  18.511  0.00  0.00    +0.000 A 
ATOM     12  C   UNL     1       3.049   3.213  17.500  0.00  0.00    +0.000 A 
ATOM     13  N   UNL     1       4.304   3.248  17.094  0.00  0.00    +0.000 NA
ATOM     14  C   UNL     1       5.077   4.187  17.705  0.00  0.00    +0.000 A 
ATOM     15  C   UNL     1       4.571   5.225  18.500  0.00  0.00    +0.000 A 
ATOM     16  C   UNL     1       3.206   5.242  18.845  0.00  0.00    +0.000 A 
ENDBRANCH   4   7
BRANCH   1  17
ATOM     17  C   UNL     1       0.185  11.445  18.923  0.00  0.00    +0.000 C 
BRANCH  17  19
ATOM     18  C   UNL     1      -1.700  12.613  19.946  0.00  0.00    +0.000 C 
ATOM     19  N   UNL     1      -1.297  11.535  19.072  0.00  0.00    +0.000 NA
ATOM     20  C   UNL     1      -1.920  11.746  17.755  0.00  0.00    +0.000 C 
ENDBRANCH  17  19
ENDBRANCH   1  17
TORSDOF 3
ENDMDL
MODEL 3
REMARK VINA RESULT:      -7.2      0.988      1.264
REMARK  Name = 
REMARK  5 active torsions:
REMARK  status: ('A' for Active; 'I' for Inactive)
REMARK    1  A    between atoms: C_1  and  N_2
REMARK    2  A    between atoms: N_2  and  C_3
REMARK    3  A    between atoms: N_2  and  C_4
REMARK    4  A    between atoms: C_4  and  C_5
REMARK    5  A    between atoms: C_8  and  C_9
REMARK                            x       y       z     vdW  Elec       q    Type
REMARK                         _______ _______ _______ _____ _____    ______ ____
ROOT
ATOM      1  C   UNL     1       1.029   9.727  19.018  0.00  0.00    +0.000 A 
ATOM      2  C   UNL     1       1.674   9.330  17.849  0.00  0.00    +0.000 A 
ATOM      3  C   UNL     1       2.408   8.158  17.804  0.00  0.00    +0.000 A 
ATOM      4  C   UNL     1       2.544   7.324  18.929  0.00  0.00    +0.000 A 
ATOM      5  N   UNL     1       1.912   7.700  20.076  0.00  0.00    +0.000 NA
ATOM      6  C   UNL     1       1.192   8.863  20.096  0.00  0.00    +0.000 A 
ENDROOT
BRANCH   4   7
ATOM      7  C   UNL     1       3.094   5.909  18.910  0.00  0.00    +0.000 A 
ATOM      8  C   UNL     1       2.088   4.956  19.124  0.00  0.00    +0.000 A 
ATOM      9  C   UNL     1       1.835   4.027  18.120  0.00  0.00    +0.000 A 
ATOM     10  C   UNL     1       2.825   3.680  17.220  0.00  0.00    +0.000 A 
ATOM     11  C   UNL     1       4.012   4.394  17.201  0.00  0.00    +0.000 A 
ATOM     12  C   UNL     1       5.045   4.007  16.343  0.00  0.00    +0.000 A 
ATOM     13  N   UNL     1       6.320   4.220  16.608  0.00  0.00    +0.000 NA
ATOM     14  C   UNL     1       6.559   4.890  17.769  0.00  0.00    +0.000 A 
ATOM     15  C   UNL     1       5.571   5.553  18.511  0.00  0.00    +0.000 A 
ATOM     16  C   UNL     1       4.216   5.409  18.160  0.00  0.00    +0.000 A 
ENDBRANCH   4   7
BRANCH   1  17
ATOM     17  C   UNL     1       0.314  11.067  19.187  0.00  0.00    +0.000 C 
BRANCH  17  19
ATOM     18  C   UNL     1      -1.469  12.174  20.437  0.00  0.00    +0.000 C 
ATOM     19  N   UNL     1      -1.106  11.023  19.644  0.00  0.00    +0.000 NA
ATOM     20  C   UNL     1      -2.004  10.957  18.480  0.00  0.00    +0.000 C 
ENDBRANCH  17  19
ENDBRANCH   1  17
TORSDOF 3
ENDMDL
MODEL 4
REMARK VINA RESULT:      -7.1      2.210      3.387
REMARK  Name = 
REMARK  5 active torsions:
REMARK  status: ('A' for Active; 'I' for Inactive)
REMARK    1  A    between atoms: C_1  and  N_2
REMARK    2  A    between atoms: N_2  and  C_3
REMARK    3  A    between atoms: N_2  and  C_4
REMARK    4  A    between atoms: C_4  and  C_5
REMARK    5  A    between atoms: C_8  and  C_9
REMARK                            x       y       z     vdW  Elec       q    Type
REMARK                         _______ _______ _______ _____ _____    ______ ____
ROOT
ATOM      1  C   UNL     1       0.950   9.691  19.352  0.00  0.00    +0.000 A 
ATOM      2  C   UNL     1       1.393   9.563  18.037  0.00  0.00    +0.000 A 
ATOM      3  C   UNL     1       2.142   8.469  17.642  0.00  0.00    +0.000 A 
ATOM      4  C   UNL     1       2.498   7.449  18.542  0.00  0.00    +0.000 A 
ATOM      5  N   UNL     1       2.066   7.561  19.829  0.00  0.00    +0.000 NA
ATOM      6  C   UNL     1       1.325   8.652  20.197  0.00  0.00    +0.000 A 
ENDROOT
BRANCH   4   7
ATOM      7  C   UNL     1       3.079   6.101  18.155  0.00  0.00    +0.000 A 
ATOM      8  C   UNL     1       4.455   6.179  17.898  0.00  0.00    +0.000 A 
ATOM      9  C   UNL     1       5.318   5.435  18.696  0.00  0.00    +0.000 A 
ATOM     10  C   UNL     1       4.878   4.286  19.324  0.00  0.00    +0.000 A 
ATOM     11  C   UNL     1       3.528   3.974  19.310  0.00  0.00    +0.000 A 
ATOM     12  C   UNL     1       3.083   2.779  19.881  0.00  0.00    +0.000 A 
ATOM     13  N   UNL     1       2.005   2.141  19.468  0.00  0.00    +0.000 NA
ATOM     14  C   UNL     1       1.324   2.758  18.464  0.00  0.00    +0.000 A 
ATOM     15  C   UNL     1       1.550   4.081  18.058  0.00  0.00    +0.000 A 
ATOM     16  C   UNL     1       2.643   4.797  18.582  0.00  0.00    +0.000 A 
ENDBRANCH   4   7
BRANCH   1  17
ATOM     17  C   UNL     1       0.236  10.927  19.897  0.00  0.00    +0.000 C 
BRANCH  17  19
ATOM     18  C   UNL     1       1.547  12.765  20.827  0.00  0.00    +0.000 C 
ATOM     19  N   UNL     1       0.813  11.557  21.121  0.00  0.00    +0.000 NA
ATOM     20  C   UNL     1      -0.263  11.884  22.069  0.00  0.00    +0.000 C 
ENDBRANCH  17  19
ENDBRANCH   1  17
TORSDOF 3
ENDMDL
MODEL 5
REMARK VINA RESULT:      -7.1      2.019      3.156
REMARK  Name = 
REMARK  5 active torsions:
REMARK  status: ('A' for Active; 'I' for Inactive)
REMARK    1  A    between atoms: C_1  and  N_2
REMARK    2  A    between atoms: N_2  and  C_3
REMARK    3  A    between atoms: N_2  and  C_4
REMARK    4  A    between atoms: C_4  and  C_5
REMARK    5  A    between atoms: C_8  and  C_9
REMARK                            x       y       z     vdW  Elec       q    Type
REMARK                         _______ _______ _______ _____ _____    ______ ____
ROOT
ATOM      1  C   UNL     1       1.134   9.696  19.408  0.00  0.00    +0.000 A 
ATOM      2  C   UNL     1       1.604   9.596  18.100  0.00  0.00    +0.000 A 
ATOM      3  C   UNL     1       2.302   8.478  17.680  0.00  0.00    +0.000 A 
ATOM      4  C   UNL     1       2.577   7.404  18.546  0.00  0.00    +0.000 A 
ATOM      5  N   UNL     1       2.116   7.489  19.825  0.00  0.00    +0.000 NA
ATOM      6  C   UNL     1       1.427   8.605  20.219  0.00  0.00    +0.000 A 
ENDROOT
BRANCH   4   7
ATOM      7  C   UNL     1       3.092   6.042  18.118  0.00  0.00    +0.000 A 
ATOM      8  C   UNL     1       4.455   6.079  17.790  0.00  0.00    +0.000 A 
ATOM      9  C   UNL     1       5.334   5.300  18.536  0.00  0.00    +0.000 A 
ATOM     10  C   UNL     1       4.890   4.159  19.177  0.00  0.00    +0.000 A 
ATOM     11  C   UNL     1       3.532   3.891  19.232  0.00  0.00    +0.000 A 
ATOM     12  C   UNL     1       3.079   2.706  19.817  0.00  0.00    +0.000 A 
ATOM     13  N   UNL     1       1.960   2.106  19.456  0.00  0.00    +0.000 NA
ATOM     14  C   UNL     1       1.247   2.755  18.495  0.00  0.00    +0.000 A 
ATOM     15  C   UNL     1       1.495   4.073  18.087  0.00  0.00    +0.000 A 
ATOM     16  C   UNL     1       2.637   4.749  18.558  0.00  0.00    +0.000 A 
ENDBRANCH   4   7
BRANCH   1  17
ATOM     17  C   UNL     1       0.474  10.948  19.985  0.00  0.00    +0.000 C 
BRANCH  17  19
ATOM     18  C   UNL     1      -1.473  11.915  21.099  0.00  0.00    +0.000 C 
ATOM     19  N   UNL     1      -1.005  10.905  20.178  0.00  0.00    +0.000 NA
ATOM     20  C   UNL     1      -1.684  11.102  18.887  0.00  0.00    +0.000 C 
ENDBRANCH  17  19
ENDBRANCH   1  17
TORSDOF 3
ENDMDL
MODEL 6
REMARK VINA RESULT:      -7.1      1.575      2.362
REMARK  Name = 
REMARK  5 active torsions:
REMARK  status: ('A' for Active; 'I' for Inactive)
REMARK    1  A    between atoms: C_1  and  N_2
REMARK    2  A    between atoms: N_2  and  C_3
REMARK    3  A    between atoms: N_2  and  C_4
REMARK    4  A    between atoms: C_4  and  C_5
REMARK    5  A    between atoms: C_8  and  C_9
REMARK                            x       y       z     vdW  Elec       q    Type
REMARK                         _______ _______ _______ _____ _____    ______ ____
ROOT
ATOM      1  C   UNL     1       0.695   9.994  19.507  0.00  0.00    +0.000 A 
ATOM      2  C   UNL     1       1.356   9.482  18.393  0.00  0.00    +0.000 A 
ATOM      3  C   UNL     1       2.042   8.283  18.463  0.00  0.00    +0.000 A 
ATOM      4  C   UNL     1       2.112   7.535  19.653  0.00  0.00    +0.000 A 
ATOM      5  N   UNL     1       1.463   8.024  20.747  0.00  0.00    +0.000 NA
ATOM      6  C   UNL     1       0.791   9.213  20.654  0.00  0.00    +0.000 A 
ENDROOT
BRANCH   4   7
ATOM      7  C   UNL     1       2.603   6.103  19.761  0.00  0.00    +0.000 A 
ATOM      8  C   UNL     1       1.805   5.342  20.627  0.00  0.00    +0.000 A 
ATOM      9  C   UNL     1       1.136   4.238  20.108  0.00  0.00    +0.000 A 
ATOM     10  C   UNL     1       1.620   3.586  18.990  0.00  0.00    +0.000 A 
ATOM     11  C   UNL     1       2.669   4.141  18.276  0.00  0.00    +0.000 A 
ATOM     12  C   UNL     1       3.211   3.455  17.186  0.00  0.00    +0.000 A 
ATOM     13  N   UNL     1       4.468   3.582  16.808  0.00  0.00    +0.000 NA
ATOM     14  C   UNL     1       5.197   4.473  17.534  0.00  0.00    +0.000 A 
ATOM     15  C   UNL     1       4.643   5.394  18.433  0.00  0.00    +0.000 A 
ATOM     16  C   UNL     1       3.274   5.322  18.755  0.00  0.00    +0.000 A 
ENDBRANCH   4   7
BRANCH   1  17
ATOM     17  C   UNL     1       0.030  11.370  19.549  0.00  0.00    +0.000 C 
BRANCH  17  19
ATOM     18  C   UNL     1      -0.276  13.502  18.396  0.00  0.00    +0.000 C 
ATOM     19  N   UNL     1       0.655  12.448  18.727  0.00  0.00    +0.000 NA
ATOM     20  C   UNL     1       1.789  13.039  19.455  0.00  0.00    +0.000 C 
ENDBRANCH  17  19
ENDBRANCH   1  17
TORSDOF 3
ENDMDL
MODEL 7
REMARK VINA RESULT:      -7.1      1.428      1.804
REMARK  Name = 
REMARK  5 active torsions:
REMARK  status: ('A' for Active; 'I' for Inactive)
REMARK    1  A    between atoms: C_1  and  N_2
REMARK    2  A    between atoms: N_2  and  C_3
REMARK    3  A    between atoms: N_2  and  C_4
REMARK    4  A    between atoms: C_4  and  C_5
REMARK    5  A    between atoms: C_8  and  C_9
REMARK                            x       y       z     vdW  Elec       q    Type
REMARK                         _______ _______ _______ _____ _____    ______ ____
ROOT
ATOM      1  C   UNL     1       0.934   9.625  19.465  0.00  0.00    +0.000 A 
ATOM      2  C   UNL     1       1.504   9.263  18.246  0.00  0.00    +0.000 A 
ATOM      3  C   UNL     1       2.210   8.080  18.114  0.00  0.00    +0.000 A 
ATOM      4  C   UNL     1       2.392   7.200  19.196  0.00  0.00    +0.000 A 
ATOM      5  N   UNL     1       1.833   7.541  20.391  0.00  0.00    +0.000 NA
ATOM      6  C   UNL     1       1.140   8.716  20.498  0.00  0.00    +0.000 A 
ENDROOT
BRANCH   4   7
ATOM      7  C   UNL     1       2.910   5.777  19.092  0.00  0.00    +0.000 A 
ATOM      8  C   UNL     1       1.879   4.835  19.222  0.00  0.00    +0.000 A 
ATOM      9  C   UNL     1       1.626   3.982  18.153  0.00  0.00    +0.000 A 
ATOM     10  C   UNL     1       2.625   3.674  17.250  0.00  0.00    +0.000 A 
ATOM     11  C   UNL     1       3.828   4.359  17.301  0.00  0.00    +0.000 A 
ATOM     12  C   UNL     1       4.868   4.007  16.437  0.00  0.00    +0.000 A 
ATOM     13  N   UNL     1       6.142   4.171  16.739  0.00  0.00    +0.000 NA
ATOM     14  C   UNL     1       6.373   4.756  17.946  0.00  0.00    +0.000 A 
ATOM     15  C   UNL     1       5.387   5.390  18.714  0.00  0.00    +0.000 A 
ATOM     16  C   UNL     1       4.035   5.302  18.330  0.00  0.00    +0.000 A 
ENDBRANCH   4   7
BRANCH   1  17
ATOM     17  C   UNL     1       0.258  10.970  19.726  0.00  0.00    +0.000 C 
BRANCH  17  19
ATOM     18  C   UNL     1       1.104  13.052  20.684  0.00  0.00    +0.000 C 
ATOM     19  N   UNL     1       0.665  11.704  20.961  0.00  0.00    +0.000 NA
ATOM     20  C   UNL     1      -0.464  11.765  21.901  0.00  0.00    +0.000 C 
ENDBRANCH  17  19
ENDBRANCH   1  17
TORSDOF 3
ENDMDL
MODEL 8
REMARK VINA RESULT:      -7.1      0.756      1.087
REMARK  Name = 
REMARK  5 active torsions:
REMARK  status: ('A' for Active; 'I' for Inactive)
REMARK    1  A    between atoms: C_1  and  N_2
REMARK    2  A    between atoms: N_2  and  C_3
REMARK    3  A    between atoms: N_2  and  C_4
REMARK    4  A    between atoms: C_4  and  C_5
REMARK    5  A    between atoms: C_8  and  C_9
REMARK                            x       y       z     vdW  Elec       q    Type
REMARK                         _______ _______ _______ _____ _____    ______ ____
ROOT
ATOM      1  C   UNL     1       1.205   9.271  19.018  0.00  0.00    +0.000 A 
ATOM      2  C   UNL     1       1.909   9.012  17.844  0.00  0.00    +0.000 A 
ATOM      3  C   UNL     1       2.770   7.933  17.754  0.00  0.00    +0.000 A 
ATOM      4  C   UNL     1       2.981   7.060  18.837  0.00  0.00    +0.000 A 
ATOM      5  N   UNL     1       2.293   7.301  19.988  0.00  0.00    +0.000 NA
ATOM      6  C   UNL     1       1.446   8.374  20.053  0.00  0.00    +0.000 A 
ENDROOT
BRANCH   4   7
ATOM      7  C   UNL     1       3.687   5.719  18.756  0.00  0.00    +0.000 A 
ATOM      8  C   UNL     1       2.778   4.659  18.617  0.00  0.00    +0.000 A 
ATOM      9  C   UNL     1       2.851   3.875  17.470  0.00  0.00    +0.000 A 
ATOM     10  C   UNL     1       4.039   3.758  16.774  0.00  0.00    +0.000 A 
ATOM     11  C   UNL     1       5.111   4.568  17.111  0.00  0.00    +0.000 A 
ATOM     12  C   UNL     1       6.337   4.408  16.460  0.00  0.00    +0.000 A 
ATOM     13  N   UNL     1       7.495   4.689  17.026  0.00  0.00    +0.000 NA
ATOM     14  C   UNL     1       7.409   5.193  18.287  0.00  0.00    +0.000 A 
ATOM     15  C   UNL     1       6.218   5.646  18.873  0.00  0.00    +0.000 A 
ATOM     16  C   UNL     1       4.991   5.439  18.215  0.00  0.00    +0.000 A 
ENDBRANCH   4   7
BRANCH   1  17
ATOM     17  C   UNL     1       0.341  10.512  19.241  0.00  0.00    +0.000 C 
BRANCH  17  19
ATOM     18  C   UNL     1       0.146  12.851  18.564  0.00  0.00    +0.000 C 
ATOM     19  N   UNL     1       1.016  11.837  19.114  0.00  0.00    +0.000 NA
ATOM     20  C   UNL     1       1.481  12.289  20.435  0.00  0.00    +0.000 C 
ENDBRANCH  17  19
ENDBRANCH   1  17
TORSDOF 3
ENDMDL
MODEL 9
REMARK VINA RESULT:      -7.0      1.913      2.922
REMARK  Name = 
REMARK  5 active torsions:
REMARK  status: ('A' for Active; 'I' for Inactive)
REMARK    1  A    between atoms: C_1  and  N_2
REMARK    2  A    between atoms: N_2  and  C_3
REMARK    3  A    between atoms: N_2  and  C_4
REMARK    4  A    between atoms: C_4  and  C_5
REMARK    5  A    between atoms: C_8  and  C_9
REMARK                            x       y       z     vdW  Elec       q    Type
REMARK                         _______ _______ _______ _____ _____    ______ ____
ROOT
ATOM      1  C   UNL     1       0.996   9.381  19.758  0.00  0.00    +0.000 A 
ATOM      2  C   UNL     1       1.376   9.481  18.421  0.00  0.00    +0.000 A 
ATOM      3  C   UNL     1       2.145   8.498  17.824  0.00  0.00    +0.000 A 
ATOM      4  C   UNL     1       2.585   7.366  18.535  0.00  0.00    +0.000 A 
ATOM      5  N   UNL     1       2.214   7.255  19.841  0.00  0.00    +0.000 NA
ATOM      6  C   UNL     1       1.453   8.240  20.410  0.00  0.00    +0.000 A 
ENDROOT
BRANCH   4   7
ATOM      7  C   UNL     1       3.195   6.123  17.913  0.00  0.00    +0.000 A 
ATOM      8  C   UNL     1       4.485   6.367  17.417  0.00  0.00    +0.000 A 
ATOM      9  C   UNL     1       5.547   5.654  17.964  0.00  0.00    +0.000 A 
ATOM     10  C   UNL     1       5.337   4.416  18.542  0.00  0.00    +0.000 A 
ATOM     11  C   UNL     1       4.043   3.967  18.744  0.00  0.00    +0.000 A 
ATOM     12  C   UNL     1       3.822   2.689  19.263  0.00  0.00    +0.000 A 
ATOM     13  N   UNL     1       2.744   1.977  18.993  0.00  0.00    +0.000 NA
ATOM     14  C   UNL     1       1.831   2.601  18.199  0.00  0.00    +0.000 A 
ATOM     15  C   UNL     1       1.859   3.969  17.894  0.00  0.00    +0.000 A 
ATOM     16  C   UNL     1       2.965   4.750  18.279  0.00  0.00    +0.000 A 
ENDBRANCH   4   7
BRANCH   1  17
ATOM     17  C   UNL     1       0.264  10.482  20.523  0.00  0.00    +0.000 C 
BRANCH  17  19
ATOM     18  C   UNL     1      -1.206  12.366  20.018  0.00  0.00    +0.000 C 
ATOM     19  N   UNL     1       0.108  11.797  19.833  0.00  0.00    +0.000 NA
ATOM     20  C   UNL     1       1.105  12.750  20.344  0.00  0.00    +0.000 C 
ENDBRANCH  17  19
ENDBRANCH   1  17
TORSDOF 3
ENDMDL
