MODEL 1
REMARK VINA RESULT:      -7.6      0.000      0.000
REMARK  Name = 
REMARK  4 active torsions:
REMARK  status: ('A' for Active; 'I' for Inactive)
REMARK    1  A    between atoms: C_5  and  C_6
REMARK    2  A    between atoms: C_5  and  C_12
REMARK    3  A    between atoms: N_15  and  C_16
REMARK    4  A    between atoms: C_16  and  C_17
REMARK                            x       y       z     vdW  Elec       q    Type
REMARK                         _______ _______ _______ _____ _____    ______ ____
ROOT
ATOM      1  O   UNL     1       0.975   2.433  20.231  0.00  0.00    +0.000 OA
ATOM      2  C   UNL     1       1.800   2.798  19.400  0.00  0.00    +0.000 C 
ATOM      3  C   UNL     1       1.405   3.558  18.164  0.00  0.00    +0.000 C 
ATOM      4  C   UNL     1       2.537   4.102  17.303  0.00  0.00    +0.000 C 
ATOM      5  C   UNL     1       3.983   4.192  17.888  0.00  0.00    +0.000 C 
ATOM      6  C   UNL     1       4.167   2.827  18.625  0.00  0.00    +0.000 C 
ATOM      7  N   UNL     1       3.119   2.520  19.570  0.00  0.00    +0.000 N 
ATOM      8  H   UNL     1       3.328   1.950  20.383  0.00  0.00    +0.000 HD
ENDROOT
BRANCH   5   9
ATOM      9  C   UNL     1       4.987   4.245  16.679  0.00  0.00    +0.000 A 
ATOM     10  C   UNL     1       6.384   4.295  16.877  0.00  0.00    +0.000 A 
ATOM     11  C   UNL     1       7.277   4.399  15.806  0.00  0.00    +0.000 A 
ATOM     12  C   UNL     1       6.798   4.437  14.504  0.00  0.00    +0.000 A 
ATOM     13  C   UNL     1       5.429   4.343  14.273  0.00  0.00    +0.000 A 
ATOM     14  C   UNL     1       4.534   4.239  15.346  0.00  0.00    +0.000 A 
ENDBRANCH   5   9
BRANCH   5  15
ATOM     15  C   UNL     1       4.380   5.390  18.872  0.00  0.00    +0.000 C 
ATOM     16  C   UNL     1       3.388   5.876  19.943  0.00  0.00    +0.000 C 
ATOM     17  C   UNL     1       2.299   6.819  19.434  0.00  0.00    +0.000 C 
ATOM     18  N   UNL     1       2.715   7.864  18.492  0.00  0.00    +0.000 NA
ATOM     19  C   UNL     1       3.843   7.540  17.610  0.00  0.00    +0.000 C 
ATOM     20  C   UNL     1       4.928   6.679  18.235  0.00  0.00    +0.000 C 
BRANCH  18  21
ATOM     21  C   UNL     1       1.582   8.310  17.651  0.00  0.00    +0.000 C 
BRANCH  21  22
ATOM     22  C   UNL     1       0.976   9.641  18.030  0.00  0.00    +0.000 A 
ATOM     23  C   UNL     1      -0.414   9.818  17.999  0.00  0.00    +0.000 A 
ATOM     24  C   UNL     1      -0.981  11.015  18.440  0.00  0.00    +0.000 A 
ATOM     25  C   UNL     1      -0.164  12.038  18.909  0.00  0.00    +0.000 A 
ATOM     26 BR   UNL     1      -0.941  13.637  19.555  0.00  0.00    +0.000 Br
ATOM     27  C   UNL     1       1.222  11.888  18.923  0.00  0.00    +0.000 A 
ATOM     28  C   UNL     1       1.790  10.693  18.482  0.00  0.00    +0.000 A 
ENDBRANCH  21  22
ENDBRANCH  18  21
ENDBRANCH   5  15
TORSDOF 4
ENDMDL
MODEL 2
REMARK VINA RESULT:      -7.3      1.794      1.953
REMARK  Name = 
REMARK  4 active torsions:
REMARK  status: ('A' for Active; 'I' for Inactive)
REMARK    1  A    between atoms: C_5  and  C_6
REMARK    2  A    between atoms: C_5  and  C_12
REMARK    3  A    between atoms: N_15  and  C_16
REMARK    4  A    between atoms: C_16  and  C_17
REMARK                            x       y       z     vdW  Elec       q    Type
REMARK                         _______ _______ _______ _____ _____    ______ ____
ROOT
ATOM      1  O   UNL     1       0.117   1.893  19.040  0.00  0.00    +0.000 OA
ATOM      2  C   UNL     1       1.122   2.375  18.527  0.00  0.00    +0.000 C 
ATOM      3  C   UNL     1       1.065   3.607  17.666  0.00  0.00    +0.000 C 
ATOM      4  C   UNL     1       2.398   4.202  17.233  0.00  0.00    +0.000 C 
ATOM      5  C   UNL     1       3.712   3.780  17.965  0.00  0.00    +0.000 C 
ATOM      6  C   UNL     1       3.572   2.230  18.105  0.00  0.00    +0.000 C 
ATOM      7  N   UNL     1       2.338   1.801  18.720  0.00  0.00    +0.000 N 
ATOM      8  H   UNL     1       2.317   0.937  19.252  0.00  0.00    +0.000 HD
ENDROOT
BRANCH   5   9
ATOM      9  C   UNL     1       4.917   4.087  17.004  0.00  0.00    +0.000 A 
ATOM     10  C   UNL     1       6.243   4.179  17.483  0.00  0.00    +0.000 A 
ATOM     11  C   UNL     1       7.309   4.508  16.639  0.00  0.00    +0.000 A 
ATOM     12  C   UNL     1       7.082   4.735  15.290  0.00  0.00    +0.000 A 
ATOM     13  C   UNL     1       5.794   4.607  14.779  0.00  0.00    +0.000 A 
ATOM     14  C   UNL     1       4.726   4.278  15.623  0.00  0.00    +0.000 A 
ENDBRANCH   5   9
BRANCH   5  15
ATOM     15  C   UNL     1       4.080   4.415  19.388  0.00  0.00    +0.000 C 
ATOM     16  C   UNL     1       3.026   4.479  20.506  0.00  0.00    +0.000 C 
ATOM     17  C   UNL     1       2.029   5.630  20.389  0.00  0.00    +0.000 C 
ATOM     18  N   UNL     1       2.571   6.940  20.007  0.00  0.00    +0.000 NA
ATOM     19  C   UNL     1       3.752   6.931  19.136  0.00  0.00    +0.000 C 
ATOM     20  C   UNL     1       4.740   5.805  19.394  0.00  0.00    +0.000 C 
BRANCH  18  21
ATOM     21  C   UNL     1       1.535   7.786  19.376  0.00  0.00    +0.000 C 
BRANCH  21  22
ATOM     22  C   UNL     1       0.933   8.849  20.265  0.00  0.00    +0.000 A 
ATOM     23  C   UNL     1       0.867  10.179  19.829  0.00  0.00    +0.000 A 
ATOM     24  C   UNL     1       0.225  11.144  20.607  0.00  0.00    +0.000 A 
ATOM     25  C   UNL     1      -0.350  10.785  21.822  0.00  0.00    +0.000 A 
ATOM     26 BR   UNL     1      -1.265  12.085  22.846  0.00  0.00    +0.000 Br
ATOM     27  C   UNL     1      -0.272   9.472  22.282  0.00  0.00    +0.000 A 
ATOM     28  C   UNL     1       0.370   8.506  21.505  0.00  0.00    +0.000 A 
ENDBRANCH  21  22
ENDBRANCH  18  21
ENDBRANCH   5  15
TORSDOF 4
ENDMDL
MODEL 3
REMARK VINA RESULT:      -7.3      6.519      8.483
REMARK  Name = 
REMARK  4 active torsions:
REMARK  status: ('A' for Active; 'I' for Inactive)
REMARK    1  A    between atoms: C_5  and  C_6
REMARK    2  A    between atoms: C_5  and  C_12
REMARK    3  A    between atoms: N_15  and  C_16
REMARK    4  A    between atoms: C_16  and  C_17
REMARK                            x       y       z     vdW  Elec       q    Type
REMARK                         _______ _______ _______ _____ _____    ______ ____
ROOT
ATOM      1  O   UNL     1       0.571   9.717  23.868  0.00  0.00    +0.000 OA
ATOM      2  C   UNL     1       0.013   9.970  22.806  0.00  0.00    +0.000 C 
ATOM      3  C   UNL     1      -1.088  10.991  22.708  0.00  0.00    +0.000 C 
ATOM      4  C   UNL     1      -1.578  11.337  21.308  0.00  0.00    +0.000 C 
ATOM      5  C   UNL     1      -0.718  10.944  20.065  0.00  0.00    +0.000 C 
ATOM      6  C   UNL     1      -0.264   9.482  20.380  0.00  0.00    +0.000 C 
ATOM      7  N   UNL     1       0.374   9.326  21.666  0.00  0.00    +0.000 N 
ATOM      8  H   UNL     1       1.072   8.602  21.795  0.00  0.00    +0.000 HD
ENDROOT
BRANCH   5   9
ATOM      9  C   UNL     1      -1.669  10.912  18.814  0.00  0.00    +0.000 A 
ATOM     10  C   UNL     1      -2.868  11.658  18.775  0.00  0.00    +0.000 A 
ATOM     11  C   UNL     1      -3.744  11.587  17.687  0.00  0.00    +0.000 A 
ATOM     12  C   UNL     1      -3.436  10.784  16.599  0.00  0.00    +0.000 A 
ATOM     13  C   UNL     1      -2.240  10.073  16.587  0.00  0.00    +0.000 A 
ATOM     14  C   UNL     1      -1.363  10.143  17.676  0.00  0.00    +0.000 A 
ENDBRANCH   5   9
BRANCH   5  15
ATOM     15  C   UNL     1       0.555  11.824  19.656  0.00  0.00    +0.000 C 
ATOM     16  C   UNL     1       1.421  12.487  20.741  0.00  0.00    +0.000 C 
ATOM     17  C   UNL     1       0.860  13.788  21.310  0.00  0.00    +0.000 C 
ATOM     18  N   UNL     1       0.281  14.735  20.350  0.00  0.00    +0.000 NA
ATOM     19  C   UNL     1      -0.340  14.157  19.153  0.00  0.00    +0.000 C 
ATOM     20  C   UNL     1       0.348  12.922  18.598  0.00  0.00    +0.000 C 
BRANCH  18  21
ATOM     21  C   UNL     1      -0.707  15.623  21.002  0.00  0.00    +0.000 C 
BRANCH  21  22
ATOM     22  C   UNL     1      -1.867  14.924  21.673  0.00  0.00    +0.000 A 
ATOM     23  C   UNL     1      -1.828  14.653  23.047  0.00  0.00    +0.000 A 
ATOM     24  C   UNL     1      -2.937  14.094  23.686  0.00  0.00    +0.000 A 
ATOM     25  C   UNL     1      -4.084  13.803  22.955  0.00  0.00    +0.000 A 
ATOM     26 BR   UNL     1      -5.602  13.097  23.836  0.00  0.00    +0.000 Br
ATOM     27  C   UNL     1      -4.130  14.043  21.583  0.00  0.00    +0.000 A 
ATOM     28  C   UNL     1      -3.022  14.600  20.943  0.00  0.00    +0.000 A 
ENDBRANCH  21  22
ENDBRANCH  18  21
ENDBRANCH   5  15
TORSDOF 4
ENDMDL
MODEL 4
REMARK VINA RESULT:      -7.2      6.466      8.357
REMARK  Name = 
REMARK  4 active torsions:
REMARK  status: ('A' for Active; 'I' for Inactive)
REMARK    1  A    between atoms: C_5  and  C_6
REMARK    2  A    between atoms: C_5  and  C_12
REMARK    3  A    between atoms: N_15  and  C_16
REMARK    4  A    between atoms: C_16  and  C_17
REMARK                            x       y       z     vdW  Elec       q    Type
REMARK                         _______ _______ _______ _____ _____    ______ ____
ROOT
ATOM      1  O   UNL     1       0.626   9.629  23.917  0.00  0.00    +0.000 OA
ATOM      2  C   UNL     1       0.065   9.885  22.858  0.00  0.00    +0.000 C 
ATOM      3  C   UNL     1      -1.019  10.924  22.761  0.00  0.00    +0.000 C 
ATOM      4  C   UNL     1      -1.513  11.270  21.363  0.00  0.00    +0.000 C 
ATOM      5  C   UNL     1      -0.669  10.854  20.116  0.00  0.00    +0.000 C 
ATOM      6  C   UNL     1      -0.238   9.386  20.436  0.00  0.00    +0.000 C 
ATOM      7  N   UNL     1       0.406   9.227  21.719  0.00  0.00    +0.000 N 
ATOM      8  H   UNL     1       1.093   8.492  21.847  0.00  0.00    +0.000 HD
ENDROOT
BRANCH   5   9
ATOM      9  C   UNL     1      -1.630  10.831  18.872  0.00  0.00    +0.000 A 
ATOM     10  C   UNL     1      -1.348  10.048  17.731  0.00  0.00    +0.000 A 
ATOM     11  C   UNL     1      -2.172  10.069  16.601  0.00  0.00    +0.000 A 
ATOM     12  C   UNL     1      -3.313  10.859  16.588  0.00  0.00    +0.000 A 
ATOM     13  C   UNL     1      -3.643  11.605  17.715  0.00  0.00    +0.000 A 
ATOM     14  C   UNL     1      -2.819  11.585  18.846  0.00  0.00    +0.000 A 
ENDBRANCH   5   9
BRANCH   5  15
ATOM     15  C   UNL     1       0.616  11.709  19.692  0.00  0.00    +0.000 C 
ATOM     16  C   UNL     1       1.450  12.437  20.759  0.00  0.00    +0.000 C 
ATOM     17  C   UNL     1       0.873  13.770  21.233  0.00  0.00    +0.000 C 
ATOM     18  N   UNL     1       0.323  14.657  20.201  0.00  0.00    +0.000 NA
ATOM     19  C   UNL     1      -0.263  14.007  19.023  0.00  0.00    +0.000 C 
ATOM     20  C   UNL     1       0.440  12.741  18.564  0.00  0.00    +0.000 C 
BRANCH  18  21
ATOM     21  C   UNL     1      -0.683  15.581  20.769  0.00  0.00    +0.000 C 
BRANCH  21  22
ATOM     22  C   UNL     1      -1.705  14.947  21.685  0.00  0.00    +0.000 A 
ATOM     23  C   UNL     1      -2.917  14.470  21.167  0.00  0.00    +0.000 A 
ATOM     24  C   UNL     1      -3.820  13.799  21.993  0.00  0.00    +0.000 A 
ATOM     25  C   UNL     1      -3.517  13.604  23.337  0.00  0.00    +0.000 A 
ATOM     26 BR   UNL     1      -4.719  12.646  24.439  0.00  0.00    +0.000 Br
ATOM     27  C   UNL     1      -2.328  14.093  23.873  0.00  0.00    +0.000 A 
ATOM     28  C   UNL     1      -1.425  14.766  23.049  0.00  0.00    +0.000 A 
ENDBRANCH  21  22
ENDBRANCH  18  21
ENDBRANCH   5  15
TORSDOF 4
ENDMDL
MODEL 5
REMARK VINA RESULT:      -7.1      2.648      4.512
REMARK  Name = 
REMARK  4 active torsions:
REMARK  status: ('A' for Active; 'I' for Inactive)
REMARK    1  A    between atoms: C_5  and  C_6
REMARK    2  A    between atoms: C_5  and  C_12
REMARK    3  A    between atoms: N_15  and  C_16
REMARK    4  A    between atoms: C_16  and  C_17
REMARK                            x       y       z     vdW  Elec       q    Type
REMARK                         _______ _______ _______ _____ _____    ______ ____
ROOT
ATOM      1  O   UNL     1       7.787   4.645  16.055  0.00  0.00    +0.000 OA
ATOM      2  C   UNL     1       6.867   4.421  16.834  0.00  0.00    +0.000 C 
ATOM      3  C   UNL     1       6.822   5.029  18.210  0.00  0.00    +0.000 C 
ATOM      4  C   UNL     1       5.546   4.812  19.013  0.00  0.00    +0.000 C 
ATOM      5  C   UNL     1       4.247   4.330  18.292  0.00  0.00    +0.000 C 
ATOM      6  C   UNL     1       4.753   3.202  17.336  0.00  0.00    +0.000 C 
ATOM      7  N   UNL     1       5.843   3.602  16.477  0.00  0.00    +0.000 N 
ATOM      8  H   UNL     1       5.952   3.165  15.568  0.00  0.00    +0.000 HD
ENDROOT
BRANCH   5   9
ATOM      9  C   UNL     1       3.309   3.682  19.374  0.00  0.00    +0.000 A 
ATOM     10  C   UNL     1       2.493   2.568  19.078  0.00  0.00    +0.000 A 
ATOM     11  C   UNL     1       1.617   2.025  20.023  0.00  0.00    +0.000 A 
ATOM     12  C   UNL     1       1.545   2.569  21.297  0.00  0.00    +0.000 A 
ATOM     13  C   UNL     1       2.370   3.637  21.634  0.00  0.00    +0.000 A 
ATOM     14  C   UNL     1       3.248   4.182  20.689  0.00  0.00    +0.000 A 
ENDBRANCH   5   9
BRANCH   5  15
ATOM     15  C   UNL     1       3.352   5.370  17.467  0.00  0.00    +0.000 C 
ATOM     16  C   UNL     1       3.733   6.859  17.424  0.00  0.00    +0.000 C 
ATOM     17  C   UNL     1       3.319   7.668  18.653  0.00  0.00    +0.000 C 
ATOM     18  N   UNL     1       1.978   7.412  19.192  0.00  0.00    +0.000 NA
ATOM     19  C   UNL     1       1.454   6.051  19.026  0.00  0.00    +0.000 C 
ATOM     20  C   UNL     1       1.835   5.363  17.727  0.00  0.00    +0.000 C 
BRANCH  18  21
ATOM     21  C   UNL     1       1.900   7.768  20.625  0.00  0.00    +0.000 C 
BRANCH  21  22
ATOM     22  C   UNL     1       0.912   8.858  20.972  0.00  0.00    +0.000 A 
ATOM     23  C   UNL     1       0.486   9.029  22.296  0.00  0.00    +0.000 A 
ATOM     24  C   UNL     1      -0.352  10.094  22.634  0.00  0.00    +0.000 A 
ATOM     25  C   UNL     1      -0.767  10.988  21.653  0.00  0.00    +0.000 A 
ATOM     26 BR   UNL     1      -1.857  12.459  22.126  0.00  0.00    +0.000 Br
ATOM     27  C   UNL     1      -0.372  10.818  20.327  0.00  0.00    +0.000 A 
ATOM     28  C   UNL     1       0.464   9.753  19.988  0.00  0.00    +0.000 A 
ENDBRANCH  21  22
ENDBRANCH  18  21
ENDBRANCH   5  15
TORSDOF 4
ENDMDL
MODEL 6
REMARK VINA RESULT:      -7.1      0.476      1.026
REMARK  Name = 
REMARK  4 active torsions:
REMARK  status: ('A' for Active; 'I' for Inactive)
REMARK    1  A    between atoms: C_5  and  C_6
REMARK    2  A    between atoms: C_5  and  C_12
REMARK    3  A    between atoms: N_15  and  C_16
REMARK    4  A    between atoms: C_16  and  C_17
REMARK                            x       y       z     vdW  Elec       q    Type
REMARK                         _______ _______ _______ _____ _____    ______ ____
ROOT
ATOM      1  O   UNL     1       0.401   2.283  19.578  0.00  0.00    +0.000 OA
ATOM      2  C   UNL     1       1.346   2.695  18.915  0.00  0.00    +0.000 C 
ATOM      3  C   UNL     1       1.155   3.612  17.737  0.00  0.00    +0.000 C 
ATOM      4  C   UNL     1       2.415   4.188  17.106  0.00  0.00    +0.000 C 
ATOM      5  C   UNL     1       3.769   4.132  17.883  0.00  0.00    +0.000 C 
ATOM      6  C   UNL     1       3.797   2.683  18.468  0.00  0.00    +0.000 C 
ATOM      7  N   UNL     1       2.618   2.329  19.223  0.00  0.00    +0.000 N 
ATOM      8  H   UNL     1       2.691   1.659  19.981  0.00  0.00    +0.000 HD
ENDROOT
BRANCH   5   9
ATOM      9  C   UNL     1       4.931   4.268  16.833  0.00  0.00    +0.000 A 
ATOM     10  C   UNL     1       6.289   4.204  17.217  0.00  0.00    +0.000 A 
ATOM     11  C   UNL     1       7.324   4.381  16.293  0.00  0.00    +0.000 A 
ATOM     12  C   UNL     1       7.031   4.607  14.956  0.00  0.00    +0.000 A 
ATOM     13  C   UNL     1       5.704   4.629  14.538  0.00  0.00    +0.000 A 
ATOM     14  C   UNL     1       4.667   4.452  15.463  0.00  0.00    +0.000 A 
ENDBRANCH   5   9
BRANCH   5  15
ATOM     15  C   UNL     1       4.072   5.187  19.048  0.00  0.00    +0.000 C 
ATOM     16  C   UNL     1       2.949   5.641  19.995  0.00  0.00    +0.000 C 
ATOM     17  C   UNL     1       2.023   6.717  19.431  0.00  0.00    +0.000 C 
ATOM     18  N   UNL     1       2.659   7.815  18.692  0.00  0.00    +0.000 NA
ATOM     19  C   UNL     1       3.894   7.490  17.970  0.00  0.00    +0.000 C 
ATOM     20  C   UNL     1       4.801   6.484  18.658  0.00  0.00    +0.000 C 
BRANCH  18  21
ATOM     21  C   UNL     1       1.714   8.436  17.738  0.00  0.00    +0.000 C 
BRANCH  21  22
ATOM     22  C   UNL     1       0.897   9.584  18.286  0.00  0.00    +0.000 A 
ATOM     23  C   UNL     1       1.497  10.548  19.107  0.00  0.00    +0.000 A 
ATOM     24  C   UNL     1       0.769  11.660  19.535  0.00  0.00    +0.000 A 
ATOM     25  C   UNL     1      -0.559  11.811  19.146  0.00  0.00    +0.000 A 
ATOM     26 BR   UNL     1      -1.524  13.346  19.684  0.00  0.00    +0.000 Br
ATOM     27  C   UNL     1      -1.177  10.849  18.350  0.00  0.00    +0.000 A 
ATOM     28  C   UNL     1      -0.451   9.737  17.923  0.00  0.00    +0.000 A 
ENDBRANCH  21  22
ENDBRANCH  18  21
ENDBRANCH   5  15
TORSDOF 4
ENDMDL
MODEL 7
REMARK VINA RESULT:      -7.0      2.642      4.425
REMARK  Name = 
REMARK  4 active torsions:
REMARK  status: ('A' for Active; 'I' for Inactive)
REMARK    1  A    between atoms: C_5  and  C_6
REMARK    2  A    between atoms: C_5  and  C_12
REMARK    3  A    between atoms: N_15  and  C_16
REMARK    4  A    between atoms: C_16  and  C_17
REMARK                            x       y       z     vdW  Elec       q    Type
REMARK                         _______ _______ _______ _____ _____    ______ ____
ROOT
ATOM      1  O   UNL     1       7.830   4.656  16.229  0.00  0.00    +0.000 OA
ATOM      2  C   UNL     1       6.878   4.438  16.970  0.00  0.00    +0.000 C 
ATOM      3  C   UNL     1       6.799   5.014  18.358  0.00  0.00    +0.000 C 
ATOM      4  C   UNL     1       5.491   4.810  19.110  0.00  0.00    +0.000 C 
ATOM      5  C   UNL     1       4.206   4.379  18.333  0.00  0.00    +0.000 C 
ATOM      6  C   UNL     1       4.718   3.262  17.368  0.00  0.00    +0.000 C 
ATOM      7  N   UNL     1       5.847   3.654  16.558  0.00  0.00    +0.000 N 
ATOM      8  H   UNL     1       5.977   3.236  15.643  0.00  0.00    +0.000 HD
ENDROOT
BRANCH   5   9
ATOM      9  C   UNL     1       3.215   3.730  19.367  0.00  0.00    +0.000 A 
ATOM     10  C   UNL     1       3.137   4.181  20.703  0.00  0.00    +0.000 A 
ATOM     11  C   UNL     1       2.297   3.569  21.638  0.00  0.00    +0.000 A 
ATOM     12  C   UNL     1       1.498   2.500  21.259  0.00  0.00    +0.000 A 
ATOM     13  C   UNL     1       1.518   2.062  19.939  0.00  0.00    +0.000 A 
ATOM     14  C   UNL     1       2.359   2.675  19.001  0.00  0.00    +0.000 A 
ENDBRANCH   5   9
BRANCH   5  15
ATOM     15  C   UNL     1       3.367   5.461  17.504  0.00  0.00    +0.000 C 
ATOM     16  C   UNL     1       3.799   6.937  17.494  0.00  0.00    +0.000 C 
ATOM     17  C   UNL     1       3.383   7.741  18.724  0.00  0.00    +0.000 C 
ATOM     18  N   UNL     1       2.021   7.523  19.228  0.00  0.00    +0.000 NA
ATOM     19  C   UNL     1       1.456   6.183  19.029  0.00  0.00    +0.000 C 
ATOM     20  C   UNL     1       1.845   5.502  17.728  0.00  0.00    +0.000 C 
BRANCH  18  21
ATOM     21  C   UNL     1       1.921   7.860  20.665  0.00  0.00    +0.000 C 
BRANCH  21  22
ATOM     22  C   UNL     1       1.006   9.016  20.999  0.00  0.00    +0.000 A 
ATOM     23  C   UNL     1       0.546   9.868  19.986  0.00  0.00    +0.000 A 
ATOM     24  C   UNL     1      -0.374  10.876  20.278  0.00  0.00    +0.000 A 
ATOM     25  C   UNL     1      -0.834  11.039  21.581  0.00  0.00    +0.000 A 
ATOM     26 BR   UNL     1      -2.121  12.372  21.961  0.00  0.00    +0.000 Br
ATOM     27  C   UNL     1      -0.368  10.216  22.605  0.00  0.00    +0.000 A 
ATOM     28  C   UNL     1       0.552   9.208  22.314  0.00  0.00    +0.000 A 
ENDBRANCH  21  22
ENDBRANCH  18  21
ENDBRANCH   5  15
TORSDOF 4
ENDMDL
MODEL 8
REMARK VINA RESULT:      -6.9      2.469      4.344
REMARK  Name = 
REMARK  4 active torsions:
REMARK  status: ('A' for Active; 'I' for Inactive)
REMARK    1  A    between atoms: C_5  and  C_6
REMARK    2  A    between atoms: C_5  and  C_12
REMARK    3  A    between atoms: N_15  and  C_16
REMARK    4  A    between atoms: C_16  and  C_17
REMARK                            x       y       z     vdW  Elec       q    Type
REMARK                         _______ _______ _______ _____ _____    ______ ____
ROOT
ATOM      1  O   UNL     1       7.908   4.706  16.497  0.00  0.00    +0.000 OA
ATOM      2  C   UNL     1       6.927   4.490  17.200  0.00  0.00    +0.000 C 
ATOM      3  C   UNL     1       6.731   5.173  18.527  0.00  0.00    +0.000 C 
ATOM      4  C   UNL     1       5.393   4.951  19.220  0.00  0.00    +0.000 C 
ATOM      5  C   UNL     1       4.185   4.378  18.412  0.00  0.00    +0.000 C 
ATOM      6  C   UNL     1       4.818   3.219  17.577  0.00  0.00    +0.000 C 
ATOM      7  N   UNL     1       5.970   3.612  16.800  0.00  0.00    +0.000 N 
ATOM      8  H   UNL     1       6.179   3.129  15.933  0.00  0.00    +0.000 HD
ENDROOT
BRANCH   5   9
ATOM      9  C   UNL     1       3.172   3.755  19.440  0.00  0.00    +0.000 A 
ATOM     10  C   UNL     1       3.053   4.252  20.757  0.00  0.00    +0.000 A 
ATOM     11  C   UNL     1       2.194   3.665  21.691  0.00  0.00    +0.000 A 
ATOM     12  C   UNL     1       1.414   2.575  21.328  0.00  0.00    +0.000 A 
ATOM     13  C   UNL     1       1.474   2.092  20.025  0.00  0.00    +0.000 A 
ATOM     14  C   UNL     1       2.335   2.679  19.090  0.00  0.00    +0.000 A 
ENDBRANCH   5   9
BRANCH   5  15
ATOM     15  C   UNL     1       3.337   5.333  17.447  0.00  0.00    +0.000 C 
ATOM     16  C   UNL     1       3.759   6.797  17.238  0.00  0.00    +0.000 C 
ATOM     17  C   UNL     1       3.339   7.756  18.351  0.00  0.00    +0.000 C 
ATOM     18  N   UNL     1       1.980   7.598  18.882  0.00  0.00    +0.000 NA
ATOM     19  C   UNL     1       1.423   6.240  18.866  0.00  0.00    +0.000 C 
ATOM     20  C   UNL     1       1.815   5.393  17.668  0.00  0.00    +0.000 C 
BRANCH  18  21
ATOM     21  C   UNL     1       1.879   8.125  20.261  0.00  0.00    +0.000 C 
BRANCH  21  22
ATOM     22  C   UNL     1       0.853   9.215  20.468  0.00  0.00    +0.000 A 
ATOM     23  C   UNL     1       0.370   9.494  21.753  0.00  0.00    +0.000 A 
ATOM     24  C   UNL     1      -0.505  10.562  21.960  0.00  0.00    +0.000 A 
ATOM     25  C   UNL     1      -0.901  11.352  20.885  0.00  0.00    +0.000 A 
ATOM     26 BR   UNL     1      -2.043  12.831  21.179  0.00  0.00    +0.000 Br
ATOM     27  C   UNL     1      -0.449  11.073  19.596  0.00  0.00    +0.000 A 
ATOM     28  C   UNL     1       0.424  10.004  19.389  0.00  0.00    +0.000 A 
ENDBRANCH  21  22
ENDBRANCH  18  21
ENDBRANCH   5  15
TORSDOF 4
ENDMDL
MODEL 9
REMARK VINA RESULT:      -6.7      2.429      4.390
REMARK  Name = 
REMARK  4 active torsions:
REMARK  status: ('A' for Active; 'I' for Inactive)
REMARK    1  A    between atoms: C_5  and  C_6
REMARK    2  A    between atoms: C_5  and  C_12
REMARK    3  A    between atoms: N_15  and  C_16
REMARK    4  A    between atoms: C_16  and  C_17
REMARK                            x       y       z     vdW  Elec       q    Type
REMARK                         _______ _______ _______ _____ _____    ______ ____
ROOT
ATOM      1  O   UNL     1       7.900   5.036  16.719  0.00  0.00    +0.000 OA
ATOM      2  C   UNL     1       6.919   4.750  17.396  0.00  0.00    +0.000 C 
ATOM      3  C   UNL     1       6.635   5.422  18.712  0.00  0.00    +0.000 C 
ATOM      4  C   UNL     1       5.299   5.103  19.369  0.00  0.00    +0.000 C 
ATOM      5  C   UNL     1       4.160   4.437  18.532  0.00  0.00    +0.000 C 
ATOM      6  C   UNL     1       4.902   3.326  17.722  0.00  0.00    +0.000 C 
ATOM      7  N   UNL     1       6.042   3.801  16.975  0.00  0.00    +0.000 N 
ATOM      8  H   UNL     1       6.311   3.332  16.117  0.00  0.00    +0.000 HD
ENDROOT
BRANCH   5   9
ATOM      9  C   UNL     1       3.168   3.745  19.536  0.00  0.00    +0.000 A 
ATOM     10  C   UNL     1       2.374   2.642  19.151  0.00  0.00    +0.000 A 
ATOM     11  C   UNL     1       1.450   2.060  20.025  0.00  0.00    +0.000 A 
ATOM     12  C   UNL     1       1.308   2.553  21.315  0.00  0.00    +0.000 A 
ATOM     13  C   UNL     1       2.109   3.608  21.738  0.00  0.00    +0.000 A 
ATOM     14  C   UNL     1       3.034   4.192  20.864  0.00  0.00    +0.000 A 
ENDBRANCH   5   9
BRANCH   5  15
ATOM     15  C   UNL     1       3.270   5.322  17.538  0.00  0.00    +0.000 C 
ATOM     16  C   UNL     1       3.665   6.776  17.229  0.00  0.00    +0.000 C 
ATOM     17  C   UNL     1       3.265   7.795  18.295  0.00  0.00    +0.000 C 
ATOM     18  N   UNL     1       1.925   7.653  18.875  0.00  0.00    +0.000 NA
ATOM     19  C   UNL     1       1.387   6.290  18.958  0.00  0.00    +0.000 C 
ATOM     20  C   UNL     1       1.755   5.377  17.801  0.00  0.00    +0.000 C 
BRANCH  18  21
ATOM     21  C   UNL     1       1.858   8.260  20.223  0.00  0.00    +0.000 C 
BRANCH  21  22
ATOM     22  C   UNL     1       0.914   9.433  20.362  0.00  0.00    +0.000 A 
ATOM     23  C   UNL     1       0.308   9.989  19.228  0.00  0.00    +0.000 A 
ATOM     24  C   UNL     1      -0.636  11.008  19.363  0.00  0.00    +0.000 A 
ATOM     25  C   UNL     1      -0.975  11.476  20.628  0.00  0.00    +0.000 A 
ATOM     26 BR   UNL     1      -2.295  12.819  20.808  0.00  0.00    +0.000 Br
ATOM     27  C   UNL     1      -0.364  10.951  21.765  0.00  0.00    +0.000 A 
ATOM     28  C   UNL     1       0.581   9.933  21.631  0.00  0.00    +0.000 A 
ENDBRANCH  21  22
ENDBRANCH  18  21
ENDBRANCH   5  15
TORSDOF 4
ENDMDL
