MODEL 1
REMARK VINA RESULT:      -9.7      0.000      0.000
REMARK  Name = 
REMARK  6 active torsions:
REMARK  status: ('A' for Active; 'I' for Inactive)
REMARK    1  A    between atoms: C_1  and  C_2
REMARK    2  A    between atoms: C_3  and  C_4
REMARK    3  A    between atoms: C_4  and  N_5
REMARK    4  A    between atoms: C_7  and  C_8
REMARK    5  A    between atoms: C_11  and  C_12
REMARK    6  A    between atoms: C_17  and  C_18
REMARK                            x       y       z     vdW  Elec       q    Type
REMARK                         _______ _______ _______ _____ _____    ______ ____
ROOT
ATOM      1  C   UNL     1       2.617   7.681  18.322  0.00  0.00    +0.000 A 
ATOM      2  C   UNL     1       2.208   8.636  17.394  0.00  0.00    +0.000 A 
ATOM      3  C   UNL     1       1.331   9.653  17.790  0.00  0.00    +0.000 A 
ATOM      4  C   UNL     1       0.802   9.705  19.101  0.00  0.00    +0.000 A 
ATOM      5  C   UNL     1       1.129   8.669  19.980  0.00  0.00    +0.000 A 
ATOM      6 CL   UNL     1       0.282   8.328  21.446  0.00  0.00    +0.000 Cl
ATOM      7  C   UNL     1       2.090   7.719  19.619  0.00  0.00    +0.000 A 
ENDROOT
BRANCH   1  10
ATOM      8  N   UNL     1       5.631   5.801  17.219  0.00  0.00    +0.000 N 
ATOM      9  C   UNL     1       4.781   6.798  17.694  0.00  0.00    +0.000 A 
ATOM     10  C   UNL     1       3.481   6.554  17.964  0.00  0.00    +0.000 A 
ATOM     11  N   UNL     1       3.006   5.254  17.791  0.00  0.00    +0.000 N 
ATOM     12  C   UNL     1       1.768   4.700  17.992  0.00  0.00    +0.000 A 
ATOM     13  N   UNL     1       1.745   3.417  17.691  0.00  0.00    +0.000 NA
ATOM     14  C   UNL     1       3.019   3.124  17.273  0.00  0.00    +0.000 A 
ATOM     15  C   UNL     1       3.815   4.244  17.326  0.00  0.00    +0.000 A 
ATOM     16  C   UNL     1       5.187   4.475  16.990  0.00  0.00    +0.000 A 
ATOM     17  O   UNL     1       5.921   3.599  16.535  0.00  0.00    +0.000 OA
BRANCH   8  18
ATOM     18  C   UNL     1       7.021   6.127  16.930  0.00  0.00    +0.000 C 
BRANCH  18  21
ATOM     19  C   UNL     1       8.538   9.357  18.517  0.00  0.00    +0.000 C 
ATOM     20  C   UNL     1       8.030   8.364  17.523  0.00  0.00    +0.000 C 
ATOM     21  C   UNL     1       7.486   7.190  17.884  0.00  0.00    +0.000 C 
ENDBRANCH  18  21
ENDBRANCH   8  18
ENDBRANCH   1  10
BRANCH   4  22
ATOM     22  C   UNL     1      -0.166  10.810  19.361  0.00  0.00    +0.000 C 
ATOM     23  O   UNL     1       0.199  11.651  20.187  0.00  0.00    +0.000 OA
ATOM     24  N   UNL     1      -1.448  10.846  18.793  0.00  0.00    +0.000 N 
ATOM     25  C   UNL     1      -2.246  12.054  19.011  0.00  0.00    +0.000 C 
ATOM     26  C   UNL     1      -3.722  11.728  19.234  0.00  0.00    +0.000 C 
ATOM     27  C   UNL     1      -4.296  10.879  18.094  0.00  0.00    +0.000 C 
ATOM     28  C   UNL     1      -3.439   9.624  17.916  0.00  0.00    +0.000 C 
ATOM     29  C   UNL     1      -1.958   9.946  17.758  0.00  0.00    +0.000 C 
BRANCH  27  30
ATOM     30  C   UNL     1      -4.441  11.677  16.801  0.00  0.00    +0.000 C 
ATOM     31  N   UNL     1      -5.319  12.717  16.857  0.00  0.00    +0.000 N 
ATOM     32  O   UNL     1      -3.846  11.421  15.758  0.00  0.00    +0.000 OA
ATOM     33  H   UNL     1      -5.957  12.852  17.628  0.00  0.00    +0.000 HD
ATOM     34  H   UNL     1      -5.487  13.228  16.000  0.00  0.00    +0.000 HD
ENDBRANCH  27  30
ENDBRANCH   4  22
TORSDOF 5
ENDMDL
MODEL 2
REMARK VINA RESULT:      -9.3      1.536      1.654
REMARK  Name = 
REMARK  6 active torsions:
REMARK  status: ('A' for Active; 'I' for Inactive)
REMARK    1  A    between atoms: C_1  and  C_2
REMARK    2  A    between atoms: C_3  and  C_4
REMARK    3  A    between atoms: C_4  and  N_5
REMARK    4  A    between atoms: C_7  and  C_8
REMARK    5  A    between atoms: C_11  and  C_12
REMARK    6  A    between atoms: C_17  and  C_18
REMARK                            x       y       z     vdW  Elec       q    Type
REMARK                         _______ _______ _______ _____ _____    ______ ____
ROOT
ATOM      1  C   UNL     1       2.364   7.260  19.420  0.00  0.00    +0.000 A 
ATOM      2  C   UNL     1       2.185   7.955  18.226  0.00  0.00    +0.000 A 
ATOM      3  C   UNL     1       1.420   9.128  18.218  0.00  0.00    +0.000 A 
ATOM      4  C   UNL     1       0.774   9.598  19.384  0.00  0.00    +0.000 A 
ATOM      5  C   UNL     1       0.864   8.820  20.541  0.00  0.00    +0.000 A 
ATOM      6 CL   UNL     1      -0.166   8.991  21.918  0.00  0.00    +0.000 Cl
ATOM      7  C   UNL     1       1.718   7.712  20.578  0.00  0.00    +0.000 A 
ENDROOT
BRANCH   1  10
ATOM      8  N   UNL     1       5.042   4.737  18.876  0.00  0.00    +0.000 N 
ATOM      9  C   UNL     1       4.337   5.937  18.963  0.00  0.00    +0.000 A 
ATOM     10  C   UNL     1       3.097   5.994  19.492  0.00  0.00    +0.000 A 
ATOM     11  N   UNL     1       2.540   4.818  19.993  0.00  0.00    +0.000 N 
ATOM     12  C   UNL     1       1.333   4.562  20.594  0.00  0.00    +0.000 A 
ATOM     13  N   UNL     1       1.198   3.290  20.911  0.00  0.00    +0.000 NA
ATOM     14  C   UNL     1       2.362   2.692  20.497  0.00  0.00    +0.000 A 
ATOM     15  C   UNL     1       3.205   3.616  19.927  0.00  0.00    +0.000 A 
ATOM     16  C   UNL     1       4.504   3.509  19.335  0.00  0.00    +0.000 A 
ATOM     17  O   UNL     1       5.104   2.441  19.227  0.00  0.00    +0.000 OA
BRANCH   8  18
ATOM     18  C   UNL     1       6.371   4.733  18.280  0.00  0.00    +0.000 C 
BRANCH  18  21
ATOM     19  C   UNL     1       7.923   8.266  17.677  0.00  0.00    +0.000 C 
ATOM     20  C   UNL     1       7.700   6.877  18.181  0.00  0.00    +0.000 C 
ATOM     21  C   UNL     1       6.682   6.108  17.761  0.00  0.00    +0.000 C 
ENDBRANCH  18  21
ENDBRANCH   8  18
ENDBRANCH   1  10
BRANCH   4  22
ATOM     22  C   UNL     1      -0.056  10.826  19.210  0.00  0.00    +0.000 C 
ATOM     23  O   UNL     1       0.417  11.858  19.693  0.00  0.00    +0.000 OA
ATOM     24  N   UNL     1      -1.334  10.804  18.633  0.00  0.00    +0.000 N 
ATOM     25  C   UNL     1      -1.983  12.093  18.387  0.00  0.00    +0.000 C 
ATOM     26  C   UNL     1      -3.483  12.039  18.672  0.00  0.00    +0.000 C 
ATOM     27  C   UNL     1      -4.170  10.911  17.893  0.00  0.00    +0.000 C 
ATOM     28  C   UNL     1      -3.467   9.586  18.194  0.00  0.00    +0.000 C 
ATOM     29  C   UNL     1      -1.962   9.660  17.971  0.00  0.00    +0.000 C 
BRANCH  27  30
ATOM     30  C   UNL     1      -4.243  11.209  16.398  0.00  0.00    +0.000 C 
ATOM     31  N   UNL     1      -4.977  12.304  16.060  0.00  0.00    +0.000 N 
ATOM     32  O   UNL     1      -3.712  10.523  15.528  0.00  0.00    +0.000 OA
ATOM     33  H   UNL     1      -5.573  12.787  16.717  0.00  0.00    +0.000 HD
ATOM     34  H   UNL     1      -5.098  12.494  15.073  0.00  0.00    +0.000 HD
ENDBRANCH  27  30
ENDBRANCH   4  22
TORSDOF 5
ENDMDL
MODEL 3
REMARK VINA RESULT:      -9.3      2.610      3.745
REMARK  Name = 
REMARK  6 active torsions:
REMARK  status: ('A' for Active; 'I' for Inactive)
REMARK    1  A    between atoms: C_1  and  C_2
REMARK    2  A    between atoms: C_3  and  C_4
REMARK    3  A    between atoms: C_4  and  N_5
REMARK    4  A    between atoms: C_7  and  C_8
REMARK    5  A    between atoms: C_11  and  C_12
REMARK    6  A    between atoms: C_17  and  C_18
REMARK                            x       y       z     vdW  Elec       q    Type
REMARK                         _______ _______ _______ _____ _____    ______ ____
ROOT
ATOM      1  C   UNL     1       2.358   7.316  19.354  0.00  0.00    +0.000 A 
ATOM      2  C   UNL     1       2.209   7.967  18.132  0.00  0.00    +0.000 A 
ATOM      3  C   UNL     1       1.463   9.151  18.066  0.00  0.00    +0.000 A 
ATOM      4  C   UNL     1       0.807   9.676  19.204  0.00  0.00    +0.000 A 
ATOM      5  C   UNL     1       0.867   8.941  20.391  0.00  0.00    +0.000 A 
ATOM      6 CL   UNL     1      -0.180   9.181  21.743  0.00  0.00    +0.000 Cl
ATOM      7  C   UNL     1       1.702   7.822  20.483  0.00  0.00    +0.000 A 
ENDROOT
BRANCH   1  10
ATOM      8  N   UNL     1       5.025   4.748  18.986  0.00  0.00    +0.000 N 
ATOM      9  C   UNL     1       4.332   5.958  19.016  0.00  0.00    +0.000 A 
ATOM     10  C   UNL     1       3.070   6.043  19.486  0.00  0.00    +0.000 A 
ATOM     11  N   UNL     1       2.474   4.884  19.983  0.00  0.00    +0.000 N 
ATOM     12  C   UNL     1       1.238   4.656  20.532  0.00  0.00    +0.000 A 
ATOM     13  N   UNL     1       1.071   3.393  20.868  0.00  0.00    +0.000 NA
ATOM     14  C   UNL     1       2.244   2.771  20.521  0.00  0.00    +0.000 A 
ATOM     15  C   UNL     1       3.125   3.673  19.972  0.00  0.00    +0.000 A 
ATOM     16  C   UNL     1       4.448   3.537  19.444  0.00  0.00    +0.000 A 
ATOM     17  O   UNL     1       5.038   2.459  19.386  0.00  0.00    +0.000 OA
BRANCH   8  18
ATOM     18  C   UNL     1       6.379   4.715  18.453  0.00  0.00    +0.000 C 
BRANCH  18  21
ATOM     19  C   UNL     1       7.989   8.188  17.682  0.00  0.00    +0.000 C 
ATOM     20  C   UNL     1       7.744   6.829  18.251  0.00  0.00    +0.000 C 
ATOM     21  C   UNL     1       6.712   6.058  17.869  0.00  0.00    +0.000 C 
ENDBRANCH  18  21
ENDBRANCH   8  18
ENDBRANCH   1  10
BRANCH   4  22
ATOM     22  C   UNL     1      -0.000  10.909  18.970  0.00  0.00    +0.000 C 
ATOM     23  O   UNL     1      -0.977  10.771  18.229  0.00  0.00    +0.000 OA
ATOM     24  N   UNL     1       0.373  12.166  19.467  0.00  0.00    +0.000 N 
ATOM     25  C   UNL     1      -0.576  13.267  19.292  0.00  0.00    +0.000 C 
ATOM     26  C   UNL     1       0.130  14.581  18.964  0.00  0.00    +0.000 C 
ATOM     27  C   UNL     1       1.201  14.927  20.005  0.00  0.00    +0.000 C 
ATOM     28  C   UNL     1       2.175  13.756  20.140  0.00  0.00    +0.000 C 
ATOM     29  C   UNL     1       1.465  12.434  20.403  0.00  0.00    +0.000 C 
BRANCH  27  30
ATOM     30  C   UNL     1       0.588  15.337  21.343  0.00  0.00    +0.000 C 
ATOM     31  N   UNL     1      -0.474  16.184  21.259  0.00  0.00    +0.000 N 
ATOM     32  O   UNL     1       1.007  14.970  22.437  0.00  0.00    +0.000 OA
ATOM     33  H   UNL     1      -0.736  16.650  20.402  0.00  0.00    +0.000 HD
ATOM     34  H   UNL     1      -0.864  16.525  22.128  0.00  0.00    +0.000 HD
ENDBRANCH  27  30
ENDBRANCH   4  22
TORSDOF 5
ENDMDL
MODEL 4
REMARK VINA RESULT:      -9.2      1.874      2.297
REMARK  Name = 
REMARK  6 active torsions:
REMARK  status: ('A' for Active; 'I' for Inactive)
REMARK    1  A    between atoms: C_1  and  C_2
REMARK    2  A    between atoms: C_3  and  C_4
REMARK    3  A    between atoms: C_4  and  N_5
REMARK    4  A    between atoms: C_7  and  C_8
REMARK    5  A    between atoms: C_11  and  C_12
REMARK    6  A    between atoms: C_17  and  C_18
REMARK                            x       y       z     vdW  Elec       q    Type
REMARK                         _______ _______ _______ _____ _____    ______ ____
ROOT
ATOM      1  C   UNL     1       2.403   7.214  19.381  0.00  0.00    +0.000 A 
ATOM      2  C   UNL     1       2.217   7.885  18.174  0.00  0.00    +0.000 A 
ATOM      3  C   UNL     1       1.471   9.069  18.150  0.00  0.00    +0.000 A 
ATOM      4  C   UNL     1       0.850   9.576  19.315  0.00  0.00    +0.000 A 
ATOM      5  C   UNL     1       0.946   8.823  20.488  0.00  0.00    +0.000 A 
ATOM      6 CL   UNL     1      -0.060   9.042  21.876  0.00  0.00    +0.000 Cl
ATOM      7  C   UNL     1       1.782   7.703  20.537  0.00  0.00    +0.000 A 
ENDROOT
BRANCH   1  10
ATOM      8  N   UNL     1       5.043   4.643  18.870  0.00  0.00    +0.000 N 
ATOM      9  C   UNL     1       4.355   5.854  18.940  0.00  0.00    +0.000 A 
ATOM     10  C   UNL     1       3.118   5.938  19.471  0.00  0.00    +0.000 A 
ATOM     11  N   UNL     1       2.544   4.778  19.991  0.00  0.00    +0.000 N 
ATOM     12  C   UNL     1       1.335   4.550  20.597  0.00  0.00    +0.000 A 
ATOM     13  N   UNL     1       1.182   3.285  20.934  0.00  0.00    +0.000 NA
ATOM     14  C   UNL     1       2.335   2.663  20.527  0.00  0.00    +0.000 A 
ATOM     15  C   UNL     1       3.191   3.566  19.941  0.00  0.00    +0.000 A 
ATOM     16  C   UNL     1       4.486   3.430  19.349  0.00  0.00    +0.000 A 
ATOM     17  O   UNL     1       5.070   2.352  19.256  0.00  0.00    +0.000 OA
BRANCH   8  18
ATOM     18  C   UNL     1       6.370   4.610  18.272  0.00  0.00    +0.000 C 
BRANCH  18  21
ATOM     19  C   UNL     1       5.783   4.233  14.429  0.00  0.00    +0.000 C 
ATOM     20  C   UNL     1       5.818   3.956  15.897  0.00  0.00    +0.000 C 
ATOM     21  C   UNL     1       6.250   4.856  16.795  0.00  0.00    +0.000 C 
ENDBRANCH  18  21
ENDBRANCH   8  18
ENDBRANCH   1  10
BRANCH   4  22
ATOM     22  C   UNL     1       0.037  10.813  19.126  0.00  0.00    +0.000 C 
ATOM     23  O   UNL     1       0.536  11.849  19.573  0.00  0.00    +0.000 OA
ATOM     24  N   UNL     1      -1.252  10.797  18.574  0.00  0.00    +0.000 N 
ATOM     25  C   UNL     1      -1.885  12.091  18.307  0.00  0.00    +0.000 C 
ATOM     26  C   UNL     1      -3.380  12.068  18.622  0.00  0.00    +0.000 C 
ATOM     27  C   UNL     1      -4.100  10.933  17.886  0.00  0.00    +0.000 C 
ATOM     28  C   UNL     1      -3.413   9.604  18.207  0.00  0.00    +0.000 C 
ATOM     29  C   UNL     1      -1.911   9.647  17.954  0.00  0.00    +0.000 C 
BRANCH  27  30
ATOM     30  C   UNL     1      -4.197  11.194  16.385  0.00  0.00    +0.000 C 
ATOM     31  N   UNL     1      -4.932  12.285  16.032  0.00  0.00    +0.000 N 
ATOM     32  O   UNL     1      -3.684  10.485  15.523  0.00  0.00    +0.000 OA
ATOM     33  H   UNL     1      -5.514  12.787  16.688  0.00  0.00    +0.000 HD
ATOM     34  H   UNL     1      -5.069  12.451  15.044  0.00  0.00    +0.000 HD
ENDBRANCH  27  30
ENDBRANCH   4  22
TORSDOF 5
ENDMDL
MODEL 5
REMARK VINA RESULT:      -9.2      2.845      4.071
REMARK  Name = 
REMARK  6 active torsions:
REMARK  status: ('A' for Active; 'I' for Inactive)
REMARK    1  A    between atoms: C_1  and  C_2
REMARK    2  A    between atoms: C_3  and  C_4
REMARK    3  A    between atoms: C_4  and  N_5
REMARK    4  A    between atoms: C_7  and  C_8
REMARK    5  A    between atoms: C_11  and  C_12
REMARK    6  A    between atoms: C_17  and  C_18
REMARK                            x       y       z     vdW  Elec       q    Type
REMARK                         _______ _______ _______ _____ _____    ______ ____
ROOT
ATOM      1  C   UNL     1       2.398   7.247  19.292  0.00  0.00    +0.000 A 
ATOM      2  C   UNL     1       2.208   7.867  18.059  0.00  0.00    +0.000 A 
ATOM      3  C   UNL     1       1.478   9.061  17.992  0.00  0.00    +0.000 A 
ATOM      4  C   UNL     1       0.878   9.627  19.140  0.00  0.00    +0.000 A 
ATOM      5  C   UNL     1       0.977   8.924  20.344  0.00  0.00    +0.000 A 
ATOM      6 CL   UNL     1      -0.009   9.218  21.732  0.00  0.00    +0.000 Cl
ATOM      7  C   UNL     1       1.798   7.795  20.433  0.00  0.00    +0.000 A 
ENDROOT
BRANCH   1  10
ATOM      8  N   UNL     1       5.010   4.629  18.889  0.00  0.00    +0.000 N 
ATOM      9  C   UNL     1       4.337   5.850  18.914  0.00  0.00    +0.000 A 
ATOM     10  C   UNL     1       3.096   5.966  19.430  0.00  0.00    +0.000 A 
ATOM     11  N   UNL     1       2.502   4.831  19.980  0.00  0.00    +0.000 N 
ATOM     12  C   UNL     1       1.285   4.637  20.582  0.00  0.00    +0.000 A 
ATOM     13  N   UNL     1       1.112   3.385  20.957  0.00  0.00    +0.000 NA
ATOM     14  C   UNL     1       2.262   2.737  20.581  0.00  0.00    +0.000 A 
ATOM     15  C   UNL     1       3.135   3.610  19.976  0.00  0.00    +0.000 A 
ATOM     16  C   UNL     1       4.434   3.439  19.401  0.00  0.00    +0.000 A 
ATOM     17  O   UNL     1       5.005   2.351  19.348  0.00  0.00    +0.000 OA
BRANCH   8  18
ATOM     18  C   UNL     1       6.342   4.560  18.305  0.00  0.00    +0.000 C 
BRANCH  18  21
ATOM     19  C   UNL     1       5.884   4.187  14.445  0.00  0.00    +0.000 C 
ATOM     20  C   UNL     1       5.898   3.897  15.911  0.00  0.00    +0.000 C 
ATOM     21  C   UNL     1       6.246   4.814  16.828  0.00  0.00    +0.000 C 
ENDBRANCH  18  21
ENDBRANCH   8  18
ENDBRANCH   1  10
BRANCH   4  22
ATOM     22  C   UNL     1       0.081  10.866  18.906  0.00  0.00    +0.000 C 
ATOM     23  O   UNL     1      -0.891  10.738  18.156  0.00  0.00    +0.000 OA
ATOM     24  N   UNL     1       0.457  12.119  19.413  0.00  0.00    +0.000 N 
ATOM     25  C   UNL     1      -0.484  13.226  19.236  0.00  0.00    +0.000 C 
ATOM     26  C   UNL     1       0.233  14.538  18.921  0.00  0.00    +0.000 C 
ATOM     27  C   UNL     1       1.297  14.872  19.973  0.00  0.00    +0.000 C 
ATOM     28  C   UNL     1       2.262  13.694  20.111  0.00  0.00    +0.000 C 
ATOM     29  C   UNL     1       1.543  12.375  20.361  0.00  0.00    +0.000 C 
BRANCH  27  30
ATOM     30  C   UNL     1       0.675  15.278  21.307  0.00  0.00    +0.000 C 
ATOM     31  N   UNL     1      -0.364  16.154  21.221  0.00  0.00    +0.000 N 
ATOM     32  O   UNL     1       1.067  14.885  22.403  0.00  0.00    +0.000 OA
ATOM     33  H   UNL     1      -0.601  16.638  20.366  0.00  0.00    +0.000 HD
ATOM     34  H   UNL     1      -0.758  16.493  22.089  0.00  0.00    +0.000 HD
ENDBRANCH  27  30
ENDBRANCH   4  22
TORSDOF 5
ENDMDL
MODEL 6
REMARK VINA RESULT:      -9.2      2.301      3.393
REMARK  Name = 
REMARK  6 active torsions:
REMARK  status: ('A' for Active; 'I' for Inactive)
REMARK    1  A    between atoms: C_1  and  C_2
REMARK    2  A    between atoms: C_3  and  C_4
REMARK    3  A    between atoms: C_4  and  N_5
REMARK    4  A    between atoms: C_7  and  C_8
REMARK    5  A    between atoms: C_11  and  C_12
REMARK    6  A    between atoms: C_17  and  C_18
REMARK                            x       y       z     vdW  Elec       q    Type
REMARK                         _______ _______ _______ _____ _____    ______ ____
ROOT
ATOM      1  C   UNL     1       2.583   7.580  18.392  0.00  0.00    +0.000 A 
ATOM      2  C   UNL     1       2.087   8.511  17.482  0.00  0.00    +0.000 A 
ATOM      3  C   UNL     1       1.286   9.565  17.940  0.00  0.00    +0.000 A 
ATOM      4  C   UNL     1       0.919   9.679  19.300  0.00  0.00    +0.000 A 
ATOM      5  C   UNL     1       1.325   8.667  20.174  0.00  0.00    +0.000 A 
ATOM      6 CL   UNL     1       0.652   8.402  21.743  0.00  0.00    +0.000 Cl
ATOM      7  C   UNL     1       2.215   7.679  19.740  0.00  0.00    +0.000 A 
ENDROOT
BRANCH   1  10
ATOM      8  N   UNL     1       5.448   5.574  17.126  0.00  0.00    +0.000 N 
ATOM      9  C   UNL     1       4.669   6.604  17.653  0.00  0.00    +0.000 A 
ATOM     10  C   UNL     1       3.373   6.418  17.978  0.00  0.00    +0.000 A 
ATOM     11  N   UNL     1       2.827   5.146  17.808  0.00  0.00    +0.000 N 
ATOM     12  C   UNL     1       1.572   4.650  18.058  0.00  0.00    +0.000 A 
ATOM     13  N   UNL     1       1.473   3.375  17.740  0.00  0.00    +0.000 NA
ATOM     14  C   UNL     1       2.710   3.027  17.260  0.00  0.00    +0.000 A 
ATOM     15  C   UNL     1       3.563   4.106  17.293  0.00  0.00    +0.000 A 
ATOM     16  C   UNL     1       4.928   4.275  16.898  0.00  0.00    +0.000 A 
ATOM     17  O   UNL     1       5.597   3.372  16.397  0.00  0.00    +0.000 OA
BRANCH   8  18
ATOM     18  C   UNL     1       6.837   5.837  16.778  0.00  0.00    +0.000 C 
BRANCH  18  21
ATOM     19  C   UNL     1       8.426   9.030  18.369  0.00  0.00    +0.000 C 
ATOM     20  C   UNL     1       7.811   8.084  17.389  0.00  0.00    +0.000 C 
ATOM     21  C   UNL     1       7.400   6.852  17.731  0.00  0.00    +0.000 C 
ENDBRANCH  18  21
ENDBRANCH   8  18
ENDBRANCH   1  10
BRANCH   4  22
ATOM     22  C   UNL     1       0.013  10.817  19.630  0.00  0.00    +0.000 C 
ATOM     23  O   UNL     1      -1.168  10.517  19.822  0.00  0.00    +0.000 OA
ATOM     24  N   UNL     1       0.439  12.154  19.623  0.00  0.00    +0.000 N 
ATOM     25  C   UNL     1      -0.506  13.163  20.105  0.00  0.00    +0.000 C 
ATOM     26  C   UNL     1      -0.435  14.448  19.283  0.00  0.00    +0.000 C 
ATOM     27  C   UNL     1       0.992  15.005  19.219  0.00  0.00    +0.000 C 
ATOM     28  C   UNL     1       1.937  13.921  18.696  0.00  0.00    +0.000 C 
ATOM     29  C   UNL     1       1.819  12.618  19.477  0.00  0.00    +0.000 C 
BRANCH  27  30
ATOM     30  C   UNL     1       1.444  15.579  20.559  0.00  0.00    +0.000 C 
ATOM     31  N   UNL     1       0.525  16.355  21.198  0.00  0.00    +0.000 N 
ATOM     32  O   UNL     1       2.554  15.398  21.052  0.00  0.00    +0.000 OA
ATOM     33  H   UNL     1      -0.324  16.675  20.752  0.00  0.00    +0.000 HD
ATOM     34  H   UNL     1       0.814  16.802  22.058  0.00  0.00    +0.000 HD
ENDBRANCH  27  30
ENDBRANCH   4  22
TORSDOF 5
ENDMDL
MODEL 7
REMARK VINA RESULT:      -8.8      1.505      2.149
REMARK  Name = 
REMARK  6 active torsions:
REMARK  status: ('A' for Active; 'I' for Inactive)
REMARK    1  A    between atoms: C_1  and  C_2
REMARK    2  A    between atoms: C_3  and  C_4
REMARK    3  A    between atoms: C_4  and  N_5
REMARK    4  A    between atoms: C_7  and  C_8
REMARK    5  A    between atoms: C_11  and  C_12
REMARK    6  A    between atoms: C_17  and  C_18
REMARK                            x       y       z     vdW  Elec       q    Type
REMARK                         _______ _______ _______ _____ _____    ______ ____
ROOT
ATOM      1  C   UNL     1       2.348   7.739  18.852  0.00  0.00    +0.000 A 
ATOM      2  C   UNL     1       1.931   8.563  17.809  0.00  0.00    +0.000 A 
ATOM      3  C   UNL     1       1.050   9.620  18.072  0.00  0.00    +0.000 A 
ATOM      4  C   UNL     1       0.527   9.841  19.367  0.00  0.00    +0.000 A 
ATOM      5  C   UNL     1       0.861   8.930  20.373  0.00  0.00    +0.000 A 
ATOM      6 CL   UNL     1       0.022   8.780  21.875  0.00  0.00    +0.000 Cl
ATOM      7  C   UNL     1       1.826   7.945  20.135  0.00  0.00    +0.000 A 
ENDROOT
BRANCH   1  10
ATOM      8  N   UNL     1       4.986   5.571  17.377  0.00  0.00    +0.000 N 
ATOM      9  C   UNL     1       4.205   6.672  17.727  0.00  0.00    +0.000 A 
ATOM     10  C   UNL     1       3.217   6.579  18.641  0.00  0.00    +0.000 A 
ATOM     11  N   UNL     1       3.011   5.349  19.266  0.00  0.00    +0.000 N 
ATOM     12  C   UNL     1       2.116   4.951  20.226  0.00  0.00    +0.000 A 
ATOM     13  N   UNL     1       2.256   3.678  20.535  0.00  0.00    +0.000 NA
ATOM     14  C   UNL     1       3.280   3.226  19.740  0.00  0.00    +0.000 A 
ATOM     15  C   UNL     1       3.761   4.242  18.948  0.00  0.00    +0.000 A 
ATOM     16  C   UNL     1       4.790   4.292  17.955  0.00  0.00    +0.000 A 
ATOM     17  O   UNL     1       5.449   3.307  17.623  0.00  0.00    +0.000 OA
BRANCH   8  18
ATOM     18  C   UNL     1       6.029   5.727  16.372  0.00  0.00    +0.000 C 
BRANCH  18  21
ATOM     19  C   UNL     1       5.852   3.728  13.022  0.00  0.00    +0.000 C 
ATOM     20  C   UNL     1       6.331   4.282  14.325  0.00  0.00    +0.000 C 
ATOM     21  C   UNL     1       5.577   5.089  15.090  0.00  0.00    +0.000 C 
ENDBRANCH  18  21
ENDBRANCH   8  18
ENDBRANCH   1  10
BRANCH   4  22
ATOM     22  C   UNL     1      -0.446  10.966  19.485  0.00  0.00    +0.000 C 
ATOM     23  O   UNL     1      -0.112  11.878  20.244  0.00  0.00    +0.000 OA
ATOM     24  N   UNL     1      -1.704  10.951  18.863  0.00  0.00    +0.000 N 
ATOM     25  C   UNL     1      -2.504  12.174  18.936  0.00  0.00    +0.000 C 
ATOM     26  C   UNL     1      -3.990  11.872  19.126  0.00  0.00    +0.000 C 
ATOM     27  C   UNL     1      -4.520  10.922  18.047  0.00  0.00    +0.000 C 
ATOM     28  C   UNL     1      -3.662   9.656  18.019  0.00  0.00    +0.000 C 
ATOM     29  C   UNL     1      -2.175   9.960  17.895  0.00  0.00    +0.000 C 
BRANCH  27  30
ATOM     30  C   UNL     1      -4.608  11.599  16.681  0.00  0.00    +0.000 C 
ATOM     31  N   UNL     1      -5.320  12.759  16.653  0.00  0.00    +0.000 N 
ATOM     32  O   UNL     1      -4.108  11.151  15.652  0.00  0.00    +0.000 OA
ATOM     33  H   UNL     1      -5.893  13.067  17.426  0.00  0.00    +0.000 HD
ATOM     34  H   UNL     1      -5.452  13.201  15.753  0.00  0.00    +0.000 HD
ENDBRANCH  27  30
ENDBRANCH   4  22
TORSDOF 5
ENDMDL
MODEL 8
REMARK VINA RESULT:      -8.7      0.736      1.005
REMARK  Name = 
REMARK  6 active torsions:
REMARK  status: ('A' for Active; 'I' for Inactive)
REMARK    1  A    between atoms: C_1  and  C_2
REMARK    2  A    between atoms: C_3  and  C_4
REMARK    3  A    between atoms: C_4  and  N_5
REMARK    4  A    between atoms: C_7  and  C_8
REMARK    5  A    between atoms: C_11  and  C_12
REMARK    6  A    between atoms: C_17  and  C_18
REMARK                            x       y       z     vdW  Elec       q    Type
REMARK                         _______ _______ _______ _____ _____    ______ ____
ROOT
ATOM      1  C   UNL     1       2.436   7.797  18.351  0.00  0.00    +0.000 A 
ATOM      2  C   UNL     1       1.967   8.732  17.431  0.00  0.00    +0.000 A 
ATOM      3  C   UNL     1       1.078   9.729  17.851  0.00  0.00    +0.000 A 
ATOM      4  C   UNL     1       0.598   9.779  19.180  0.00  0.00    +0.000 A 
ATOM      5  C   UNL     1       0.984   8.761  20.055  0.00  0.00    +0.000 A 
ATOM      6 CL   UNL     1       0.202   8.410  21.555  0.00  0.00    +0.000 Cl
ATOM      7  C   UNL     1       1.957   7.833  19.667  0.00  0.00    +0.000 A 
ENDROOT
BRANCH   1  10
ATOM      8  N   UNL     1       5.478   5.984  17.212  0.00  0.00    +0.000 N 
ATOM      9  C   UNL     1       4.613   6.959  17.707  0.00  0.00    +0.000 A 
ATOM     10  C   UNL     1       3.317   6.691  17.970  0.00  0.00    +0.000 A 
ATOM     11  N   UNL     1       2.861   5.388  17.770  0.00  0.00    +0.000 N 
ATOM     12  C   UNL     1       1.630   4.812  17.958  0.00  0.00    +0.000 A 
ATOM     13  N   UNL     1       1.626   3.535  17.630  0.00  0.00    +0.000 NA
ATOM     14  C   UNL     1       2.904   3.270  17.208  0.00  0.00    +0.000 A 
ATOM     15  C   UNL     1       3.685   4.400  17.285  0.00  0.00    +0.000 A 
ATOM     16  C   UNL     1       5.053   4.657  16.956  0.00  0.00    +0.000 A 
ATOM     17  O   UNL     1       5.800   3.802  16.483  0.00  0.00    +0.000 OA
BRANCH   8  18
ATOM     18  C   UNL     1       6.863   6.337  16.931  0.00  0.00    +0.000 C 
BRANCH  18  21
ATOM     19  C   UNL     1       8.488   5.483  20.379  0.00  0.00    +0.000 C 
ATOM     20  C   UNL     1       7.768   5.358  19.075  0.00  0.00    +0.000 C 
ATOM     21  C   UNL     1       7.631   6.386  18.221  0.00  0.00    +0.000 C 
ENDBRANCH  18  21
ENDBRANCH   8  18
ENDBRANCH   1  10
BRANCH   4  22
ATOM     22  C   UNL     1      -0.390  10.860  19.467  0.00  0.00    +0.000 C 
ATOM     23  O   UNL     1      -0.044  11.682  20.320  0.00  0.00    +0.000 OA
ATOM     24  N   UNL     1      -1.670  10.892  18.893  0.00  0.00    +0.000 N 
ATOM     25  C   UNL     1      -2.488  12.080  19.142  0.00  0.00    +0.000 C 
ATOM     26  C   UNL     1      -3.960  11.724  19.346  0.00  0.00    +0.000 C 
ATOM     27  C   UNL     1      -4.514  10.899  18.179  0.00  0.00    +0.000 C 
ATOM     28  C   UNL     1      -3.635   9.664  17.969  0.00  0.00    +0.000 C 
ATOM     29  C   UNL     1      -2.160  10.015  17.829  0.00  0.00    +0.000 C 
BRANCH  27  30
ATOM     30  C   UNL     1      -4.665  11.733  16.909  0.00  0.00    +0.000 C 
ATOM     31  N   UNL     1      -5.556  12.759  16.992  0.00  0.00    +0.000 N 
ATOM     32  O   UNL     1      -4.064  11.514  15.861  0.00  0.00    +0.000 OA
ATOM     33  H   UNL     1      -6.198  12.864  17.765  0.00  0.00    +0.000 HD
ATOM     34  H   UNL     1      -5.728  13.293  16.150  0.00  0.00    +0.000 HD
ENDBRANCH  27  30
ENDBRANCH   4  22
TORSDOF 5
ENDMDL
MODEL 9
REMARK VINA RESULT:      -8.6      2.759      4.973
REMARK  Name = 
REMARK  6 active torsions:
REMARK  status: ('A' for Active; 'I' for Inactive)
REMARK    1  A    between atoms: C_1  and  C_2
REMARK    2  A    between atoms: C_3  and  C_4
REMARK    3  A    between atoms: C_4  and  N_5
REMARK    4  A    between atoms: C_7  and  C_8
REMARK    5  A    between atoms: C_11  and  C_12
REMARK    6  A    between atoms: C_17  and  C_18
REMARK                            x       y       z     vdW  Elec       q    Type
REMARK                         _______ _______ _______ _____ _____    ______ ____
ROOT
ATOM      1  C   UNL     1       2.229   7.604  18.431  0.00  0.00    +0.000 A 
ATOM      2  C   UNL     1       1.721   8.570  17.566  0.00  0.00    +0.000 A 
ATOM      3  C   UNL     1       1.107   9.714  18.092  0.00  0.00    +0.000 A 
ATOM      4  C   UNL     1       0.938   9.890  19.485  0.00  0.00    +0.000 A 
ATOM      5  C   UNL     1       1.344   8.852  20.329  0.00  0.00    +0.000 A 
ATOM      6 CL   UNL     1       0.860   8.689  21.979  0.00  0.00    +0.000 Cl
ATOM      7  C   UNL     1       2.056   7.764  19.812  0.00  0.00    +0.000 A 
ENDROOT
BRANCH   1  10
ATOM      8  N   UNL     1       2.698   3.966  17.817  0.00  0.00    +0.000 N 
ATOM      9  C   UNL     1       2.140   5.206  18.125  0.00  0.00    +0.000 A 
ATOM     10  C   UNL     1       2.826   6.355  17.954  0.00  0.00    +0.000 A 
ATOM     11  N   UNL     1       4.113   6.281  17.420  0.00  0.00    +0.000 N 
ATOM     12  C   UNL     1       5.034   7.251  17.119  0.00  0.00    +0.000 A 
ATOM     13  N   UNL     1       6.148   6.742  16.633  0.00  0.00    +0.000 NA
ATOM     14  C   UNL     1       5.946   5.385  16.621  0.00  0.00    +0.000 A 
ATOM     15  C   UNL     1       4.696   5.077  17.103  0.00  0.00    +0.000 A 
ATOM     16  C   UNL     1       4.015   3.835  17.309  0.00  0.00    +0.000 A 
ATOM     17  O   UNL     1       4.529   2.743  17.072  0.00  0.00    +0.000 OA
BRANCH   8  18
ATOM     18  C   UNL     1       1.916   2.757  18.038  0.00  0.00    +0.000 C 
BRANCH  18  21
ATOM     19  C   UNL     1       1.414   2.598  21.908  0.00  0.00    +0.000 C 
ATOM     20  C   UNL     1       2.049   2.624  20.556  0.00  0.00    +0.000 C 
ATOM     21  C   UNL     1       1.342   2.789  19.425  0.00  0.00    +0.000 C 
ENDBRANCH  18  21
ENDBRANCH   8  18
ENDBRANCH   1  10
BRANCH   4  22
ATOM     22  C   UNL     1       0.213  11.127  19.895  0.00  0.00    +0.000 C 
ATOM     23  O   UNL     1      -0.924  10.953  20.341  0.00  0.00    +0.000 OA
ATOM     24  N   UNL     1       0.735  12.414  19.696  0.00  0.00    +0.000 N 
ATOM     25  C   UNL     1      -0.007  13.537  20.274  0.00  0.00    +0.000 C 
ATOM     26  C   UNL     1      -0.003  14.756  19.353  0.00  0.00    +0.000 C 
ATOM     27  C   UNL     1       1.421  15.169  18.962  0.00  0.00    +0.000 C 
ATOM     28  C   UNL     1       2.148  13.970  18.352  0.00  0.00    +0.000 C 
ATOM     29  C   UNL     1       2.088  12.736  19.243  0.00  0.00    +0.000 C 
BRANCH  27  30
ATOM     30  C   UNL     1       2.182  15.780  20.136  0.00  0.00    +0.000 C 
ATOM     31  N   UNL     1       1.478  16.677  20.880  0.00  0.00    +0.000 N 
ATOM     32  O   UNL     1       3.352  15.527  20.411  0.00  0.00    +0.000 OA
ATOM     33  H   UNL     1       0.584  17.048  20.588  0.00  0.00    +0.000 HD
ATOM     34  H   UNL     1       1.971  17.148  21.627  0.00  0.00    +0.000 HD
ENDBRANCH  27  30
ENDBRANCH   4  22
TORSDOF 5
ENDMDL
