MODEL 1
REMARK VINA RESULT:      -7.9      0.000      0.000
REMARK  Name = 
REMARK  7 active torsions:
REMARK  status: ('A' for Active; 'I' for Inactive)
REMARK    1  A    between atoms: C_1  and  O_2
REMARK    2  A    between atoms: O_2  and  C_3
REMARK    3  A    between atoms: C_3  and  C_5
REMARK    4  A    between atoms: C_5  and  C_6
REMARK    5  A    between atoms: C_6  and  C_7
REMARK    6  A    between atoms: N_17  and  C_18
REMARK    7  A    between atoms: C_18  and  C_19
REMARK                            x       y       z     vdW  Elec       q    Type
REMARK                         _______ _______ _______ _____ _____    ______ ____
ROOT
ATOM      1  C   UNL     1       2.304   3.883  17.809  0.00  0.00    +0.000 C 
ATOM      2  O   UNL     1       1.124   3.984  17.487  0.00  0.00    +0.000 OA
ATOM      3  N   UNL     1       3.130   5.000  18.019  0.00  0.00    +0.000 N 
ATOM      4  C   UNL     1       2.618   6.360  17.925  0.00  0.00    +0.000 C 
ATOM      5  C   UNL     1       3.641   7.370  17.369  0.00  0.00    +0.000 C 
ATOM      6  C   UNL     1       5.094   7.142  17.796  0.00  0.00    +0.000 C 
ATOM      7  C   UNL     1       5.544   5.681  17.892  0.00  0.00    +0.000 C 
ATOM      8  C   UNL     1       6.786   5.583  18.833  0.00  0.00    +0.000 C 
ATOM      9  C   UNL     1       7.711   4.579  18.196  0.00  0.00    +0.000 C 
ATOM     10  C   UNL     1       7.405   4.757  16.735  0.00  0.00    +0.000 C 
ATOM     11  N   UNL     1       5.929   4.939  16.635  0.00  0.00    +0.000 NA
ATOM     12  C   UNL     1       4.437   4.910  18.660  0.00  0.00    +0.000 C 
ENDROOT
BRANCH   1  13
ATOM     13  C   UNL     1       2.954   2.518  18.062  0.00  0.00    +0.000 C 
BRANCH  13  14
ATOM     14  C   UNL     1       2.636   1.797  19.363  0.00  0.00    +0.000 C 
BRANCH  14  15
ATOM     15  C   UNL     1       3.559   2.232  20.480  0.00  0.00    +0.000 C 
ATOM     16  O   UNL     1       4.755   1.982  20.528  0.00  0.00    +0.000 OA
BRANCH  15  18
ATOM     17  C   UNL     1       1.474   2.709  21.528  0.00  0.00    +0.000 C 
ATOM     18  O   UNL     1       2.882   2.959  21.416  0.00  0.00    +0.000 OA
ENDBRANCH  15  18
ENDBRANCH  14  15
ENDBRANCH  13  14
ENDBRANCH   1  13
BRANCH  11  19
ATOM     19  C   UNL     1       5.733   5.509  15.279  0.00  0.00    +0.000 C 
BRANCH  19  20
ATOM     20  C   UNL     1       6.033   4.825  13.960  0.00  0.00    +0.000 A 
ATOM     21  C   UNL     1       7.248   5.195  13.328  0.00  0.00    +0.000 A 
ATOM     22  C   UNL     1       7.704   4.574  12.163  0.00  0.00    +0.000 A 
ATOM     23  C   UNL     1       6.949   3.563  11.591  0.00  0.00    +0.000 A 
ATOM     24  C   UNL     1       5.770   3.167  12.211  0.00  0.00    +0.000 A 
ATOM     25  F   UNL     1       5.060   2.176  11.656  0.00  0.00    +0.000 F 
ATOM     26  C   UNL     1       5.325   3.765  13.399  0.00  0.00    +0.000 A 
ENDBRANCH  19  20
ENDBRANCH  11  19
TORSDOF 6
ENDMDL
MODEL 2
REMARK VINA RESULT:      -7.2      1.643      2.092
REMARK  Name = 
REMARK  7 active torsions:
REMARK  status: ('A' for Active; 'I' for Inactive)
REMARK    1  A    between atoms: C_1  and  O_2
REMARK    2  A    between atoms: O_2  and  C_3
REMARK    3  A    between atoms: C_3  and  C_5
REMARK    4  A    between atoms: C_5  and  C_6
REMARK    5  A    between atoms: C_6  and  C_7
REMARK    6  A    between atoms: N_17  and  C_18
REMARK    7  A    between atoms: C_18  and  C_19
REMARK                            x       y       z     vdW  Elec       q    Type
REMARK                         _______ _______ _______ _____ _____    ______ ____
ROOT
ATOM      1  C   UNL     1       2.647   4.991  19.565  0.00  0.00    +0.000 C 
ATOM      2  O   UNL     1       1.429   5.138  19.513  0.00  0.00    +0.000 OA
ATOM      3  N   UNL     1       3.544   5.877  18.946  0.00  0.00    +0.000 N 
ATOM      4  C   UNL     1       3.083   7.069  18.247  0.00  0.00    +0.000 C 
ATOM      5  C   UNL     1       3.941   7.438  17.021  0.00  0.00    +0.000 C 
ATOM      6  C   UNL     1       5.445   7.186  17.165  0.00  0.00    +0.000 C 
ATOM      7  C   UNL     1       5.842   5.922  17.935  0.00  0.00    +0.000 C 
ATOM      8  C   UNL     1       7.299   6.080  18.473  0.00  0.00    +0.000 C 
ATOM      9  C   UNL     1       7.956   4.737  18.294  0.00  0.00    +0.000 C 
ATOM     10  C   UNL     1       7.245   4.202  17.082  0.00  0.00    +0.000 C 
ATOM     11  N   UNL     1       5.813   4.586  17.232  0.00  0.00    +0.000 NA
ATOM     12  C   UNL     1       4.976   5.877  19.222  0.00  0.00    +0.000 C 
ENDROOT
BRANCH   1  13
ATOM     13  C   UNL     1       3.285   3.849  20.365  0.00  0.00    +0.000 C 
BRANCH  13  14
ATOM     14  C   UNL     1       2.875   2.421  20.038  0.00  0.00    +0.000 C 
BRANCH  14  15
ATOM     15  C   UNL     1       2.907   2.160  18.548  0.00  0.00    +0.000 C 
ATOM     16  O   UNL     1       3.890   1.776  17.933  0.00  0.00    +0.000 OA
BRANCH  15  18
ATOM     17  C   UNL     1       0.540   2.002  18.762  0.00  0.00    +0.000 C 
ATOM     18  O   UNL     1       1.684   2.391  17.988  0.00  0.00    +0.000 OA
ENDBRANCH  15  18
ENDBRANCH  14  15
ENDBRANCH  13  14
ENDBRANCH   1  13
BRANCH  11  19
ATOM     19  C   UNL     1       5.254   4.412  15.869  0.00  0.00    +0.000 C 
BRANCH  19  20
ATOM     20  C   UNL     1       6.035   4.375  14.571  0.00  0.00    +0.000 A 
ATOM     21  C   UNL     1       5.509   3.542  13.549  0.00  0.00    +0.000 A 
ATOM     22  C   UNL     1       6.065   3.488  12.269  0.00  0.00    +0.000 A 
ATOM     23  C   UNL     1       7.172   4.266  11.974  0.00  0.00    +0.000 A 
ATOM     24  C   UNL     1       7.685   5.109  12.953  0.00  0.00    +0.000 A 
ATOM     25  F   UNL     1       8.746   5.867  12.648  0.00  0.00    +0.000 F 
ATOM     26  C   UNL     1       7.111   5.191  14.230  0.00  0.00    +0.000 A 
ENDBRANCH  19  20
ENDBRANCH  11  19
TORSDOF 6
ENDMDL
MODEL 3
REMARK VINA RESULT:      -7.2      2.545      5.144
REMARK  Name = 
REMARK  7 active torsions:
REMARK  status: ('A' for Active; 'I' for Inactive)
REMARK    1  A    between atoms: C_1  and  O_2
REMARK    2  A    between atoms: O_2  and  C_3
REMARK    3  A    between atoms: C_3  and  C_5
REMARK    4  A    between atoms: C_5  and  C_6
REMARK    5  A    between atoms: C_6  and  C_7
REMARK    6  A    between atoms: N_17  and  C_18
REMARK    7  A    between atoms: C_18  and  C_19
REMARK                            x       y       z     vdW  Elec       q    Type
REMARK                         _______ _______ _______ _____ _____    ______ ____
ROOT
ATOM      1  C   UNL     1       4.575   3.392  19.232  0.00  0.00    +0.000 C 
ATOM      2  O   UNL     1       4.305   3.439  20.429  0.00  0.00    +0.000 OA
ATOM      3  N   UNL     1       5.648   4.103  18.670  0.00  0.00    +0.000 N 
ATOM      4  C   UNL     1       6.552   4.901  19.488  0.00  0.00    +0.000 C 
ATOM      5  C   UNL     1       7.072   6.168  18.781  0.00  0.00    +0.000 C 
ATOM      6  C   UNL     1       7.346   6.024  17.281  0.00  0.00    +0.000 C 
ATOM      7  C   UNL     1       6.360   5.149  16.500  0.00  0.00    +0.000 C 
ATOM      8  C   UNL     1       7.041   4.649  15.186  0.00  0.00    +0.000 C 
ATOM      9  C   UNL     1       5.981   4.715  14.119  0.00  0.00    +0.000 C 
ATOM     10  C   UNL     1       5.133   5.863  14.593  0.00  0.00    +0.000 C 
ATOM     11  N   UNL     1       5.032   5.726  16.074  0.00  0.00    +0.000 NA
ATOM     12  C   UNL     1       6.149   3.850  17.323  0.00  0.00    +0.000 C 
ENDROOT
BRANCH   1  13
ATOM     13  C   UNL     1       3.787   2.501  18.265  0.00  0.00    +0.000 C 
BRANCH  13  14
ATOM     14  C   UNL     1       2.359   2.127  18.628  0.00  0.00    +0.000 C 
BRANCH  14  15
ATOM     15  C   UNL     1       1.415   3.297  18.450  0.00  0.00    +0.000 C 
ATOM     16  O   UNL     1       1.219   3.874  17.391  0.00  0.00    +0.000 OA
BRANCH  15  18
ATOM     17  C   UNL     1       1.109   2.776  20.753  0.00  0.00    +0.000 C 
ATOM     18  O   UNL     1       0.795   3.604  19.626  0.00  0.00    +0.000 OA
ENDBRANCH  15  18
ENDBRANCH  14  15
ENDBRANCH  13  14
ENDBRANCH   1  13
BRANCH  11  19
ATOM     19  C   UNL     1       4.560   7.060  16.521  0.00  0.00    +0.000 C 
BRANCH  19  20
ATOM     20  C   UNL     1       3.615   7.344  17.671  0.00  0.00    +0.000 A 
ATOM     21  C   UNL     1       2.846   8.532  17.568  0.00  0.00    +0.000 A 
ATOM     22  C   UNL     1       1.862   8.869  18.500  0.00  0.00    +0.000 A 
ATOM     23  C   UNL     1       1.622   8.024  19.571  0.00  0.00    +0.000 A 
ATOM     24  C   UNL     1       2.344   6.841  19.674  0.00  0.00    +0.000 A 
ATOM     25  F   UNL     1       2.089   6.026  20.705  0.00  0.00    +0.000 F 
ATOM     26  C   UNL     1       3.311   6.483  18.723  0.00  0.00    +0.000 A 
ENDBRANCH  19  20
ENDBRANCH  11  19
TORSDOF 6
ENDMDL
MODEL 4
REMARK VINA RESULT:      -7.1      0.994      1.399
REMARK  Name = 
REMARK  7 active torsions:
REMARK  status: ('A' for Active; 'I' for Inactive)
REMARK    1  A    between atoms: C_1  and  O_2
REMARK    2  A    between atoms: O_2  and  C_3
REMARK    3  A    between atoms: C_3  and  C_5
REMARK    4  A    between atoms: C_5  and  C_6
REMARK    5  A    between atoms: C_6  and  C_7
REMARK    6  A    between atoms: N_17  and  C_18
REMARK    7  A    between atoms: C_18  and  C_19
REMARK                            x       y       z     vdW  Elec       q    Type
REMARK                         _______ _______ _______ _____ _____    ______ ____
ROOT
ATOM      1  C   UNL     1       2.373   3.958  17.657  0.00  0.00    +0.000 C 
ATOM      2  O   UNL     1       1.207   4.074  17.291  0.00  0.00    +0.000 OA
ATOM      3  N   UNL     1       3.239   5.057  17.787  0.00  0.00    +0.000 N 
ATOM      4  C   UNL     1       2.786   6.421  17.550  0.00  0.00    +0.000 C 
ATOM      5  C   UNL     1       3.865   7.333  16.934  0.00  0.00    +0.000 C 
ATOM      6  C   UNL     1       5.295   7.091  17.424  0.00  0.00    +0.000 C 
ATOM      7  C   UNL     1       5.682   5.629  17.671  0.00  0.00    +0.000 C 
ATOM      8  C   UNL     1       6.893   5.572  18.654  0.00  0.00    +0.000 C 
ATOM      9  C   UNL     1       7.792   4.478  18.143  0.00  0.00    +0.000 C 
ATOM     10  C   UNL     1       7.533   4.528  16.663  0.00  0.00    +0.000 C 
ATOM     11  N   UNL     1       6.069   4.757  16.501  0.00  0.00    +0.000 NA
ATOM     12  C   UNL     1       4.524   4.978  18.473  0.00  0.00    +0.000 C 
ENDROOT
BRANCH   1  13
ATOM     13  C   UNL     1       2.959   2.599  18.057  0.00  0.00    +0.000 C 
BRANCH  13  14
ATOM     14  C   UNL     1       2.268   1.811  19.159  0.00  0.00    +0.000 C 
BRANCH  14  15
ATOM     15  C   UNL     1       2.275   2.565  20.471  0.00  0.00    +0.000 C 
ATOM     16  O   UNL     1       3.187   2.534  21.284  0.00  0.00    +0.000 OA
BRANCH  15  18
ATOM     17  C   UNL     1       1.303   4.718  20.773  0.00  0.00    +0.000 C 
ATOM     18  O   UNL     1       1.135   3.303  20.613  0.00  0.00    +0.000 OA
ENDBRANCH  15  18
ENDBRANCH  14  15
ENDBRANCH  13  14
ENDBRANCH   1  13
BRANCH  11  19
ATOM     19  C   UNL     1       5.933   5.203  15.092  0.00  0.00    +0.000 C 
BRANCH  19  20
ATOM     20  C   UNL     1       5.884   4.315  13.865  0.00  0.00    +0.000 A 
ATOM     21  C   UNL     1       4.591   4.021  13.359  0.00  0.00    +0.000 A 
ATOM     22  C   UNL     1       4.397   3.302  12.177  0.00  0.00    +0.000 A 
ATOM     23  C   UNL     1       5.497   2.850  11.467  0.00  0.00    +0.000 A 
ATOM     24  C   UNL     1       6.771   3.152  11.932  0.00  0.00    +0.000 A 
ATOM     25  F   UNL     1       7.825   2.722  11.226  0.00  0.00    +0.000 F 
ATOM     26  C   UNL     1       6.972   3.901  13.101  0.00  0.00    +0.000 A 
ENDBRANCH  19  20
ENDBRANCH  11  19
TORSDOF 6
ENDMDL
MODEL 5
REMARK VINA RESULT:      -7.0      2.698      5.248
REMARK  Name = 
REMARK  7 active torsions:
REMARK  status: ('A' for Active; 'I' for Inactive)
REMARK    1  A    between atoms: C_1  and  O_2
REMARK    2  A    between atoms: O_2  and  C_3
REMARK    3  A    between atoms: C_3  and  C_5
REMARK    4  A    between atoms: C_5  and  C_6
REMARK    5  A    between atoms: C_6  and  C_7
REMARK    6  A    between atoms: N_17  and  C_18
REMARK    7  A    between atoms: C_18  and  C_19
REMARK                            x       y       z     vdW  Elec       q    Type
REMARK                         _______ _______ _______ _____ _____    ______ ____
ROOT
ATOM      1  C   UNL     1       4.551   3.325  19.111  0.00  0.00    +0.000 C 
ATOM      2  O   UNL     1       4.267   3.307  20.306  0.00  0.00    +0.000 OA
ATOM      3  N   UNL     1       5.641   4.051  18.603  0.00  0.00    +0.000 N 
ATOM      4  C   UNL     1       6.545   4.786  19.477  0.00  0.00    +0.000 C 
ATOM      5  C   UNL     1       7.092   6.084  18.851  0.00  0.00    +0.000 C 
ATOM      6  C   UNL     1       7.382   6.023  17.348  0.00  0.00    +0.000 C 
ATOM      7  C   UNL     1       6.394   5.209  16.506  0.00  0.00    +0.000 C 
ATOM      8  C   UNL     1       7.083   4.776  15.174  0.00  0.00    +0.000 C 
ATOM      9  C   UNL     1       6.037   4.920  14.100  0.00  0.00    +0.000 C 
ATOM     10  C   UNL     1       5.200   6.051  14.630  0.00  0.00    +0.000 C 
ATOM     11  N   UNL     1       5.080   5.831  16.099  0.00  0.00    +0.000 NA
ATOM     12  C   UNL     1       6.154   3.869  17.250  0.00  0.00    +0.000 C 
ENDROOT
BRANCH   1  13
ATOM     13  C   UNL     1       3.762   2.504  18.085  0.00  0.00    +0.000 C 
BRANCH  13  14
ATOM     14  C   UNL     1       2.404   1.952  18.491  0.00  0.00    +0.000 C 
BRANCH  14  15
ATOM     15  C   UNL     1       1.332   3.020  18.442  0.00  0.00    +0.000 C 
ATOM     16  O   UNL     1       1.226   3.855  17.556  0.00  0.00    +0.000 OA
BRANCH  15  18
ATOM     17  C   UNL     1       1.025   3.254  20.792  0.00  0.00    +0.000 C 
ATOM     18  O   UNL     1       0.487   2.910  19.508  0.00  0.00    +0.000 OA
ENDBRANCH  15  18
ENDBRANCH  14  15
ENDBRANCH  13  14
ENDBRANCH   1  13
BRANCH  11  19
ATOM     19  C   UNL     1       4.622   7.143  16.618  0.00  0.00    +0.000 C 
BRANCH  19  20
ATOM     20  C   UNL     1       3.514   7.379  17.625  0.00  0.00    +0.000 A 
ATOM     21  C   UNL     1       3.386   6.407  18.651  0.00  0.00    +0.000 A 
ATOM     22  C   UNL     1       2.479   6.547  19.704  0.00  0.00    +0.000 A 
ATOM     23  C   UNL     1       1.666   7.667  19.757  0.00  0.00    +0.000 A 
ATOM     24  C   UNL     1       1.796   8.644  18.777  0.00  0.00    +0.000 A 
ATOM     25  F   UNL     1       1.015   9.729  18.851  0.00  0.00    +0.000 F 
ATOM     26  C   UNL     1       2.728   8.523  17.736  0.00  0.00    +0.000 A 
ENDBRANCH  19  20
ENDBRANCH  11  19
TORSDOF 6
ENDMDL
MODEL 6
REMARK VINA RESULT:      -7.0      1.217      1.627
REMARK  Name = 
REMARK  7 active torsions:
REMARK  status: ('A' for Active; 'I' for Inactive)
REMARK    1  A    between atoms: C_1  and  O_2
REMARK    2  A    between atoms: O_2  and  C_3
REMARK    3  A    between atoms: C_3  and  C_5
REMARK    4  A    between atoms: C_5  and  C_6
REMARK    5  A    between atoms: C_6  and  C_7
REMARK    6  A    between atoms: N_17  and  C_18
REMARK    7  A    between atoms: C_18  and  C_19
REMARK                            x       y       z     vdW  Elec       q    Type
REMARK                         _______ _______ _______ _____ _____    ______ ____
ROOT
ATOM      1  C   UNL     1       2.627   5.088  19.820  0.00  0.00    +0.000 C 
ATOM      2  O   UNL     1       1.410   5.248  19.866  0.00  0.00    +0.000 OA
ATOM      3  N   UNL     1       3.476   5.948  19.104  0.00  0.00    +0.000 N 
ATOM      4  C   UNL     1       2.970   7.127  18.415  0.00  0.00    +0.000 C 
ATOM      5  C   UNL     1       3.725   7.455  17.113  0.00  0.00    +0.000 C 
ATOM      6  C   UNL     1       5.233   7.189  17.136  0.00  0.00    +0.000 C 
ATOM      7  C   UNL     1       5.682   5.941  17.902  0.00  0.00    +0.000 C 
ATOM      8  C   UNL     1       7.180   6.096  18.312  0.00  0.00    +0.000 C 
ATOM      9  C   UNL     1       7.807   4.741  18.113  0.00  0.00    +0.000 C 
ATOM     10  C   UNL     1       6.991   4.184  16.980  0.00  0.00    +0.000 C 
ATOM     11  N   UNL     1       5.580   4.588  17.240  0.00  0.00    +0.000 NA
ATOM     12  C   UNL     1       4.927   5.939  19.258  0.00  0.00    +0.000 C 
ENDROOT
BRANCH   1  13
ATOM     13  C   UNL     1       3.319   3.960  20.593  0.00  0.00    +0.000 C 
BRANCH  13  14
ATOM     14  C   UNL     1       2.932   2.524  20.275  0.00  0.00    +0.000 C 
BRANCH  14  15
ATOM     15  C   UNL     1       4.075   1.768  19.632  0.00  0.00    +0.000 C 
ATOM     16  O   UNL     1       5.165   1.584  20.154  0.00  0.00    +0.000 OA
BRANCH  15  18
ATOM     17  C   UNL     1       2.695   2.033  17.709  0.00  0.00    +0.000 C 
ATOM     18  O   UNL     1       3.717   1.302  18.400  0.00  0.00    +0.000 OA
ENDBRANCH  15  18
ENDBRANCH  14  15
ENDBRANCH  13  14
ENDBRANCH   1  13
BRANCH  11  19
ATOM     19  C   UNL     1       4.907   4.386  15.933  0.00  0.00    +0.000 C 
BRANCH  19  20
ATOM     20  C   UNL     1       5.577   4.293  14.577  0.00  0.00    +0.000 A 
ATOM     21  C   UNL     1       6.734   5.095  14.397  0.00  0.00    +0.000 A 
ATOM     22  C   UNL     1       7.512   5.034  13.238  0.00  0.00    +0.000 A 
ATOM     23  C   UNL     1       7.149   4.169  12.219  0.00  0.00    +0.000 A 
ATOM     24  C   UNL     1       6.035   3.355  12.389  0.00  0.00    +0.000 A 
ATOM     25  F   UNL     1       5.706   2.511  11.402  0.00  0.00    +0.000 F 
ATOM     26  C   UNL     1       5.269   3.389  13.564  0.00  0.00    +0.000 A 
ENDBRANCH  19  20
ENDBRANCH  11  19
TORSDOF 6
ENDMDL
MODEL 7
REMARK VINA RESULT:      -6.9      1.352      1.847
REMARK  Name = 
REMARK  7 active torsions:
REMARK  status: ('A' for Active; 'I' for Inactive)
REMARK    1  A    between atoms: C_1  and  O_2
REMARK    2  A    between atoms: O_2  and  C_3
REMARK    3  A    between atoms: C_3  and  C_5
REMARK    4  A    between atoms: C_5  and  C_6
REMARK    5  A    between atoms: C_6  and  C_7
REMARK    6  A    between atoms: N_17  and  C_18
REMARK    7  A    between atoms: C_18  and  C_19
REMARK                            x       y       z     vdW  Elec       q    Type
REMARK                         _______ _______ _______ _____ _____    ______ ____
ROOT
ATOM      1  C   UNL     1       2.586   5.009  19.659  0.00  0.00    +0.000 C 
ATOM      2  O   UNL     1       1.378   5.222  19.700  0.00  0.00    +0.000 OA
ATOM      3  N   UNL     1       3.490   5.889  19.041  0.00  0.00    +0.000 N 
ATOM      4  C   UNL     1       3.053   7.150  18.458  0.00  0.00    +0.000 C 
ATOM      5  C   UNL     1       3.850   7.562  17.204  0.00  0.00    +0.000 C 
ATOM      6  C   UNL     1       5.343   7.222  17.228  0.00  0.00    +0.000 C 
ATOM      7  C   UNL     1       5.717   5.887  17.881  0.00  0.00    +0.000 C 
ATOM      8  C   UNL     1       7.213   5.931  18.328  0.00  0.00    +0.000 C 
ATOM      9  C   UNL     1       7.780   4.572  18.014  0.00  0.00    +0.000 C 
ATOM     10  C   UNL     1       6.963   4.163  16.819  0.00  0.00    +0.000 C 
ATOM     11  N   UNL     1       5.567   4.609  17.093  0.00  0.00    +0.000 NA
ATOM     12  C   UNL     1       4.935   5.796  19.218  0.00  0.00    +0.000 C 
ENDROOT
BRANCH   1  13
ATOM     13  C   UNL     1       3.209   3.781  20.334  0.00  0.00    +0.000 C 
BRANCH  13  14
ATOM     14  C   UNL     1       2.442   2.468  20.295  0.00  0.00    +0.000 C 
BRANCH  14  15
ATOM     15  C   UNL     1       1.871   2.198  18.920  0.00  0.00    +0.000 C 
ATOM     16  O   UNL     1       0.678   2.128  18.666  0.00  0.00    +0.000 OA
BRANCH  15  18
ATOM     17  C   UNL     1       3.896   1.109  18.297  0.00  0.00    +0.000 C 
ATOM     18  O   UNL     1       2.868   2.064  17.998  0.00  0.00    +0.000 OA
ENDBRANCH  15  18
ENDBRANCH  14  15
ENDBRANCH  13  14
ENDBRANCH   1  13
BRANCH  11  19
ATOM     19  C   UNL     1       4.913   4.562  15.762  0.00  0.00    +0.000 C 
BRANCH  19  20
ATOM     20  C   UNL     1       5.601   4.381  14.424  0.00  0.00    +0.000 A 
ATOM     21  C   UNL     1       6.773   5.153  14.215  0.00  0.00    +0.000 A 
ATOM     22  C   UNL     1       7.566   5.014  13.073  0.00  0.00    +0.000 A 
ATOM     23  C   UNL     1       7.204   4.097  12.101  0.00  0.00    +0.000 A 
ATOM     24  C   UNL     1       6.075   3.311  12.301  0.00  0.00    +0.000 A 
ATOM     25  F   UNL     1       5.746   2.416  11.359  0.00  0.00    +0.000 F 
ATOM     26  C   UNL     1       5.293   3.424  13.460  0.00  0.00    +0.000 A 
ENDBRANCH  19  20
ENDBRANCH  11  19
TORSDOF 6
ENDMDL
MODEL 8
REMARK VINA RESULT:      -6.7      1.637      2.210
REMARK  Name = 
REMARK  7 active torsions:
REMARK  status: ('A' for Active; 'I' for Inactive)
REMARK    1  A    between atoms: C_1  and  O_2
REMARK    2  A    between atoms: O_2  and  C_3
REMARK    3  A    between atoms: C_3  and  C_5
REMARK    4  A    between atoms: C_5  and  C_6
REMARK    5  A    between atoms: C_6  and  C_7
REMARK    6  A    between atoms: N_17  and  C_18
REMARK    7  A    between atoms: C_18  and  C_19
REMARK                            x       y       z     vdW  Elec       q    Type
REMARK                         _______ _______ _______ _____ _____    ______ ____
ROOT
ATOM      1  C   UNL     1       2.477   4.975  19.471  0.00  0.00    +0.000 C 
ATOM      2  O   UNL     1       1.263   5.137  19.387  0.00  0.00    +0.000 OA
ATOM      3  N   UNL     1       3.401   5.863  18.895  0.00  0.00    +0.000 N 
ATOM      4  C   UNL     1       2.974   7.073  18.207  0.00  0.00    +0.000 C 
ATOM      5  C   UNL     1       3.871   7.456  17.014  0.00  0.00    +0.000 C 
ATOM      6  C   UNL     1       5.366   7.184  17.196  0.00  0.00    +0.000 C 
ATOM      7  C   UNL     1       5.728   5.900  17.951  0.00  0.00    +0.000 C 
ATOM      8  C   UNL     1       7.170   6.032  18.533  0.00  0.00    +0.000 C 
ATOM      9  C   UNL     1       7.817   4.685  18.346  0.00  0.00    +0.000 C 
ATOM     10  C   UNL     1       7.135   4.181  17.104  0.00  0.00    +0.000 C 
ATOM     11  N   UNL     1       5.704   4.579  17.221  0.00  0.00    +0.000 NA
ATOM     12  C   UNL     1       4.825   5.841  19.212  0.00  0.00    +0.000 C 
ENDROOT
BRANCH   1  13
ATOM     13  C   UNL     1       3.079   3.811  20.266  0.00  0.00    +0.000 C 
BRANCH  13  14
ATOM     14  C   UNL     1       2.571   2.405  19.986  0.00  0.00    +0.000 C 
BRANCH  14  15
ATOM     15  C   UNL     1       2.861   1.982  18.562  0.00  0.00    +0.000 C 
ATOM     16  O   UNL     1       2.353   2.487  17.572  0.00  0.00    +0.000 OA
BRANCH  15  18
ATOM     17  C   UNL     1       4.785   0.994  19.558  0.00  0.00    +0.000 C 
ATOM     18  O   UNL     1       3.783   0.976  18.532  0.00  0.00    +0.000 OA
ENDBRANCH  15  18
ENDBRANCH  14  15
ENDBRANCH  13  14
ENDBRANCH   1  13
BRANCH  11  19
ATOM     19  C   UNL     1       5.183   4.438  15.840  0.00  0.00    +0.000 C 
BRANCH  19  20
ATOM     20  C   UNL     1       6.003   4.386  14.567  0.00  0.00    +0.000 A 
ATOM     21  C   UNL     1       5.512   3.533  13.543  0.00  0.00    +0.000 A 
ATOM     22  C   UNL     1       6.106   3.463  12.281  0.00  0.00    +0.000 A 
ATOM     23  C   UNL     1       7.217   4.243  12.007  0.00  0.00    +0.000 A 
ATOM     24  C   UNL     1       7.695   5.105  12.987  0.00  0.00    +0.000 A 
ATOM     25  F   UNL     1       8.760   5.866  12.702  0.00  0.00    +0.000 F 
ATOM     26  C   UNL     1       7.083   5.203  14.245  0.00  0.00    +0.000 A 
ENDBRANCH  19  20
ENDBRANCH  11  19
TORSDOF 6
ENDMDL
MODEL 9
REMARK VINA RESULT:      -6.7      3.854      6.460
REMARK  Name = 
REMARK  7 active torsions:
REMARK  status: ('A' for Active; 'I' for Inactive)
REMARK    1  A    between atoms: C_1  and  O_2
REMARK    2  A    between atoms: O_2  and  C_3
REMARK    3  A    between atoms: C_3  and  C_5
REMARK    4  A    between atoms: C_5  and  C_6
REMARK    5  A    between atoms: C_6  and  C_7
REMARK    6  A    between atoms: N_17  and  C_18
REMARK    7  A    between atoms: C_18  and  C_19
REMARK                            x       y       z     vdW  Elec       q    Type
REMARK                         _______ _______ _______ _____ _____    ______ ____
ROOT
ATOM      1  C   UNL     1       4.893   4.502  17.218  0.00  0.00    +0.000 C 
ATOM      2  O   UNL     1       5.059   5.130  16.176  0.00  0.00    +0.000 OA
ATOM      3  N   UNL     1       3.678   3.874  17.537  0.00  0.00    +0.000 N 
ATOM      4  C   UNL     1       2.548   3.878  16.617  0.00  0.00    +0.000 C 
ATOM      5  C   UNL     1       1.177   3.932  17.320  0.00  0.00    +0.000 C 
ATOM      6  C   UNL     1       1.075   3.148  18.631  0.00  0.00    +0.000 C 
ATOM      7  C   UNL     1       2.316   3.177  19.529  0.00  0.00    +0.000 C 
ATOM      8  C   UNL     1       2.288   1.948  20.491  0.00  0.00    +0.000 C 
ATOM      9  C   UNL     1       2.780   2.451  21.822  0.00  0.00    +0.000 C 
ATOM     10  C   UNL     1       2.330   3.885  21.799  0.00  0.00    +0.000 C 
ATOM     11  N   UNL     1       2.566   4.376  20.411  0.00  0.00    +0.000 NA
ATOM     12  C   UNL     1       3.545   2.906  18.621  0.00  0.00    +0.000 C 
ENDROOT
BRANCH   1  13
ATOM     13  C   UNL     1       6.028   4.308  18.230  0.00  0.00    +0.000 C 
BRANCH  13  14
ATOM     14  C   UNL     1       7.358   4.996  17.964  0.00  0.00    +0.000 C 
BRANCH  14  15
ATOM     15  C   UNL     1       7.790   5.845  19.140  0.00  0.00    +0.000 C 
ATOM     16  O   UNL     1       7.792   5.468  20.303  0.00  0.00    +0.000 OA
BRANCH  15  18
ATOM     17  C   UNL     1       7.603   7.580  17.520  0.00  0.00    +0.000 C 
ATOM     18  O   UNL     1       8.198   7.079  18.725  0.00  0.00    +0.000 OA
ENDBRANCH  15  18
ENDBRANCH  14  15
ENDBRANCH  13  14
ENDBRANCH   1  13
BRANCH  11  19
ATOM     19  C   UNL     1       1.749   5.612  20.330  0.00  0.00    +0.000 C 
BRANCH  19  20
ATOM     20  C   UNL     1       2.092   6.871  19.559  0.00  0.00    +0.000 A 
ATOM     21  C   UNL     1       3.056   6.728  18.528  0.00  0.00    +0.000 A 
ATOM     22  C   UNL     1       3.394   7.777  17.670  0.00  0.00    +0.000 A 
ATOM     23  C   UNL     1       2.776   9.008  17.823  0.00  0.00    +0.000 A 
ATOM     24  C   UNL     1       1.808   9.159  18.809  0.00  0.00    +0.000 A 
ATOM     25  F   UNL     1       1.208  10.350  18.935  0.00  0.00    +0.000 F 
ATOM     26  C   UNL     1       1.443   8.100  19.652  0.00  0.00    +0.000 A 
ENDBRANCH  19  20
ENDBRANCH  11  19
TORSDOF 6
ENDMDL
