MODEL 1
REMARK VINA RESULT:      -7.3      0.000      0.000
REMARK  Name = 
REMARK  10 active torsions:
REMARK  status: ('A' for Active; 'I' for Inactive)
REMARK    1  A    between atoms: C_1  and  C_2
REMARK    2  A    between atoms: N_4  and  C_5
REMARK    3  A    between atoms: C_8  and  N_9
REMARK    4  A    between atoms: N_9  and  C_10
REMARK    5  A    between atoms: C_10  and  C_11
REMARK    6  A    between atoms: C_11  and  C_12
REMARK    7  A    between atoms: C_12  and  N_13
REMARK    8  A    between atoms: N_13  and  C_14
REMARK    9  A    between atoms: N_13  and  C_15
REMARK   10  A    between atoms: C_17  and  O_18
REMARK                            x       y       z     vdW  Elec       q    Type
REMARK                         _______ _______ _______ _____ _____    ______ ____
ROOT
ATOM      1  C   UNL     1       3.073   7.290  17.719  0.00  0.00    +0.000 A 
ATOM      2  C   UNL     1       4.077   7.809  16.920  0.00  0.00    +0.000 A 
ATOM      3  C   UNL     1       5.293   7.161  16.812  0.00  0.00    +0.000 A 
ATOM      4  C   UNL     1       5.551   5.930  17.457  0.00  0.00    +0.000 A 
ATOM      5  C   UNL     1       4.530   5.376  18.339  0.00  0.00    +0.000 A 
ATOM      6  C   UNL     1       4.586   4.137  19.106  0.00  0.00    +0.000 A 
ATOM      7  C   UNL     1       3.472   3.737  19.887  0.00  0.00    +0.000 A 
ATOM      8  C   UNL     1       3.480   2.536  20.633  0.00  0.00    +0.000 A 
ATOM      9  C   UNL     1       2.374   2.168  21.403  0.00  0.00    +0.000 A 
ATOM     10  C   UNL     1       1.249   2.988  21.451  0.00  0.00    +0.000 A 
ATOM     11  C   UNL     1       1.224   4.175  20.716  0.00  0.00    +0.000 A 
ATOM     12  C   UNL     1       2.324   4.545  19.934  0.00  0.00    +0.000 A 
ATOM     13  N   UNL     1       2.277   5.673  19.221  0.00  0.00    +0.000 NA
ATOM     14  C   UNL     1       3.302   6.121  18.448  0.00  0.00    +0.000 A 
ENDROOT
BRANCH   1  18
ATOM     15  C   UNL     1       0.274   9.863  17.973  0.00  0.00    +0.000 C 
ATOM     16  C   UNL     1       1.628   9.233  18.054  0.00  0.00    +0.000 C 
ATOM     17  O   UNL     1       2.595   9.941  18.302  0.00  0.00    +0.000 OA
ATOM     18  N   UNL     1       1.785   7.908  17.765  0.00  0.00    +0.000 N 
ATOM     19  H   UNL     1       0.971   7.393  17.404  0.00  0.00    +0.000 HD
ENDBRANCH   1  18
BRANCH   4  20
ATOM     20  N   UNL     1       6.777   5.259  17.114  0.00  0.00    +0.000 N 
ATOM     21  H   UNL     1       7.586   5.339  17.719  0.00  0.00    +0.000 HD
BRANCH  20  22
ATOM     22  C   UNL     1       6.925   4.231  16.090  0.00  0.00    +0.000 C 
BRANCH  22  23
ATOM     23  C   UNL     1       6.764   4.808  14.675  0.00  0.00    +0.000 C 
BRANCH  23  24
ATOM     24  C   UNL     1       5.570   4.139  13.964  0.00  0.00    +0.000 C 
BRANCH  24  25
ATOM     25  N   UNL     1       5.955   3.393  12.746  0.00  0.00    +0.000 NA
ATOM     26  C   UNL     1       4.833   3.270  11.800  0.00  0.00    +0.000 C 
ATOM     27  C   UNL     1       7.072   4.095  12.089  0.00  0.00    +0.000 C 
ENDBRANCH  24  25
ENDBRANCH  23  24
ENDBRANCH  22  23
ENDBRANCH  20  22
ENDBRANCH   4  20
BRANCH   6  28
ATOM     28  O   UNL     1       5.640   3.289  19.181  0.00  0.00    +0.000 OA
ATOM     29  H   UNL     1       6.103   2.899  19.918  0.00  0.00    +0.000 HD
ENDBRANCH   6  28
TORSDOF 7
ENDMDL
MODEL 2
REMARK VINA RESULT:      -7.0      1.724      4.501
REMARK  Name = 
REMARK  10 active torsions:
REMARK  status: ('A' for Active; 'I' for Inactive)
REMARK    1  A    between atoms: C_1  and  C_2
REMARK    2  A    between atoms: N_4  and  C_5
REMARK    3  A    between atoms: C_8  and  N_9
REMARK    4  A    between atoms: N_9  and  C_10
REMARK    5  A    between atoms: C_10  and  C_11
REMARK    6  A    between atoms: C_11  and  C_12
REMARK    7  A    between atoms: C_12  and  N_13
REMARK    8  A    between atoms: N_13  and  C_14
REMARK    9  A    between atoms: N_13  and  C_15
REMARK   10  A    between atoms: C_17  and  O_18
REMARK                            x       y       z     vdW  Elec       q    Type
REMARK                         _______ _______ _______ _____ _____    ______ ____
ROOT
ATOM      1  C   UNL     1       3.310   4.098  19.543  0.00  0.00    +0.000 A 
ATOM      2  C   UNL     1       4.120   3.315  18.738  0.00  0.00    +0.000 A 
ATOM      3  C   UNL     1       4.644   3.823  17.564  0.00  0.00    +0.000 A 
ATOM      4  C   UNL     1       4.430   5.161  17.160  0.00  0.00    +0.000 A 
ATOM      5  C   UNL     1       3.548   6.001  17.963  0.00  0.00    +0.000 A 
ATOM      6  C   UNL     1       3.180   7.392  17.730  0.00  0.00    +0.000 A 
ATOM      7  C   UNL     1       2.333   8.064  18.647  0.00  0.00    +0.000 A 
ATOM      8  C   UNL     1       1.965   9.417  18.466  0.00  0.00    +0.000 A 
ATOM      9  C   UNL     1       1.121  10.054  19.378  0.00  0.00    +0.000 A 
ATOM     10  C   UNL     1       0.623   9.358  20.477  0.00  0.00    +0.000 A 
ATOM     11  C   UNL     1       0.981   8.023  20.673  0.00  0.00    +0.000 A 
ATOM     12  C   UNL     1       1.835   7.381  19.769  0.00  0.00    +0.000 A 
ATOM     13  N   UNL     1       2.184   6.109  19.980  0.00  0.00    +0.000 NA
ATOM     14  C   UNL     1       2.994   5.400  19.149  0.00  0.00    +0.000 A 
ENDROOT
BRANCH   1  18
ATOM     15  C   UNL     1       1.251   2.347  22.227  0.00  0.00    +0.000 C 
ATOM     16  C   UNL     1       1.648   2.948  20.917  0.00  0.00    +0.000 C 
ATOM     17  O   UNL     1       0.930   2.767  19.942  0.00  0.00    +0.000 OA
ATOM     18  N   UNL     1       2.838   3.607  20.799  0.00  0.00    +0.000 N 
ATOM     19  H   UNL     1       3.479   3.592  21.603  0.00  0.00    +0.000 HD
ENDBRANCH   1  18
BRANCH   4  20
ATOM     20  N   UNL     1       5.184   5.628  16.027  0.00  0.00    +0.000 N 
ATOM     21  H   UNL     1       4.807   6.355  15.430  0.00  0.00    +0.000 HD
BRANCH  20  22
ATOM     22  C   UNL     1       6.592   5.347  15.769  0.00  0.00    +0.000 C 
BRANCH  22  23
ATOM     23  C   UNL     1       6.826   4.889  14.322  0.00  0.00    +0.000 C 
BRANCH  23  24
ATOM     24  C   UNL     1       5.737   3.880  13.903  0.00  0.00    +0.000 C 
BRANCH  24  25
ATOM     25  N   UNL     1       5.992   3.252  12.588  0.00  0.00    +0.000 NA
ATOM     26  C   UNL     1       4.786   3.239  11.743  0.00  0.00    +0.000 C 
ATOM     27  C   UNL     1       7.061   4.000  11.902  0.00  0.00    +0.000 C 
ENDBRANCH  24  25
ENDBRANCH  23  24
ENDBRANCH  22  23
ENDBRANCH  20  22
ENDBRANCH   4  20
BRANCH   6  28
ATOM     28  O   UNL     1       3.556   8.154  16.674  0.00  0.00    +0.000 OA
ATOM     29  H   UNL     1       4.357   8.634  16.479  0.00  0.00    +0.000 HD
ENDBRANCH   6  28
TORSDOF 7
ENDMDL
MODEL 3
REMARK VINA RESULT:      -7.0      2.192      5.249
REMARK  Name = 
REMARK  10 active torsions:
REMARK  status: ('A' for Active; 'I' for Inactive)
REMARK    1  A    between atoms: C_1  and  C_2
REMARK    2  A    between atoms: N_4  and  C_5
REMARK    3  A    between atoms: C_8  and  N_9
REMARK    4  A    between atoms: N_9  and  C_10
REMARK    5  A    between atoms: C_10  and  C_11
REMARK    6  A    between atoms: C_11  and  C_12
REMARK    7  A    between atoms: C_12  and  N_13
REMARK    8  A    between atoms: N_13  and  C_14
REMARK    9  A    between atoms: N_13  and  C_15
REMARK   10  A    between atoms: C_17  and  O_18
REMARK                            x       y       z     vdW  Elec       q    Type
REMARK                         _______ _______ _______ _____ _____    ______ ____
ROOT
ATOM      1  C   UNL     1       2.981   4.249  19.775  0.00  0.00    +0.000 A 
ATOM      2  C   UNL     1       3.741   3.489  18.902  0.00  0.00    +0.000 A 
ATOM      3  C   UNL     1       4.208   4.036  17.721  0.00  0.00    +0.000 A 
ATOM      4  C   UNL     1       3.984   5.389  17.376  0.00  0.00    +0.000 A 
ATOM      5  C   UNL     1       3.152   6.206  18.254  0.00  0.00    +0.000 A 
ATOM      6  C   UNL     1       2.784   7.606  18.091  0.00  0.00    +0.000 A 
ATOM      7  C   UNL     1       1.991   8.250  19.075  0.00  0.00    +0.000 A 
ATOM      8  C   UNL     1       1.626   9.611  18.961  0.00  0.00    +0.000 A 
ATOM      9  C   UNL     1       0.836  10.221  19.939  0.00  0.00    +0.000 A 
ATOM     10  C   UNL     1       0.391   9.488  21.037  0.00  0.00    +0.000 A 
ATOM     11  C   UNL     1       0.747   8.145  21.166  0.00  0.00    +0.000 A 
ATOM     12  C   UNL     1       1.547   7.530  20.196  0.00  0.00    +0.000 A 
ATOM     13  N   UNL     1       1.896   6.250  20.343  0.00  0.00    +0.000 NA
ATOM     14  C   UNL     1       2.655   5.565  19.446  0.00  0.00    +0.000 A 
ENDROOT
BRANCH   1  18
ATOM     15  C   UNL     1       1.125   2.312  22.481  0.00  0.00    +0.000 C 
ATOM     16  C   UNL     1       1.449   2.947  21.166  0.00  0.00    +0.000 C 
ATOM     17  O   UNL     1       0.741   2.699  20.200  0.00  0.00    +0.000 OA
ATOM     18  N   UNL     1       2.570   3.716  21.036  0.00  0.00    +0.000 N 
ATOM     19  H   UNL     1       3.219   3.761  21.833  0.00  0.00    +0.000 HD
ENDBRANCH   1  18
BRANCH   4  20
ATOM     20  N   UNL     1       4.681   5.892  16.223  0.00  0.00    +0.000 N 
ATOM     21  H   UNL     1       4.746   6.890  16.063  0.00  0.00    +0.000 HD
BRANCH  20  22
ATOM     22  C   UNL     1       5.558   5.114  15.354  0.00  0.00    +0.000 C 
BRANCH  22  23
ATOM     23  C   UNL     1       7.037   5.461  15.579  0.00  0.00    +0.000 C 
BRANCH  23  24
ATOM     24  C   UNL     1       7.470   5.039  16.998  0.00  0.00    +0.000 C 
BRANCH  24  25
ATOM     25  N   UNL     1       7.184   6.063  18.028  0.00  0.00    +0.000 NA
ATOM     26  C   UNL     1       7.839   5.750  19.309  0.00  0.00    +0.000 C 
ATOM     27  C   UNL     1       7.658   7.372  17.544  0.00  0.00    +0.000 C 
ENDBRANCH  24  25
ENDBRANCH  23  24
ENDBRANCH  22  23
ENDBRANCH  20  22
ENDBRANCH   4  20
BRANCH   6  28
ATOM     28  O   UNL     1       3.111   8.403  17.044  0.00  0.00    +0.000 OA
ATOM     29  H   UNL     1       3.378   9.317  16.989  0.00  0.00    +0.000 HD
ENDBRANCH   6  28
TORSDOF 7
ENDMDL
MODEL 4
REMARK VINA RESULT:      -6.9      2.569      7.287
REMARK  Name = 
REMARK  10 active torsions:
REMARK  status: ('A' for Active; 'I' for Inactive)
REMARK    1  A    between atoms: C_1  and  C_2
REMARK    2  A    between atoms: N_4  and  C_5
REMARK    3  A    between atoms: C_8  and  N_9
REMARK    4  A    between atoms: N_9  and  C_10
REMARK    5  A    between atoms: C_10  and  C_11
REMARK    6  A    between atoms: C_11  and  C_12
REMARK    7  A    between atoms: C_12  and  N_13
REMARK    8  A    between atoms: N_13  and  C_14
REMARK    9  A    between atoms: N_13  and  C_15
REMARK   10  A    between atoms: C_17  and  O_18
REMARK                            x       y       z     vdW  Elec       q    Type
REMARK                         _______ _______ _______ _____ _____    ______ ____
ROOT
ATOM      1  C   UNL     1       2.077   6.055  20.731  0.00  0.00    +0.000 A 
ATOM      2  C   UNL     1       1.219   7.032  21.204  0.00  0.00    +0.000 A 
ATOM      3  C   UNL     1       1.053   8.216  20.509  0.00  0.00    +0.000 A 
ATOM      4  C   UNL     1       1.699   8.463  19.276  0.00  0.00    +0.000 A 
ATOM      5  C   UNL     1       2.642   7.471  18.770  0.00  0.00    +0.000 A 
ATOM      6  C   UNL     1       3.420   7.523  17.539  0.00  0.00    +0.000 A 
ATOM      7  C   UNL     1       4.266   6.439  17.189  0.00  0.00    +0.000 A 
ATOM      8  C   UNL     1       5.025   6.443  15.997  0.00  0.00    +0.000 A 
ATOM      9  C   UNL     1       5.858   5.368  15.679  0.00  0.00    +0.000 A 
ATOM     10  C   UNL     1       5.957   4.279  16.542  0.00  0.00    +0.000 A 
ATOM     11  C   UNL     1       5.210   4.257  17.720  0.00  0.00    +0.000 A 
ATOM     12  C   UNL     1       4.364   5.326  18.040  0.00  0.00    +0.000 A 
ATOM     13  N   UNL     1       3.641   5.283  19.162  0.00  0.00    +0.000 NA
ATOM     14  C   UNL     1       2.808   6.280  19.563  0.00  0.00    +0.000 A 
ENDROOT
BRANCH   1  18
ATOM     15  C   UNL     1       1.664   2.388  21.680  0.00  0.00    +0.000 C 
ATOM     16  C   UNL     1       1.431   3.716  21.035  0.00  0.00    +0.000 C 
ATOM     17  O   UNL     1       0.616   3.797  20.125  0.00  0.00    +0.000 OA
ATOM     18  N   UNL     1       2.186   4.795  21.398  0.00  0.00    +0.000 N 
ATOM     19  H   UNL     1       2.966   4.640  22.049  0.00  0.00    +0.000 HD
ENDBRANCH   1  18
BRANCH   4  20
ATOM     20  N   UNL     1       1.298   9.642  18.555  0.00  0.00    +0.000 N 
ATOM     21  H   UNL     1       1.795   9.918  17.717  0.00  0.00    +0.000 HD
BRANCH  20  22
ATOM     22  C   UNL     1       0.053  10.377  18.753  0.00  0.00    +0.000 C 
BRANCH  22  23
ATOM     23  C   UNL     1      -1.024   9.956  17.743  0.00  0.00    +0.000 C 
BRANCH  23  24
ATOM     24  C   UNL     1      -2.200  10.954  17.778  0.00  0.00    +0.000 C 
BRANCH  24  25
ATOM     25  N   UNL     1      -3.303  10.594  16.859  0.00  0.00    +0.000 NA
ATOM     26  C   UNL     1      -4.460  11.493  17.013  0.00  0.00    +0.000 C 
ATOM     27  C   UNL     1      -2.811  10.665  15.472  0.00  0.00    +0.000 C 
ENDBRANCH  24  25
ENDBRANCH  23  24
ENDBRANCH  22  23
ENDBRANCH  20  22
ENDBRANCH   4  20
BRANCH   6  28
ATOM     28  O   UNL     1       3.448   8.547  16.651  0.00  0.00    +0.000 OA
ATOM     29  H   UNL     1       3.296   9.484  16.743  0.00  0.00    +0.000 HD
ENDBRANCH   6  28
TORSDOF 7
ENDMDL
MODEL 5
REMARK VINA RESULT:      -6.9      1.987      4.789
REMARK  Name = 
REMARK  10 active torsions:
REMARK  status: ('A' for Active; 'I' for Inactive)
REMARK    1  A    between atoms: C_1  and  C_2
REMARK    2  A    between atoms: N_4  and  C_5
REMARK    3  A    between atoms: C_8  and  N_9
REMARK    4  A    between atoms: N_9  and  C_10
REMARK    5  A    between atoms: C_10  and  C_11
REMARK    6  A    between atoms: C_11  and  C_12
REMARK    7  A    between atoms: C_12  and  N_13
REMARK    8  A    between atoms: N_13  and  C_14
REMARK    9  A    between atoms: N_13  and  C_15
REMARK   10  A    between atoms: C_17  and  O_18
REMARK                            x       y       z     vdW  Elec       q    Type
REMARK                         _______ _______ _______ _____ _____    ______ ____
ROOT
ATOM      1  C   UNL     1       2.999   4.325  19.824  0.00  0.00    +0.000 A 
ATOM      2  C   UNL     1       3.798   3.605  18.954  0.00  0.00    +0.000 A 
ATOM      3  C   UNL     1       4.276   4.188  17.795  0.00  0.00    +0.000 A 
ATOM      4  C   UNL     1       4.022   5.541  17.471  0.00  0.00    +0.000 A 
ATOM      5  C   UNL     1       3.149   6.316  18.346  0.00  0.00    +0.000 A 
ATOM      6  C   UNL     1       2.746   7.710  18.201  0.00  0.00    +0.000 A 
ATOM      7  C   UNL     1       1.914   8.311  19.179  0.00  0.00    +0.000 A 
ATOM      8  C   UNL     1       1.513   9.664  19.083  0.00  0.00    +0.000 A 
ATOM      9  C   UNL     1       0.685  10.232  20.054  0.00  0.00    +0.000 A 
ATOM     10  C   UNL     1       0.235   9.466  21.127  0.00  0.00    +0.000 A 
ATOM     11  C   UNL     1       0.626   8.131  21.239  0.00  0.00    +0.000 A 
ATOM     12  C   UNL     1       1.465   7.558  20.275  0.00  0.00    +0.000 A 
ATOM     13  N   UNL     1       1.846   6.284  20.406  0.00  0.00    +0.000 NA
ATOM     14  C   UNL     1       2.644   5.639  19.513  0.00  0.00    +0.000 A 
ENDROOT
BRANCH   1  18
ATOM     15  C   UNL     1       1.137   2.285  22.449  0.00  0.00    +0.000 C 
ATOM     16  C   UNL     1       1.473   2.955  21.155  0.00  0.00    +0.000 C 
ATOM     17  O   UNL     1       0.794   2.707  20.167  0.00  0.00    +0.000 OA
ATOM     18  N   UNL     1       2.575   3.756  21.065  0.00  0.00    +0.000 N 
ATOM     19  H   UNL     1       3.204   3.804  21.877  0.00  0.00    +0.000 HD
ENDBRANCH   1  18
BRANCH   4  20
ATOM     20  N   UNL     1       4.731   6.085  16.344  0.00  0.00    +0.000 N 
ATOM     21  H   UNL     1       4.274   6.156  15.442  0.00  0.00    +0.000 HD
BRANCH  20  22
ATOM     22  C   UNL     1       5.996   6.809  16.405  0.00  0.00    +0.000 C 
BRANCH  22  23
ATOM     23  C   UNL     1       7.174   5.875  16.719  0.00  0.00    +0.000 C 
BRANCH  23  24
ATOM     24  C   UNL     1       7.198   4.700  15.719  0.00  0.00    +0.000 C 
BRANCH  24  25
ATOM     25  N   UNL     1       6.735   5.072  14.364  0.00  0.00    +0.000 NA
ATOM     26  C   UNL     1       7.862   5.332  13.451  0.00  0.00    +0.000 C 
ATOM     27  C   UNL     1       5.912   3.976  13.824  0.00  0.00    +0.000 C 
ENDBRANCH  24  25
ENDBRANCH  23  24
ENDBRANCH  22  23
ENDBRANCH  20  22
ENDBRANCH   4  20
BRANCH   6  28
ATOM     28  O   UNL     1       3.074   8.536  17.178  0.00  0.00    +0.000 OA
ATOM     29  H   UNL     1       2.704   8.662  16.308  0.00  0.00    +0.000 HD
ENDBRANCH   6  28
TORSDOF 7
ENDMDL
MODEL 6
REMARK VINA RESULT:      -6.7      2.547      7.444
REMARK  Name = 
REMARK  10 active torsions:
REMARK  status: ('A' for Active; 'I' for Inactive)
REMARK    1  A    between atoms: C_1  and  C_2
REMARK    2  A    between atoms: N_4  and  C_5
REMARK    3  A    between atoms: C_8  and  N_9
REMARK    4  A    between atoms: N_9  and  C_10
REMARK    5  A    between atoms: C_10  and  C_11
REMARK    6  A    between atoms: C_11  and  C_12
REMARK    7  A    between atoms: C_12  and  N_13
REMARK    8  A    between atoms: N_13  and  C_14
REMARK    9  A    between atoms: N_13  and  C_15
REMARK   10  A    between atoms: C_17  and  O_18
REMARK                            x       y       z     vdW  Elec       q    Type
REMARK                         _______ _______ _______ _____ _____    ______ ____
ROOT
ATOM      1  C   UNL     1       2.141   6.002  20.728  0.00  0.00    +0.000 A 
ATOM      2  C   UNL     1       1.302   6.982  21.230  0.00  0.00    +0.000 A 
ATOM      3  C   UNL     1       1.136   8.176  20.554  0.00  0.00    +0.000 A 
ATOM      4  C   UNL     1       1.760   8.433  19.312  0.00  0.00    +0.000 A 
ATOM      5  C   UNL     1       2.683   7.439  18.775  0.00  0.00    +0.000 A 
ATOM      6  C   UNL     1       3.439   7.499  17.530  0.00  0.00    +0.000 A 
ATOM      7  C   UNL     1       4.266   6.411  17.150  0.00  0.00    +0.000 A 
ATOM      8  C   UNL     1       5.002   6.423  15.944  0.00  0.00    +0.000 A 
ATOM      9  C   UNL     1       5.818   5.344  15.596  0.00  0.00    +0.000 A 
ATOM     10  C   UNL     1       5.921   4.242  16.442  0.00  0.00    +0.000 A 
ATOM     11  C   UNL     1       5.197   4.213  17.635  0.00  0.00    +0.000 A 
ATOM     12  C   UNL     1       4.369   5.286  17.985  0.00  0.00    +0.000 A 
ATOM     13  N   UNL     1       3.667   5.235  19.120  0.00  0.00    +0.000 NA
ATOM     14  C   UNL     1       2.851   6.235  19.549  0.00  0.00    +0.000 A 
ENDROOT
BRANCH   1  18
ATOM     15  C   UNL     1       1.676   2.338  21.662  0.00  0.00    +0.000 C 
ATOM     16  C   UNL     1       1.448   3.679  21.042  0.00  0.00    +0.000 C 
ATOM     17  O   UNL     1       0.589   3.792  20.177  0.00  0.00    +0.000 OA
ATOM     18  N   UNL     1       2.249   4.733  21.377  0.00  0.00    +0.000 N 
ATOM     19  H   UNL     1       3.058   4.550  21.985  0.00  0.00    +0.000 HD
ENDBRANCH   1  18
BRANCH   4  20
ATOM     20  N   UNL     1       1.359   9.626  18.615  0.00  0.00    +0.000 N 
ATOM     21  H   UNL     1       2.052  10.312  18.341  0.00  0.00    +0.000 HD
BRANCH  20  22
ATOM     22  C   UNL     1       0.052   9.856  18.008  0.00  0.00    +0.000 C 
BRANCH  22  23
ATOM     23  C   UNL     1      -0.792  10.842  18.828  0.00  0.00    +0.000 C 
BRANCH  23  24
ATOM     24  C   UNL     1       0.035  12.102  19.156  0.00  0.00    +0.000 C 
BRANCH  24  25
ATOM     25  N   UNL     1       0.850  11.966  20.384  0.00  0.00    +0.000 NA
ATOM     26  C   UNL     1       1.583  13.205  20.695  0.00  0.00    +0.000 C 
ATOM     27  C   UNL     1      -0.038  11.628  21.510  0.00  0.00    +0.000 C 
ENDBRANCH  24  25
ENDBRANCH  23  24
ENDBRANCH  22  23
ENDBRANCH  20  22
ENDBRANCH   4  20
BRANCH   6  28
ATOM     28  O   UNL     1       3.460   8.534  16.656  0.00  0.00    +0.000 OA
ATOM     29  H   UNL     1       3.047   9.393  16.664  0.00  0.00    +0.000 HD
ENDBRANCH   6  28
TORSDOF 7
ENDMDL
MODEL 7
REMARK VINA RESULT:      -6.7      1.633      2.859
REMARK  Name = 
REMARK  10 active torsions:
REMARK  status: ('A' for Active; 'I' for Inactive)
REMARK    1  A    between atoms: C_1  and  C_2
REMARK    2  A    between atoms: N_4  and  C_5
REMARK    3  A    between atoms: C_8  and  N_9
REMARK    4  A    between atoms: N_9  and  C_10
REMARK    5  A    between atoms: C_10  and  C_11
REMARK    6  A    between atoms: C_11  and  C_12
REMARK    7  A    between atoms: C_12  and  N_13
REMARK    8  A    between atoms: N_13  and  C_14
REMARK    9  A    between atoms: N_13  and  C_15
REMARK   10  A    between atoms: C_17  and  O_18
REMARK                            x       y       z     vdW  Elec       q    Type
REMARK                         _______ _______ _______ _____ _____    ______ ____
ROOT
ATOM      1  C   UNL     1       3.249   7.333  18.154  0.00  0.00    +0.000 A 
ATOM      2  C   UNL     1       3.953   7.773  17.046  0.00  0.00    +0.000 A 
ATOM      3  C   UNL     1       4.615   6.872  16.233  0.00  0.00    +0.000 A 
ATOM      4  C   UNL     1       4.564   5.477  16.454  0.00  0.00    +0.000 A 
ATOM      5  C   UNL     1       3.866   4.982  17.636  0.00  0.00    +0.000 A 
ATOM      6  C   UNL     1       3.699   3.598  18.063  0.00  0.00    +0.000 A 
ATOM      7  C   UNL     1       2.949   3.303  19.230  0.00  0.00    +0.000 A 
ATOM      8  C   UNL     1       2.750   1.974  19.670  0.00  0.00    +0.000 A 
ATOM      9  C   UNL     1       2.016   1.709  20.828  0.00  0.00    +0.000 A 
ATOM     10  C   UNL     1       1.476   2.757  21.571  0.00  0.00    +0.000 A 
ATOM     11  C   UNL     1       1.659   4.074  21.148  0.00  0.00    +0.000 A 
ATOM     12  C   UNL     1       2.385   4.347  19.982  0.00  0.00    +0.000 A 
ATOM     13  N   UNL     1       2.535   5.611  19.579  0.00  0.00    +0.000 NA
ATOM     14  C   UNL     1       3.236   5.973  18.471  0.00  0.00    +0.000 A 
ENDROOT
BRANCH   1  18
ATOM     15  C   UNL     1       0.697   9.926  19.284  0.00  0.00    +0.000 C 
ATOM     16  C   UNL     1       1.549   9.071  18.400  0.00  0.00    +0.000 C 
ATOM     17  O   UNL     1       1.329   9.063  17.196  0.00  0.00    +0.000 OA
ATOM     18  N   UNL     1       2.491   8.249  18.947  0.00  0.00    +0.000 N 
ATOM     19  H   UNL     1       2.527   8.170  19.972  0.00  0.00    +0.000 HD
ENDBRANCH   1  18
BRANCH   4  20
ATOM     20  N   UNL     1       5.128   4.634  15.434  0.00  0.00    +0.000 N 
ATOM     21  H   UNL     1       4.636   4.497  14.559  0.00  0.00    +0.000 HD
BRANCH  20  22
ATOM     22  C   UNL     1       6.498   4.133  15.406  0.00  0.00    +0.000 C 
BRANCH  22  23
ATOM     23  C   UNL     1       7.460   5.061  16.164  0.00  0.00    +0.000 C 
BRANCH  23  24
ATOM     24  C   UNL     1       7.676   4.539  17.599  0.00  0.00    +0.000 C 
BRANCH  24  25
ATOM     25  N   UNL     1       7.811   5.619  18.602  0.00  0.00    +0.000 NA
ATOM     26  C   UNL     1       7.724   6.954  17.986  0.00  0.00    +0.000 C 
ATOM     27  C   UNL     1       6.742   5.474  19.606  0.00  0.00    +0.000 C 
ENDBRANCH  24  25
ENDBRANCH  23  24
ENDBRANCH  22  23
ENDBRANCH  20  22
ENDBRANCH   4  20
BRANCH   6  28
ATOM     28  O   UNL     1       4.219   2.505  17.455  0.00  0.00    +0.000 OA
ATOM     29  H   UNL     1       4.745   1.778  17.778  0.00  0.00    +0.000 HD
ENDBRANCH   6  28
TORSDOF 7
ENDMDL
MODEL 8
REMARK VINA RESULT:      -6.6      3.389      7.078
REMARK  Name = 
REMARK  10 active torsions:
REMARK  status: ('A' for Active; 'I' for Inactive)
REMARK    1  A    between atoms: C_1  and  C_2
REMARK    2  A    between atoms: N_4  and  C_5
REMARK    3  A    between atoms: C_8  and  N_9
REMARK    4  A    between atoms: N_9  and  C_10
REMARK    5  A    between atoms: C_10  and  C_11
REMARK    6  A    between atoms: C_11  and  C_12
REMARK    7  A    between atoms: C_12  and  N_13
REMARK    8  A    between atoms: N_13  and  C_14
REMARK    9  A    between atoms: N_13  and  C_15
REMARK   10  A    between atoms: C_17  and  O_18
REMARK                            x       y       z     vdW  Elec       q    Type
REMARK                         _______ _______ _______ _____ _____    ______ ____
ROOT
ATOM      1  C   UNL     1       4.455   4.564  17.801  0.00  0.00    +0.000 A 
ATOM      2  C   UNL     1       4.843   5.185  18.975  0.00  0.00    +0.000 A 
ATOM      3  C   UNL     1       6.025   5.900  19.032  0.00  0.00    +0.000 A 
ATOM      4  C   UNL     1       6.856   6.075  17.902  0.00  0.00    +0.000 A 
ATOM      5  C   UNL     1       6.498   5.399  16.660  0.00  0.00    +0.000 A 
ATOM      6  C   UNL     1       7.208   5.430  15.387  0.00  0.00    +0.000 A 
ATOM      7  C   UNL     1       6.684   4.735  14.267  0.00  0.00    +0.000 A 
ATOM      8  C   UNL     1       7.333   4.752  13.012  0.00  0.00    +0.000 A 
ATOM      9  C   UNL     1       6.804   4.051  11.926  0.00  0.00    +0.000 A 
ATOM     10  C   UNL     1       5.628   3.317  12.071  0.00  0.00    +0.000 A 
ATOM     11  C   UNL     1       4.972   3.294  13.303  0.00  0.00    +0.000 A 
ATOM     12  C   UNL     1       5.492   4.003  14.393  0.00  0.00    +0.000 A 
ATOM     13  N   UNL     1       4.843   3.987  15.560  0.00  0.00    +0.000 NA
ATOM     14  C   UNL     1       5.279   4.630  16.676  0.00  0.00    +0.000 A 
ENDROOT
BRANCH   1  18
ATOM     15  C   UNL     1       1.584   2.114  18.322  0.00  0.00    +0.000 C 
ATOM     16  C   UNL     1       2.954   2.713  18.345  0.00  0.00    +0.000 C 
ATOM     17  O   UNL     1       3.827   2.165  19.005  0.00  0.00    +0.000 OA
ATOM     18  N   UNL     1       3.193   3.898  17.711  0.00  0.00    +0.000 N 
ATOM     19  H   UNL     1       2.391   4.400  17.309  0.00  0.00    +0.000 HD
ENDBRANCH   1  18
BRANCH   4  20
ATOM     20  N   UNL     1       7.953   6.997  18.036  0.00  0.00    +0.000 N 
ATOM     21  H   UNL     1       8.900   6.649  18.130  0.00  0.00    +0.000 HD
BRANCH  20  22
ATOM     22  C   UNL     1       7.891   8.433  17.790  0.00  0.00    +0.000 C 
BRANCH  22  23
ATOM     23  C   UNL     1       8.747   9.221  18.791  0.00  0.00    +0.000 C 
BRANCH  23  24
ATOM     24  C   UNL     1       9.115  10.599  18.203  0.00  0.00    +0.000 C 
BRANCH  24  25
ATOM     25  N   UNL     1       9.682  11.532  19.202  0.00  0.00    +0.000 NA
ATOM     26  C   UNL     1       9.428  11.080  20.581  0.00  0.00    +0.000 C 
ATOM     27  C   UNL     1      11.136  11.639  18.984  0.00  0.00    +0.000 C 
ENDBRANCH  24  25
ENDBRANCH  23  24
ENDBRANCH  22  23
ENDBRANCH  20  22
ENDBRANCH   4  20
BRANCH   6  28
ATOM     28  O   UNL     1       8.381   6.062  15.140  0.00  0.00    +0.000 OA
ATOM     29  H   UNL     1       9.286   5.762  15.139  0.00  0.00    +0.000 HD
ENDBRANCH   6  28
TORSDOF 7
ENDMDL
MODEL 9
REMARK VINA RESULT:      -6.6      3.447      6.323
REMARK  Name = 
REMARK  10 active torsions:
REMARK  status: ('A' for Active; 'I' for Inactive)
REMARK    1  A    between atoms: C_1  and  C_2
REMARK    2  A    between atoms: N_4  and  C_5
REMARK    3  A    between atoms: C_8  and  N_9
REMARK    4  A    between atoms: N_9  and  C_10
REMARK    5  A    between atoms: C_10  and  C_11
REMARK    6  A    between atoms: C_11  and  C_12
REMARK    7  A    between atoms: C_12  and  N_13
REMARK    8  A    between atoms: N_13  and  C_14
REMARK    9  A    between atoms: N_13  and  C_15
REMARK   10  A    between atoms: C_17  and  O_18
REMARK                            x       y       z     vdW  Elec       q    Type
REMARK                         _______ _______ _______ _____ _____    ______ ____
ROOT
ATOM      1  C   UNL     1       6.086   4.195  14.895  0.00  0.00    +0.000 A 
ATOM      2  C   UNL     1       7.091   5.105  14.614  0.00  0.00    +0.000 A 
ATOM      3  C   UNL     1       7.507   6.009  15.573  0.00  0.00    +0.000 A 
ATOM      4  C   UNL     1       6.976   6.016  16.883  0.00  0.00    +0.000 A 
ATOM      5  C   UNL     1       5.887   5.098  17.201  0.00  0.00    +0.000 A 
ATOM      6  C   UNL     1       5.189   4.944  18.471  0.00  0.00    +0.000 A 
ATOM      7  C   UNL     1       4.172   3.964  18.605  0.00  0.00    +0.000 A 
ATOM      8  C   UNL     1       3.482   3.772  19.824  0.00  0.00    +0.000 A 
ATOM      9  C   UNL     1       2.477   2.807  19.929  0.00  0.00    +0.000 A 
ATOM     10  C   UNL     1       2.136   2.027  18.827  0.00  0.00    +0.000 A 
ATOM     11  C   UNL     1       2.812   2.201  17.618  0.00  0.00    +0.000 A 
ATOM     12  C   UNL     1       3.828   3.158  17.508  0.00  0.00    +0.000 A 
ATOM     13  N   UNL     1       4.478   3.300  16.351  0.00  0.00    +0.000 NA
ATOM     14  C   UNL     1       5.465   4.213  16.145  0.00  0.00    +0.000 A 
ENDROOT
BRANCH   1  18
ATOM     15  C   UNL     1       5.830   2.122  11.709  0.00  0.00    +0.000 C 
ATOM     16  C   UNL     1       6.146   3.246  12.644  0.00  0.00    +0.000 C 
ATOM     17  O   UNL     1       6.863   4.157  12.251  0.00  0.00    +0.000 OA
ATOM     18  N   UNL     1       5.714   3.201  13.938  0.00  0.00    +0.000 N 
ATOM     19  H   UNL     1       5.255   2.341  14.264  0.00  0.00    +0.000 HD
ENDBRANCH   1  18
BRANCH   4  20
ATOM     20  N   UNL     1       7.623   6.870  17.844  0.00  0.00    +0.000 N 
ATOM     21  H   UNL     1       8.238   6.472  18.544  0.00  0.00    +0.000 HD
BRANCH  20  22
ATOM     22  C   UNL     1       7.702   8.325  17.771  0.00  0.00    +0.000 C 
BRANCH  22  23
ATOM     23  C   UNL     1       8.747   8.889  18.744  0.00  0.00    +0.000 C 
BRANCH  23  24
ATOM     24  C   UNL     1       9.077  10.351  18.376  0.00  0.00    +0.000 C 
BRANCH  24  25
ATOM     25  N   UNL     1       9.944  11.024  19.368  0.00  0.00    +0.000 NA
ATOM     26  C   UNL     1      10.218  12.423  18.997  0.00  0.00    +0.000 C 
ATOM     27  C   UNL     1       9.282  10.988  20.684  0.00  0.00    +0.000 C 
ENDBRANCH  24  25
ENDBRANCH  23  24
ENDBRANCH  22  23
ENDBRANCH  20  22
ENDBRANCH   4  20
BRANCH   6  28
ATOM     28  O   UNL     1       5.394   5.677  19.592  0.00  0.00    +0.000 OA
ATOM     29  H   UNL     1       6.185   6.014  20.006  0.00  0.00    +0.000 HD
ENDBRANCH   6  28
TORSDOF 7
ENDMDL
