MODEL 1
REMARK VINA RESULT:      -6.2      0.000      0.000
REMARK  Name = 
REMARK  2 active torsions:
REMARK  status: ('A' for Active; 'I' for Inactive)
REMARK    1  A    between atoms: C_1  and  C_2
REMARK    2  A    between atoms: C_6  and  N_7
REMARK                            x       y       z     vdW  Elec       q    Type
REMARK                         _______ _______ _______ _____ _____    ______ ____
ROOT
ATOM      1  C   UNL     1       0.487   2.232  18.987  0.00  0.00    +0.000 C 
ATOM      2  C   UNL     1       1.865   2.798  18.846  0.00  0.00    +0.000 C 
ATOM      3  C   UNL     1       2.913   2.374  19.558  0.00  0.00    +0.000 C 
ATOM      4  C   UNL     1       4.274   2.931  19.393  0.00  0.00    +0.000 C 
ATOM      5  O   UNL     1       5.178   2.474  20.087  0.00  0.00    +0.000 OA
ATOM      6  C   UNL     1       4.473   4.031  18.379  0.00  0.00    +0.000 C 
ATOM      7  C   UNL     1       3.398   4.441  17.687  0.00  0.00    +0.000 C 
ATOM      8  C   UNL     1       2.047   3.884  17.858  0.00  0.00    +0.000 C 
ATOM      9  O   UNL     1       1.111   4.322  17.196  0.00  0.00    +0.000 OA
ENDROOT
BRANCH   6  10
ATOM     10  N   UNL     1       5.726   4.585  18.233  0.00  0.00    +0.000 N 
ATOM     11  C   UNL     1       6.671   4.576  17.166  0.00  0.00    +0.000 C 
ATOM     12  C   UNL     1       7.700   5.073  18.188  0.00  0.00    +0.000 C 
ATOM     13  C   UNL     1       6.499   5.447  19.062  0.00  0.00    +0.000 C 
ENDBRANCH   6  10
TORSDOF 1
ENDMDL
MODEL 2
REMARK VINA RESULT:      -6.0      1.691      1.900
REMARK  Name = 
REMARK  2 active torsions:
REMARK  status: ('A' for Active; 'I' for Inactive)
REMARK    1  A    between atoms: C_1  and  C_2
REMARK    2  A    between atoms: C_6  and  N_7
REMARK                            x       y       z     vdW  Elec       q    Type
REMARK                         _______ _______ _______ _____ _____    ______ ____
ROOT
ATOM      1  C   UNL     1       1.588   2.650  20.734  0.00  0.00    +0.000 C 
ATOM      2  C   UNL     1       2.539   3.110  19.674  0.00  0.00    +0.000 C 
ATOM      3  C   UNL     1       3.824   3.391  19.907  0.00  0.00    +0.000 C 
ATOM      4  C   UNL     1       4.757   3.826  18.844  0.00  0.00    +0.000 C 
ATOM      5  O   UNL     1       5.923   4.057  19.152  0.00  0.00    +0.000 OA
ATOM      6  C   UNL     1       4.220   3.962  17.440  0.00  0.00    +0.000 C 
ATOM      7  C   UNL     1       2.923   3.680  17.241  0.00  0.00    +0.000 C 
ATOM      8  C   UNL     1       2.000   3.250  18.303  0.00  0.00    +0.000 C 
ATOM      9  O   UNL     1       0.822   3.024  18.043  0.00  0.00    +0.000 OA
ENDROOT
BRANCH   6  10
ATOM     10  N   UNL     1       5.066   4.396  16.442  0.00  0.00    +0.000 N 
ATOM     11  C   UNL     1       5.911   3.710  15.522  0.00  0.00    +0.000 C 
ATOM     12  C   UNL     1       6.576   5.066  15.256  0.00  0.00    +0.000 C 
ATOM     13  C   UNL     1       5.334   5.686  15.903  0.00  0.00    +0.000 C 
ENDBRANCH   6  10
TORSDOF 1
ENDMDL
MODEL 3
REMARK VINA RESULT:      -6.0      1.926      4.827
REMARK  Name = 
REMARK  2 active torsions:
REMARK  status: ('A' for Active; 'I' for Inactive)
REMARK    1  A    between atoms: C_1  and  C_2
REMARK    2  A    between atoms: C_6  and  N_7
REMARK                            x       y       z     vdW  Elec       q    Type
REMARK                         _______ _______ _______ _____ _____    ______ ____
ROOT
ATOM      1  C   UNL     1       6.901   4.611  15.752  0.00  0.00    +0.000 C 
ATOM      2  C   UNL     1       5.806   4.370  16.742  0.00  0.00    +0.000 C 
ATOM      3  C   UNL     1       4.554   4.054  16.396  0.00  0.00    +0.000 C 
ATOM      4  C   UNL     1       3.487   3.800  17.388  0.00  0.00    +0.000 C 
ATOM      5  O   UNL     1       2.366   3.510  16.977  0.00  0.00    +0.000 OA
ATOM      6  C   UNL     1       3.837   3.911  18.852  0.00  0.00    +0.000 C 
ATOM      7  C   UNL     1       5.100   4.237  19.166  0.00  0.00    +0.000 C 
ATOM      8  C   UNL     1       6.157   4.492  18.174  0.00  0.00    +0.000 C 
ATOM      9  O   UNL     1       7.287   4.799  18.542  0.00  0.00    +0.000 OA
ENDROOT
BRANCH   6  10
ATOM     10  N   UNL     1       2.848   3.708  19.791  0.00  0.00    +0.000 N 
ATOM     11  C   UNL     1       2.262   2.531  20.342  0.00  0.00    +0.000 C 
ATOM     12  C   UNL     1       1.147   3.440  20.873  0.00  0.00    +0.000 C 
ATOM     13  C   UNL     1       2.115   4.600  20.623  0.00  0.00    +0.000 C 
ENDBRANCH   6  10
TORSDOF 1
ENDMDL
MODEL 4
REMARK VINA RESULT:      -5.9      2.036      4.708
REMARK  Name = 
REMARK  2 active torsions:
REMARK  status: ('A' for Active; 'I' for Inactive)
REMARK    1  A    between atoms: C_1  and  C_2
REMARK    2  A    between atoms: C_6  and  N_7
REMARK                            x       y       z     vdW  Elec       q    Type
REMARK                         _______ _______ _______ _____ _____    ______ ____
ROOT
ATOM      1  C   UNL     1       7.591   6.929  17.528  0.00  0.00    +0.000 C 
ATOM      2  C   UNL     1       6.414   6.025  17.723  0.00  0.00    +0.000 C 
ATOM      3  C   UNL     1       6.336   5.117  18.701  0.00  0.00    +0.000 C 
ATOM      4  C   UNL     1       5.157   4.244  18.892  0.00  0.00    +0.000 C 
ATOM      5  O   UNL     1       5.171   3.442  19.822  0.00  0.00    +0.000 OA
ATOM      6  C   UNL     1       4.002   4.390  17.932  0.00  0.00    +0.000 C 
ATOM      7  C   UNL     1       4.116   5.304  16.956  0.00  0.00    +0.000 C 
ATOM      8  C   UNL     1       5.292   6.168  16.770  0.00  0.00    +0.000 C 
ATOM      9  O   UNL     1       5.327   6.973  15.843  0.00  0.00    +0.000 OA
ENDROOT
BRANCH   6  10
ATOM     10  N   UNL     1       2.907   3.564  18.075  0.00  0.00    +0.000 N 
ATOM     11  C   UNL     1       1.567   3.796  18.501  0.00  0.00    +0.000 C 
ATOM     12  C   UNL     1       1.439   2.275  18.640  0.00  0.00    +0.000 C 
ATOM     13  C   UNL     1       2.690   2.192  17.760  0.00  0.00    +0.000 C 
ENDBRANCH   6  10
TORSDOF 1
ENDMDL
MODEL 5
REMARK VINA RESULT:      -5.9      1.996      2.788
REMARK  Name = 
REMARK  2 active torsions:
REMARK  status: ('A' for Active; 'I' for Inactive)
REMARK    1  A    between atoms: C_1  and  C_2
REMARK    2  A    between atoms: C_6  and  N_7
REMARK                            x       y       z     vdW  Elec       q    Type
REMARK                         _______ _______ _______ _____ _____    ______ ____
ROOT
ATOM      1  C   UNL     1       0.985   3.918  20.081  0.00  0.00    +0.000 C 
ATOM      2  C   UNL     1       2.116   4.090  19.117  0.00  0.00    +0.000 C 
ATOM      3  C   UNL     1       2.567   5.282  18.715  0.00  0.00    +0.000 C 
ATOM      4  C   UNL     1       3.700   5.436  17.775  0.00  0.00    +0.000 C 
ATOM      5  O   UNL     1       4.050   6.573  17.467  0.00  0.00    +0.000 OA
ATOM      6  C   UNL     1       4.362   4.186  17.250  0.00  0.00    +0.000 C 
ATOM      7  C   UNL     1       3.880   3.005  17.666  0.00  0.00    +0.000 C 
ATOM      8  C   UNL     1       2.751   2.859  18.599  0.00  0.00    +0.000 C 
ATOM      9  O   UNL     1       2.359   1.741  18.923  0.00  0.00    +0.000 OA
ENDROOT
BRANCH   6  10
ATOM     10  N   UNL     1       5.399   4.309  16.350  0.00  0.00    +0.000 N 
ATOM     11  C   UNL     1       6.806   4.466  16.509  0.00  0.00    +0.000 C 
ATOM     12  C   UNL     1       6.841   4.869  15.030  0.00  0.00    +0.000 C 
ATOM     13  C   UNL     1       5.453   4.229  14.929  0.00  0.00    +0.000 C 
ENDBRANCH   6  10
TORSDOF 1
ENDMDL
MODEL 6
REMARK VINA RESULT:      -5.8      2.506      4.709
REMARK  Name = 
REMARK  2 active torsions:
REMARK  status: ('A' for Active; 'I' for Inactive)
REMARK    1  A    between atoms: C_1  and  C_2
REMARK    2  A    between atoms: C_6  and  N_7
REMARK                            x       y       z     vdW  Elec       q    Type
REMARK                         _______ _______ _______ _____ _____    ______ ____
ROOT
ATOM      1  C   UNL     1       5.263   6.400  15.845  0.00  0.00    +0.000 C 
ATOM      2  C   UNL     1       4.508   5.687  16.923  0.00  0.00    +0.000 C 
ATOM      3  C   UNL     1       3.762   6.313  17.839  0.00  0.00    +0.000 C 
ATOM      4  C   UNL     1       3.006   5.591  18.886  0.00  0.00    +0.000 C 
ATOM      5  O   UNL     1       2.342   6.250  19.682  0.00  0.00    +0.000 OA
ATOM      6  C   UNL     1       3.094   4.085  18.916  0.00  0.00    +0.000 C 
ATOM      7  C   UNL     1       3.858   3.489  17.988  0.00  0.00    +0.000 C 
ATOM      8  C   UNL     1       4.610   4.212  16.950  0.00  0.00    +0.000 C 
ATOM      9  O   UNL     1       5.298   3.594  16.144  0.00  0.00    +0.000 OA
ENDROOT
BRANCH   6  10
ATOM     10  N   UNL     1       2.422   3.398  19.904  0.00  0.00    +0.000 N 
ATOM     11  C   UNL     1       1.063   2.993  20.049  0.00  0.00    +0.000 C 
ATOM     12  C   UNL     1       1.388   2.734  21.525  0.00  0.00    +0.000 C 
ATOM     13  C   UNL     1       2.859   2.758  21.099  0.00  0.00    +0.000 C 
ENDBRANCH   6  10
TORSDOF 1
ENDMDL
MODEL 7
REMARK VINA RESULT:      -5.8      2.429      4.486
REMARK  Name = 
REMARK  2 active torsions:
REMARK  status: ('A' for Active; 'I' for Inactive)
REMARK    1  A    between atoms: C_1  and  C_2
REMARK    2  A    between atoms: C_6  and  N_7
REMARK                            x       y       z     vdW  Elec       q    Type
REMARK                         _______ _______ _______ _____ _____    ______ ____
ROOT
ATOM      1  C   UNL     1       5.608   5.335  15.296  0.00  0.00    +0.000 C 
ATOM      2  C   UNL     1       4.781   4.867  16.452  0.00  0.00    +0.000 C 
ATOM      3  C   UNL     1       4.449   3.588  16.651  0.00  0.00    +0.000 C 
ATOM      4  C   UNL     1       3.646   3.138  17.810  0.00  0.00    +0.000 C 
ATOM      5  O   UNL     1       3.395   1.940  17.914  0.00  0.00    +0.000 OA
ATOM      6  C   UNL     1       3.182   4.179  18.799  0.00  0.00    +0.000 C 
ATOM      7  C   UNL     1       3.524   5.455  18.565  0.00  0.00    +0.000 C 
ATOM      8  C   UNL     1       4.321   5.896  17.409  0.00  0.00    +0.000 C 
ATOM      9  O   UNL     1       4.582   7.086  17.257  0.00  0.00    +0.000 OA
ENDROOT
BRANCH   6  10
ATOM     10  N   UNL     1       2.407   3.784  19.868  0.00  0.00    +0.000 N 
ATOM     11  C   UNL     1       2.725   3.255  21.153  0.00  0.00    +0.000 C 
ATOM     12  C   UNL     1       1.248   2.859  21.260  0.00  0.00    +0.000 C 
ATOM     13  C   UNL     1       1.006   3.847  20.116  0.00  0.00    +0.000 C 
ENDBRANCH   6  10
TORSDOF 1
ENDMDL
MODEL 8
REMARK VINA RESULT:      -5.7      2.116      5.129
REMARK  Name = 
REMARK  2 active torsions:
REMARK  status: ('A' for Active; 'I' for Inactive)
REMARK    1  A    between atoms: C_1  and  C_2
REMARK    2  A    between atoms: C_6  and  N_7
REMARK                            x       y       z     vdW  Elec       q    Type
REMARK                         _______ _______ _______ _____ _____    ______ ____
ROOT
ATOM      1  C   UNL     1       6.930   6.857  17.043  0.00  0.00    +0.000 C 
ATOM      2  C   UNL     1       5.803   6.158  17.737  0.00  0.00    +0.000 C 
ATOM      3  C   UNL     1       4.525   6.536  17.632  0.00  0.00    +0.000 C 
ATOM      4  C   UNL     1       3.420   5.822  18.309  0.00  0.00    +0.000 C 
ATOM      5  O   UNL     1       2.275   6.238  18.149  0.00  0.00    +0.000 OA
ATOM      6  C   UNL     1       3.763   4.623  19.158  0.00  0.00    +0.000 C 
ATOM      7  C   UNL     1       5.055   4.276  19.250  0.00  0.00    +0.000 C 
ATOM      8  C   UNL     1       6.151   4.991  18.576  0.00  0.00    +0.000 C 
ATOM      9  O   UNL     1       7.312   4.619  18.721  0.00  0.00    +0.000 OA
ENDROOT
BRANCH   6  10
ATOM     10  N   UNL     1       2.750   3.964  19.822  0.00  0.00    +0.000 N 
ATOM     11  C   UNL     1       1.967   2.817  19.500  0.00  0.00    +0.000 C 
ATOM     12  C   UNL     1       1.024   3.253  20.628  0.00  0.00    +0.000 C 
ATOM     13  C   UNL     1       2.179   4.133  21.115  0.00  0.00    +0.000 C 
ENDBRANCH   6  10
TORSDOF 1
ENDMDL
MODEL 9
REMARK VINA RESULT:      -5.7      2.013      2.269
REMARK  Name = 
REMARK  2 active torsions:
REMARK  status: ('A' for Active; 'I' for Inactive)
REMARK    1  A    between atoms: C_1  and  C_2
REMARK    2  A    between atoms: C_6  and  N_7
REMARK                            x       y       z     vdW  Elec       q    Type
REMARK                         _______ _______ _______ _____ _____    ______ ____
ROOT
ATOM      1  C   UNL     1       1.127   2.962  18.781  0.00  0.00    +0.000 C 
ATOM      2  C   UNL     1       2.422   3.668  18.526  0.00  0.00    +0.000 C 
ATOM      3  C   UNL     1       3.210   3.409  17.478  0.00  0.00    +0.000 C 
ATOM      4  C   UNL     1       4.477   4.130  17.230  0.00  0.00    +0.000 C 
ATOM      5  O   UNL     1       5.134   3.828  16.237  0.00  0.00    +0.000 OA
ATOM      6  C   UNL     1       4.891   5.198  18.212  0.00  0.00    +0.000 C 
ATOM      7  C   UNL     1       4.082   5.429  19.257  0.00  0.00    +0.000 C 
ATOM      8  C   UNL     1       2.824   4.706  19.501  0.00  0.00    +0.000 C 
ATOM      9  O   UNL     1       2.144   4.965  20.490  0.00  0.00    +0.000 OA
ENDROOT
BRANCH   6  10
ATOM     10  N   UNL     1       6.084   5.860  18.014  0.00  0.00    +0.000 N 
ATOM     11  C   UNL     1       7.419   5.601  18.443  0.00  0.00    +0.000 C 
ATOM     12  C   UNL     1       7.737   7.044  18.035  0.00  0.00    +0.000 C 
ATOM     13  C   UNL     1       6.435   6.996  17.230  0.00  0.00    +0.000 C 
ENDBRANCH   6  10
TORSDOF 1
ENDMDL
