MODEL 1
REMARK VINA RESULT:      -8.1      0.000      0.000
REMARK  Name = 
REMARK  9 active torsions:
REMARK  status: ('A' for Active; 'I' for Inactive)
REMARK    1  A    between atoms: C_1  and  C_2
REMARK    2  A    between atoms: N_7  and  C_8
REMARK    3  A    between atoms: C_8  and  C_9
REMARK    4  A    between atoms: C_9  and  C_10
REMARK    5  A    between atoms: C_10  and  O_11
REMARK    6  A    between atoms: O_11  and  C_12
REMARK    7  A    between atoms: C_12  and  C_14
REMARK    8  A    between atoms: C_17  and  O_18
REMARK    9  A    between atoms: O_18  and  C_19
REMARK                            x       y       z     vdW  Elec       q    Type
REMARK                         _______ _______ _______ _____ _____    ______ ____
ROOT
ATOM      1  C   UNL     1       7.097   6.345  16.710  0.00  0.00    +0.000 C 
ATOM      2  O   UNL     1       7.739   6.100  15.699  0.00  0.00    +0.000 OA
ENDROOT
BRANCH   1   3
ATOM      3  C   UNL     1       5.731   5.802  16.984  0.00  0.00    +0.000 A 
ATOM      4  C   UNL     1       4.883   6.394  17.930  0.00  0.00    +0.000 A 
ATOM      5  C   UNL     1       3.636   5.825  18.241  0.00  0.00    +0.000 A 
ATOM      6  C   UNL     1       3.210   4.651  17.618  0.00  0.00    +0.000 A 
ATOM      7  C   UNL     1       4.069   4.047  16.690  0.00  0.00    +0.000 A 
ATOM      8  C   UNL     1       5.318   4.612  16.374  0.00  0.00    +0.000 A 
BRANCH   6   9
ATOM      9  O   UNL     1       2.020   4.000  17.835  0.00  0.00    +0.000 OA
BRANCH   9  10
ATOM     10  C   UNL     1       2.042   2.619  18.241  0.00  0.00    +0.000 C 
ATOM     11  C   UNL     1       3.169   2.355  19.247  0.00  0.00    +0.000 C 
ATOM     12  C   UNL     1       2.959   3.082  20.574  0.00  0.00    +0.000 C 
ATOM     13  C   UNL     1       1.597   2.803  21.204  0.00  0.00    +0.000 C 
ATOM     14  C   UNL     1       0.433   2.922  20.226  0.00  0.00    +0.000 C 
ATOM     15  C   UNL     1       0.696   2.241  18.883  0.00  0.00    +0.000 C 
ENDBRANCH   9  10
ENDBRANCH   6   9
ENDBRANCH   1   3
BRANCH   1  16
ATOM     16  O   UNL     1       7.543   7.058  17.779  0.00  0.00    +0.000 OA
BRANCH  16  17
ATOM     17  C   UNL     1       7.711   8.471  17.554  0.00  0.00    +0.000 C 
BRANCH  17  18
ATOM     18  C   UNL     1       8.579   9.169  18.595  0.00  0.00    +0.000 C 
BRANCH  18  19
ATOM     19  C   UNL     1       9.266  10.426  18.014  0.00  0.00    +0.000 C 
BRANCH  19  26
ATOM     20  C   UNL     1       9.116  14.100  19.053  0.00  0.00    +0.000 C 
ATOM     21  C   UNL     1       9.420  12.879  18.161  0.00  0.00    +0.000 C 
ATOM     22  C   UNL     1      10.793  13.049  17.488  0.00  0.00    +0.000 C 
ATOM     23  C   UNL     1      11.934  12.936  18.495  0.00  0.00    +0.000 C 
ATOM     24  C   UNL     1      11.795  11.688  19.365  0.00  0.00    +0.000 C 
ATOM     25  C   UNL     1      10.380  11.499  19.924  0.00  0.00    +0.000 C 
ATOM     26  N   UNL     1       9.313  11.602  18.913  0.00  0.00    +0.000 NA
ENDBRANCH  19  26
ENDBRANCH  18  19
ENDBRANCH  17  18
ENDBRANCH  16  17
ENDBRANCH   1  16
TORSDOF 8
ENDMDL
MODEL 2
REMARK VINA RESULT:      -7.9      1.183      1.574
REMARK  Name = 
REMARK  9 active torsions:
REMARK  status: ('A' for Active; 'I' for Inactive)
REMARK    1  A    between atoms: C_1  and  C_2
REMARK    2  A    between atoms: N_7  and  C_8
REMARK    3  A    between atoms: C_8  and  C_9
REMARK    4  A    between atoms: C_9  and  C_10
REMARK    5  A    between atoms: C_10  and  O_11
REMARK    6  A    between atoms: O_11  and  C_12
REMARK    7  A    between atoms: C_12  and  C_14
REMARK    8  A    between atoms: C_17  and  O_18
REMARK    9  A    between atoms: O_18  and  C_19
REMARK                            x       y       z     vdW  Elec       q    Type
REMARK                         _______ _______ _______ _____ _____    ______ ____
ROOT
ATOM      1  C   UNL     1       7.385   6.757  17.092  0.00  0.00    +0.000 C 
ATOM      2  O   UNL     1       7.754   6.351  16.000  0.00  0.00    +0.000 OA
ENDROOT
BRANCH   1   3
ATOM      3  C   UNL     1       6.119   6.323  17.760  0.00  0.00    +0.000 A 
ATOM      4  C   UNL     1       4.881   6.880  17.414  0.00  0.00    +0.000 A 
ATOM      5  C   UNL     1       3.710   6.527  18.107  0.00  0.00    +0.000 A 
ATOM      6  C   UNL     1       3.750   5.614  19.161  0.00  0.00    +0.000 A 
ATOM      7  C   UNL     1       4.993   5.077  19.522  0.00  0.00    +0.000 A 
ATOM      8  C   UNL     1       6.169   5.425  18.832  0.00  0.00    +0.000 A 
BRANCH   6   9
ATOM      9  O   UNL     1       2.681   5.191  19.913  0.00  0.00    +0.000 OA
BRANCH   9  10
ATOM     10  C   UNL     1       1.498   4.720  19.243  0.00  0.00    +0.000 C 
ATOM     11  C   UNL     1       1.853   3.962  17.959  0.00  0.00    +0.000 C 
ATOM     12  C   UNL     1       2.614   2.665  18.229  0.00  0.00    +0.000 C 
ATOM     13  C   UNL     1       1.904   1.745  19.219  0.00  0.00    +0.000 C 
ATOM     14  C   UNL     1       1.407   2.460  20.471  0.00  0.00    +0.000 C 
ATOM     15  C   UNL     1       0.707   3.786  20.176  0.00  0.00    +0.000 C 
ENDBRANCH   9  10
ENDBRANCH   6   9
ENDBRANCH   1   3
BRANCH   1  16
ATOM     16  O   UNL     1       8.093   7.579  17.913  0.00  0.00    +0.000 OA
BRANCH  16  17
ATOM     17  C   UNL     1       7.719   8.970  17.867  0.00  0.00    +0.000 C 
BRANCH  17  18
ATOM     18  C   UNL     1       8.900   9.932  17.901  0.00  0.00    +0.000 C 
BRANCH  18  19
ATOM     19  C   UNL     1       9.282  10.314  19.351  0.00  0.00    +0.000 C 
BRANCH  19  26
ATOM     20  C   UNL     1       9.398  14.057  18.593  0.00  0.00    +0.000 C 
ATOM     21  C   UNL     1       9.587  12.545  18.355  0.00  0.00    +0.000 C 
ATOM     22  C   UNL     1      10.935  12.287  17.659  0.00  0.00    +0.000 C 
ATOM     23  C   UNL     1      12.113  12.562  18.590  0.00  0.00    +0.000 C 
ATOM     24  C   UNL     1      11.942  11.862  19.936  0.00  0.00    +0.000 C 
ATOM     25  C   UNL     1      10.546  12.054  20.540  0.00  0.00    +0.000 C 
ATOM     26  N   UNL     1       9.440  11.763  19.610  0.00  0.00    +0.000 NA
ENDBRANCH  19  26
ENDBRANCH  18  19
ENDBRANCH  17  18
ENDBRANCH  16  17
ENDBRANCH   1  16
TORSDOF 8
ENDMDL
MODEL 3
REMARK VINA RESULT:      -7.9      1.170      1.466
REMARK  Name = 
REMARK  9 active torsions:
REMARK  status: ('A' for Active; 'I' for Inactive)
REMARK    1  A    between atoms: C_1  and  C_2
REMARK    2  A    between atoms: N_7  and  C_8
REMARK    3  A    between atoms: C_8  and  C_9
REMARK    4  A    between atoms: C_9  and  C_10
REMARK    5  A    between atoms: C_10  and  O_11
REMARK    6  A    between atoms: O_11  and  C_12
REMARK    7  A    between atoms: C_12  and  C_14
REMARK    8  A    between atoms: C_17  and  O_18
REMARK    9  A    between atoms: O_18  and  C_19
REMARK                            x       y       z     vdW  Elec       q    Type
REMARK                         _______ _______ _______ _____ _____    ______ ____
ROOT
ATOM      1  C   UNL     1       7.222   7.085  17.142  0.00  0.00    +0.000 C 
ATOM      2  O   UNL     1       8.067   6.809  16.304  0.00  0.00    +0.000 OA
ENDROOT
BRANCH   1   3
ATOM      3  C   UNL     1       6.128   6.155  17.563  0.00  0.00    +0.000 A 
ATOM      4  C   UNL     1       6.215   5.410  18.746  0.00  0.00    +0.000 A 
ATOM      5  C   UNL     1       5.221   4.476  19.088  0.00  0.00    +0.000 A 
ATOM      6  C   UNL     1       4.122   4.265  18.255  0.00  0.00    +0.000 A 
ATOM      7  C   UNL     1       4.049   4.993  17.061  0.00  0.00    +0.000 A 
ATOM      8  C   UNL     1       5.039   5.930  16.713  0.00  0.00    +0.000 A 
BRANCH   6   9
ATOM      9  O   UNL     1       3.090   3.385  18.477  0.00  0.00    +0.000 OA
BRANCH   9  10
ATOM     10  C   UNL     1       1.782   3.902  18.782  0.00  0.00    +0.000 C 
ATOM     11  C   UNL     1       0.827   2.780  19.204  0.00  0.00    +0.000 C 
ATOM     12  C   UNL     1       1.233   2.122  20.522  0.00  0.00    +0.000 C 
ATOM     13  C   UNL     1       1.426   3.122  21.658  0.00  0.00    +0.000 C 
ATOM     14  C   UNL     1       2.265   4.336  21.271  0.00  0.00    +0.000 C 
ATOM     15  C   UNL     1       1.880   4.934  19.919  0.00  0.00    +0.000 C 
ENDBRANCH   9  10
ENDBRANCH   6   9
ENDBRANCH   1   3
BRANCH   1  16
ATOM     16  O   UNL     1       7.189   8.219  17.892  0.00  0.00    +0.000 OA
BRANCH  16  17
ATOM     17  C   UNL     1       8.463   8.663  18.397  0.00  0.00    +0.000 C 
BRANCH  17  18
ATOM     18  C   UNL     1       8.709  10.159  18.236  0.00  0.00    +0.000 C 
BRANCH  18  19
ATOM     19  C   UNL     1       9.609  10.713  19.366  0.00  0.00    +0.000 C 
BRANCH  19  26
ATOM     20  C   UNL     1       9.450  14.354  18.220  0.00  0.00    +0.000 C 
ATOM     21  C   UNL     1       9.740  12.842  18.136  0.00  0.00    +0.000 C 
ATOM     22  C   UNL     1      11.091  12.604  17.437  0.00  0.00    +0.000 C 
ATOM     23  C   UNL     1      12.263  13.054  18.305  0.00  0.00    +0.000 C 
ATOM     24  C   UNL     1      12.164  12.491  19.721  0.00  0.00    +0.000 C 
ATOM     25  C   UNL     1      10.769  12.651  20.336  0.00  0.00    +0.000 C 
ATOM     26  N   UNL     1       9.670  12.189  19.469  0.00  0.00    +0.000 NA
ENDBRANCH  19  26
ENDBRANCH  18  19
ENDBRANCH  17  18
ENDBRANCH  16  17
ENDBRANCH   1  16
TORSDOF 8
ENDMDL
MODEL 4
REMARK VINA RESULT:      -7.7      1.219      2.097
REMARK  Name = 
REMARK  9 active torsions:
REMARK  status: ('A' for Active; 'I' for Inactive)
REMARK    1  A    between atoms: C_1  and  C_2
REMARK    2  A    between atoms: N_7  and  C_8
REMARK    3  A    between atoms: C_8  and  C_9
REMARK    4  A    between atoms: C_9  and  C_10
REMARK    5  A    between atoms: C_10  and  O_11
REMARK    6  A    between atoms: O_11  and  C_12
REMARK    7  A    between atoms: C_12  and  C_14
REMARK    8  A    between atoms: C_17  and  O_18
REMARK    9  A    between atoms: O_18  and  C_19
REMARK                            x       y       z     vdW  Elec       q    Type
REMARK                         _______ _______ _______ _____ _____    ______ ____
ROOT
ATOM      1  C   UNL     1       6.994   6.552  16.760  0.00  0.00    +0.000 C 
ATOM      2  O   UNL     1       7.790   6.442  15.839  0.00  0.00    +0.000 OA
ENDROOT
BRANCH   1   3
ATOM      3  C   UNL     1       6.066   5.464  17.197  0.00  0.00    +0.000 A 
ATOM      4  C   UNL     1       5.225   4.810  16.287  0.00  0.00    +0.000 A 
ATOM      5  C   UNL     1       4.295   3.849  16.721  0.00  0.00    +0.000 A 
ATOM      6  C   UNL     1       4.184   3.522  18.073  0.00  0.00    +0.000 A 
ATOM      7  C   UNL     1       5.009   4.194  18.985  0.00  0.00    +0.000 A 
ATOM      8  C   UNL     1       5.941   5.156  18.556  0.00  0.00    +0.000 A 
BRANCH   6   9
ATOM      9  O   UNL     1       3.319   2.605  18.620  0.00  0.00    +0.000 OA
BRANCH   9  10
ATOM     10  C   UNL     1       1.902   2.836  18.522  0.00  0.00    +0.000 C 
ATOM     11  C   UNL     1       1.189   2.472  19.830  0.00  0.00    +0.000 C 
ATOM     12  C   UNL     1       1.587   3.380  20.992  0.00  0.00    +0.000 C 
ATOM     13  C   UNL     1       1.419   4.864  20.681  0.00  0.00    +0.000 C 
ATOM     14  C   UNL     1       1.994   5.276  19.330  0.00  0.00    +0.000 C 
ATOM     15  C   UNL     1       1.634   4.315  18.198  0.00  0.00    +0.000 C 
ENDBRANCH   9  10
ENDBRANCH   6   9
ENDBRANCH   1   3
BRANCH   1  16
ATOM     16  O   UNL     1       6.887   7.623  17.592  0.00  0.00    +0.000 OA
BRANCH  16  17
ATOM     17  C   UNL     1       8.133   8.140  18.099  0.00  0.00    +0.000 C 
BRANCH  17  18
ATOM     18  C   UNL     1       8.381   9.606  17.764  0.00  0.00    +0.000 C 
BRANCH  18  19
ATOM     19  C   UNL     1       8.921  10.386  18.985  0.00  0.00    +0.000 C 
BRANCH  19  26
ATOM     20  C   UNL     1      12.313  11.825  19.995  0.00  0.00    +0.000 C 
ATOM     21  C   UNL     1      10.805  11.521  20.093  0.00  0.00    +0.000 C 
ATOM     22  C   UNL     1      10.048  12.771  20.577  0.00  0.00    +0.000 C 
ATOM     23  C   UNL     1      10.033  13.868  19.516  0.00  0.00    +0.000 C 
ATOM     24  C   UNL     1       9.586  13.333  18.158  0.00  0.00    +0.000 C 
ATOM     25  C   UNL     1      10.286  12.026  17.767  0.00  0.00    +0.000 C 
ATOM     26  N   UNL     1      10.262  10.991  18.815  0.00  0.00    +0.000 NA
ENDBRANCH  19  26
ENDBRANCH  18  19
ENDBRANCH  17  18
ENDBRANCH  16  17
ENDBRANCH   1  16
TORSDOF 8
ENDMDL
MODEL 5
REMARK VINA RESULT:      -7.7      1.374      1.912
REMARK  Name = 
REMARK  9 active torsions:
REMARK  status: ('A' for Active; 'I' for Inactive)
REMARK    1  A    between atoms: C_1  and  C_2
REMARK    2  A    between atoms: N_7  and  C_8
REMARK    3  A    between atoms: C_8  and  C_9
REMARK    4  A    between atoms: C_9  and  C_10
REMARK    5  A    between atoms: C_10  and  O_11
REMARK    6  A    between atoms: O_11  and  C_12
REMARK    7  A    between atoms: C_12  and  C_14
REMARK    8  A    between atoms: C_17  and  O_18
REMARK    9  A    between atoms: O_18  and  C_19
REMARK                            x       y       z     vdW  Elec       q    Type
REMARK                         _______ _______ _______ _____ _____    ______ ____
ROOT
ATOM      1  C   UNL     1       7.607   7.185  17.375  0.00  0.00    +0.000 C 
ATOM      2  O   UNL     1       8.172   7.085  16.295  0.00  0.00    +0.000 OA
ENDROOT
BRANCH   1   3
ATOM      3  C   UNL     1       6.456   6.329  17.798  0.00  0.00    +0.000 A 
ATOM      4  C   UNL     1       6.611   5.310  18.747  0.00  0.00    +0.000 A 
ATOM      5  C   UNL     1       5.543   4.457  19.074  0.00  0.00    +0.000 A 
ATOM      6  C   UNL     1       4.299   4.600  18.458  0.00  0.00    +0.000 A 
ATOM      7  C   UNL     1       4.152   5.604  17.492  0.00  0.00    +0.000 A 
ATOM      8  C   UNL     1       5.217   6.462  17.161  0.00  0.00    +0.000 A 
BRANCH   6   9
ATOM      9  O   UNL     1       3.183   3.833  18.689  0.00  0.00    +0.000 OA
BRANCH   9  10
ATOM     10  C   UNL     1       1.988   4.466  19.182  0.00  0.00    +0.000 C 
ATOM     11  C   UNL     1       0.796   3.502  19.148  0.00  0.00    +0.000 C 
ATOM     12  C   UNL     1       0.960   2.324  20.107  0.00  0.00    +0.000 C 
ATOM     13  C   UNL     1       1.266   2.754  21.539  0.00  0.00    +0.000 C 
ATOM     14  C   UNL     1       2.361   3.811  21.642  0.00  0.00    +0.000 C 
ATOM     15  C   UNL     1       2.207   4.944  20.628  0.00  0.00    +0.000 C 
ENDBRANCH   9  10
ENDBRANCH   6   9
ENDBRANCH   1   3
BRANCH   1  16
ATOM     16  O   UNL     1       7.982   8.006  18.393  0.00  0.00    +0.000 OA
BRANCH  16  17
ATOM     17  C   UNL     1       8.233   9.376  18.022  0.00  0.00    +0.000 C 
BRANCH  17  18
ATOM     18  C   UNL     1       9.097  10.141  19.017  0.00  0.00    +0.000 C 
BRANCH  18  19
ATOM     19  C   UNL     1      10.177  10.986  18.302  0.00  0.00    +0.000 C 
BRANCH  19  26
ATOM     20  C   UNL     1      10.673  14.627  17.255  0.00  0.00    +0.000 C 
ATOM     21  C   UNL     1      11.060  13.215  17.740  0.00  0.00    +0.000 C 
ATOM     22  C   UNL     1      12.117  13.314  18.854  0.00  0.00    +0.000 C 
ATOM     23  C   UNL     1      11.532  13.890  20.140  0.00  0.00    +0.000 C 
ATOM     24  C   UNL     1      10.243  13.176  20.541  0.00  0.00    +0.000 C 
ATOM     25  C   UNL     1       9.264  13.000  19.373  0.00  0.00    +0.000 C 
ATOM     26  N   UNL     1       9.871  12.428  18.159  0.00  0.00    +0.000 NA
ENDBRANCH  19  26
ENDBRANCH  18  19
ENDBRANCH  17  18
ENDBRANCH  16  17
ENDBRANCH   1  16
TORSDOF 8
ENDMDL
MODEL 6
REMARK VINA RESULT:      -7.6      0.777      1.414
REMARK  Name = 
REMARK  9 active torsions:
REMARK  status: ('A' for Active; 'I' for Inactive)
REMARK    1  A    between atoms: C_1  and  C_2
REMARK    2  A    between atoms: N_7  and  C_8
REMARK    3  A    between atoms: C_8  and  C_9
REMARK    4  A    between atoms: C_9  and  C_10
REMARK    5  A    between atoms: C_10  and  O_11
REMARK    6  A    between atoms: O_11  and  C_12
REMARK    7  A    between atoms: C_12  and  C_14
REMARK    8  A    between atoms: C_17  and  O_18
REMARK    9  A    between atoms: O_18  and  C_19
REMARK                            x       y       z     vdW  Elec       q    Type
REMARK                         _______ _______ _______ _____ _____    ______ ____
ROOT
ATOM      1  C   UNL     1       7.270   6.184  16.775  0.00  0.00    +0.000 C 
ATOM      2  O   UNL     1       7.761   6.243  15.658  0.00  0.00    +0.000 OA
ENDROOT
BRANCH   1   3
ATOM      3  C   UNL     1       5.956   5.537  17.077  0.00  0.00    +0.000 A 
ATOM      4  C   UNL     1       5.600   4.305  16.512  0.00  0.00    +0.000 A 
ATOM      5  C   UNL     1       4.329   3.748  16.735  0.00  0.00    +0.000 A 
ATOM      6  C   UNL     1       3.386   4.408  17.524  0.00  0.00    +0.000 A 
ATOM      7  C   UNL     1       3.736   5.650  18.069  0.00  0.00    +0.000 A 
ATOM      8  C   UNL     1       5.007   6.214  17.851  0.00  0.00    +0.000 A 
BRANCH   6   9
ATOM      9  O   UNL     1       2.117   3.969  17.814  0.00  0.00    +0.000 OA
BRANCH   9  10
ATOM     10  C   UNL     1       1.920   2.592  18.181  0.00  0.00    +0.000 C 
ATOM     11  C   UNL     1       3.123   2.049  18.961  0.00  0.00    +0.000 C 
ATOM     12  C   UNL     1       3.303   2.726  20.319  0.00  0.00    +0.000 C 
ATOM     13  C   UNL     1       2.043   2.692  21.179  0.00  0.00    +0.000 C 
ATOM     14  C   UNL     1       0.779   3.100  20.431  0.00  0.00    +0.000 C 
ATOM     15  C   UNL     1       0.657   2.458  19.049  0.00  0.00    +0.000 C 
ENDBRANCH   9  10
ENDBRANCH   6   9
ENDBRANCH   1   3
BRANCH   1  16
ATOM     16  O   UNL     1       7.865   6.601  17.926  0.00  0.00    +0.000 OA
BRANCH  16  17
ATOM     17  C   UNL     1       7.544   7.944  18.336  0.00  0.00    +0.000 C 
BRANCH  17  18
ATOM     18  C   UNL     1       8.479   9.007  17.770  0.00  0.00    +0.000 C 
BRANCH  18  19
ATOM     19  C   UNL     1       9.129   9.850  18.892  0.00  0.00    +0.000 C 
BRANCH  19  26
ATOM     20  C   UNL     1      10.575  12.988  17.262  0.00  0.00    +0.000 C 
ATOM     21  C   UNL     1      10.564  11.573  17.875  0.00  0.00    +0.000 C 
ATOM     22  C   UNL     1      11.800  11.380  18.772  0.00  0.00    +0.000 C 
ATOM     23  C   UNL     1      11.716  12.224  20.040  0.00  0.00    +0.000 C 
ATOM     24  C   UNL     1      10.375  12.044  20.748  0.00  0.00    +0.000 C 
ATOM     25  C   UNL     1       9.176  12.134  19.798  0.00  0.00    +0.000 C 
ATOM     26  N   UNL     1       9.295  11.291  18.595  0.00  0.00    +0.000 NA
ENDBRANCH  19  26
ENDBRANCH  18  19
ENDBRANCH  17  18
ENDBRANCH  16  17
ENDBRANCH   1  16
TORSDOF 8
ENDMDL
MODEL 7
REMARK VINA RESULT:      -7.6      2.487      9.791
REMARK  Name = 
REMARK  9 active torsions:
REMARK  status: ('A' for Active; 'I' for Inactive)
REMARK    1  A    between atoms: C_1  and  C_2
REMARK    2  A    between atoms: N_7  and  C_8
REMARK    3  A    between atoms: C_8  and  C_9
REMARK    4  A    between atoms: C_9  and  C_10
REMARK    5  A    between atoms: C_10  and  O_11
REMARK    6  A    between atoms: O_11  and  C_12
REMARK    7  A    between atoms: C_12  and  C_14
REMARK    8  A    between atoms: C_17  and  O_18
REMARK    9  A    between atoms: O_18  and  C_19
REMARK                            x       y       z     vdW  Elec       q    Type
REMARK                         _______ _______ _______ _____ _____    ______ ____
ROOT
ATOM      1  C   UNL     1       6.139   5.918  16.689  0.00  0.00    +0.000 C 
ATOM      2  O   UNL     1       6.264   5.575  15.523  0.00  0.00    +0.000 OA
ENDROOT
BRANCH   1   3
ATOM      3  C   UNL     1       7.063   6.868  17.384  0.00  0.00    +0.000 A 
ATOM      4  C   UNL     1       7.787   6.485  18.520  0.00  0.00    +0.000 A 
ATOM      5  C   UNL     1       8.587   7.410  19.215  0.00  0.00    +0.000 A 
ATOM      6  C   UNL     1       8.678   8.736  18.791  0.00  0.00    +0.000 A 
ATOM      7  C   UNL     1       7.934   9.123  17.668  0.00  0.00    +0.000 A 
ATOM      8  C   UNL     1       7.133   8.202  16.968  0.00  0.00    +0.000 A 
BRANCH   6   9
ATOM      9  O   UNL     1       9.420   9.730  19.382  0.00  0.00    +0.000 OA
BRANCH   9  10
ATOM     10  C   UNL     1       9.305  11.077  18.887  0.00  0.00    +0.000 C 
ATOM     11  C   UNL     1       9.207  12.083  20.040  0.00  0.00    +0.000 C 
ATOM     12  C   UNL     1      10.484  12.151  20.877  0.00  0.00    +0.000 C 
ATOM     13  C   UNL     1      11.737  12.405  20.043  0.00  0.00    +0.000 C 
ATOM     14  C   UNL     1      11.837  11.522  18.803  0.00  0.00    +0.000 C 
ATOM     15  C   UNL     1      10.529  11.422  18.021  0.00  0.00    +0.000 C 
ENDBRANCH   9  10
ENDBRANCH   6   9
ENDBRANCH   1   3
BRANCH   1  16
ATOM     16  O   UNL     1       5.107   5.582  17.509  0.00  0.00    +0.000 OA
BRANCH  16  17
ATOM     17  C   UNL     1       4.049   6.556  17.602  0.00  0.00    +0.000 C 
BRANCH  17  18
ATOM     18  C   UNL     1       3.107   6.341  18.781  0.00  0.00    +0.000 C 
BRANCH  18  19
ATOM     19  C   UNL     1       3.555   5.147  19.657  0.00  0.00    +0.000 C 
BRANCH  19  26
ATOM     20  C   UNL     1       1.059   2.548  18.387  0.00  0.00    +0.000 C 
ATOM     21  C   UNL     1       1.565   3.789  19.150  0.00  0.00    +0.000 C 
ATOM     22  C   UNL     1       0.895   3.864  20.533  0.00  0.00    +0.000 C 
ATOM     23  C   UNL     1       1.390   2.759  21.462  0.00  0.00    +0.000 C 
ATOM     24  C   UNL     1       2.915   2.688  21.489  0.00  0.00    +0.000 C 
ATOM     25  C   UNL     1       3.545   2.728  20.092  0.00  0.00    +0.000 C 
ATOM     26  N   UNL     1       3.048   3.820  19.237  0.00  0.00    +0.000 NA
ENDBRANCH  19  26
ENDBRANCH  18  19
ENDBRANCH  17  18
ENDBRANCH  16  17
ENDBRANCH   1  16
TORSDOF 8
ENDMDL
MODEL 8
REMARK VINA RESULT:      -7.5      1.289      2.054
REMARK  Name = 
REMARK  9 active torsions:
REMARK  status: ('A' for Active; 'I' for Inactive)
REMARK    1  A    between atoms: C_1  and  C_2
REMARK    2  A    between atoms: N_7  and  C_8
REMARK    3  A    between atoms: C_8  and  C_9
REMARK    4  A    between atoms: C_9  and  C_10
REMARK    5  A    between atoms: C_10  and  O_11
REMARK    6  A    between atoms: O_11  and  C_12
REMARK    7  A    between atoms: C_12  and  C_14
REMARK    8  A    between atoms: C_17  and  O_18
REMARK    9  A    between atoms: O_18  and  C_19
REMARK                            x       y       z     vdW  Elec       q    Type
REMARK                         _______ _______ _______ _____ _____    ______ ____
ROOT
ATOM      1  C   UNL     1       7.506   6.970  17.364  0.00  0.00    +0.000 C 
ATOM      2  O   UNL     1       7.935   6.690  16.254  0.00  0.00    +0.000 OA
ENDROOT
BRANCH   1   3
ATOM      3  C   UNL     1       6.195   6.487  17.899  0.00  0.00    +0.000 A 
ATOM      4  C   UNL     1       6.129   5.582  18.966  0.00  0.00    +0.000 A 
ATOM      5  C   UNL     1       4.895   5.069  19.405  0.00  0.00    +0.000 A 
ATOM      6  C   UNL     1       3.703   5.447  18.785  0.00  0.00    +0.000 A 
ATOM      7  C   UNL     1       3.774   6.333  17.703  0.00  0.00    +0.000 A 
ATOM      8  C   UNL     1       5.005   6.851  17.259  0.00  0.00    +0.000 A 
BRANCH   6   9
ATOM      9  O   UNL     1       2.442   5.017  19.119  0.00  0.00    +0.000 OA
BRANCH   9  10
ATOM     10  C   UNL     1       1.692   4.242  18.166  0.00  0.00    +0.000 C 
ATOM     11  C   UNL     1       2.622   3.525  17.181  0.00  0.00    +0.000 C 
ATOM     12  C   UNL     1       3.492   2.463  17.853  0.00  0.00    +0.000 C 
ATOM     13  C   UNL     1       2.686   1.454  18.667  0.00  0.00    +0.000 C 
ATOM     14  C   UNL     1       1.647   2.094  19.581  0.00  0.00    +0.000 C 
ATOM     15  C   UNL     1       0.836   3.196  18.901  0.00  0.00    +0.000 C 
ENDBRANCH   9  10
ENDBRANCH   6   9
ENDBRANCH   1   3
BRANCH   1  16
ATOM     16  O   UNL     1       8.174   7.671  18.319  0.00  0.00    +0.000 OA
BRANCH  16  17
ATOM     17  C   UNL     1       8.267   9.091  18.093  0.00  0.00    +0.000 C 
BRANCH  17  18
ATOM     18  C   UNL     1       9.296   9.795  18.969  0.00  0.00    +0.000 C 
BRANCH  18  19
ATOM     19  C   UNL     1       8.976  11.300  19.127  0.00  0.00    +0.000 C 
BRANCH  19  26
ATOM     20  C   UNL     1      11.968  12.770  17.261  0.00  0.00    +0.000 C 
ATOM     21  C   UNL     1      11.192  12.104  18.414  0.00  0.00    +0.000 C 
ATOM     22  C   UNL     1      11.653  12.685  19.763  0.00  0.00    +0.000 C 
ATOM     23  C   UNL     1      11.204  14.133  19.937  0.00  0.00    +0.000 C 
ATOM     24  C   UNL     1       9.715  14.300  19.641  0.00  0.00    +0.000 C 
ATOM     25  C   UNL     1       9.278  13.610  18.344  0.00  0.00    +0.000 C 
ATOM     26  N   UNL     1       9.721  12.210  18.227  0.00  0.00    +0.000 NA
ENDBRANCH  19  26
ENDBRANCH  18  19
ENDBRANCH  17  18
ENDBRANCH  16  17
ENDBRANCH   1  16
TORSDOF 8
ENDMDL
MODEL 9
REMARK VINA RESULT:      -7.5      1.179      2.065
REMARK  Name = 
REMARK  9 active torsions:
REMARK  status: ('A' for Active; 'I' for Inactive)
REMARK    1  A    between atoms: C_1  and  C_2
REMARK    2  A    between atoms: N_7  and  C_8
REMARK    3  A    between atoms: C_8  and  C_9
REMARK    4  A    between atoms: C_9  and  C_10
REMARK    5  A    between atoms: C_10  and  O_11
REMARK    6  A    between atoms: O_11  and  C_12
REMARK    7  A    between atoms: C_12  and  C_14
REMARK    8  A    between atoms: C_17  and  O_18
REMARK    9  A    between atoms: O_18  and  C_19
REMARK                            x       y       z     vdW  Elec       q    Type
REMARK                         _______ _______ _______ _____ _____    ______ ____
ROOT
ATOM      1  C   UNL     1       7.735   7.091  18.018  0.00  0.00    +0.000 C 
ATOM      2  O   UNL     1       8.562   6.960  18.907  0.00  0.00    +0.000 OA
ENDROOT
BRANCH   1   3
ATOM      3  C   UNL     1       6.551   6.195  17.840  0.00  0.00    +0.000 A 
ATOM      4  C   UNL     1       5.304   6.698  17.445  0.00  0.00    +0.000 A 
ATOM      5  C   UNL     1       4.178   5.860  17.363  0.00  0.00    +0.000 A 
ATOM      6  C   UNL     1       4.272   4.504  17.677  0.00  0.00    +0.000 A 
ATOM      7  C   UNL     1       5.514   4.007  18.095  0.00  0.00    +0.000 A 
ATOM      8  C   UNL     1       6.645   4.840  18.178  0.00  0.00    +0.000 A 
BRANCH   6   9
ATOM      9  O   UNL     1       3.250   3.587  17.638  0.00  0.00    +0.000 OA
BRANCH   9  10
ATOM     10  C   UNL     1       3.158   2.596  18.678  0.00  0.00    +0.000 C 
ATOM     11  C   UNL     1       3.264   3.239  20.066  0.00  0.00    +0.000 C 
ATOM     12  C   UNL     1       2.084   4.157  20.385  0.00  0.00    +0.000 C 
ATOM     13  C   UNL     1       0.729   3.478  20.206  0.00  0.00    +0.000 C 
ATOM     14  C   UNL     1       0.597   2.708  18.896  0.00  0.00    +0.000 C 
ATOM     15  C   UNL     1       1.818   1.849  18.571  0.00  0.00    +0.000 C 
ENDBRANCH   9  10
ENDBRANCH   6   9
ENDBRANCH   1   3
BRANCH   1  16
ATOM     16  O   UNL     1       7.693   8.110  17.117  0.00  0.00    +0.000 OA
BRANCH  16  17
ATOM     17  C   UNL     1       7.591   9.431  17.682  0.00  0.00    +0.000 C 
BRANCH  17  18
ATOM     18  C   UNL     1       8.913   9.995  18.189  0.00  0.00    +0.000 C 
BRANCH  18  19
ATOM     19  C   UNL     1       8.946  11.539  18.102  0.00  0.00    +0.000 C 
BRANCH  19  26
ATOM     20  C   UNL     1      12.316  11.978  19.848  0.00  0.00    +0.000 C 
ATOM     21  C   UNL     1      10.836  11.578  19.679  0.00  0.00    +0.000 C 
ATOM     22  C   UNL     1      10.047  11.935  20.951  0.00  0.00    +0.000 C 
ATOM     23  C   UNL     1       9.899  13.445  21.119  0.00  0.00    +0.000 C 
ATOM     24  C   UNL     1       9.390  14.106  19.841  0.00  0.00    +0.000 C 
ATOM     25  C   UNL     1      10.132  13.637  18.584  0.00  0.00    +0.000 C 
ATOM     26  N   UNL     1      10.236  12.172  18.457  0.00  0.00    +0.000 NA
ENDBRANCH  19  26
ENDBRANCH  18  19
ENDBRANCH  17  18
ENDBRANCH  16  17
ENDBRANCH   1  16
TORSDOF 8
ENDMDL
