MODEL 1
REMARK VINA RESULT:      -7.6      0.000      0.000
REMARK  Name = 
REMARK  6 active torsions:
REMARK  status: ('A' for Active; 'I' for Inactive)
REMARK    1  A    between atoms: C_1  and  O_2
REMARK    2  A    between atoms: O_2  and  C_3
REMARK    3  A    between atoms: C_6  and  C_7
REMARK    4  A    between atoms: C_7  and  C_8
REMARK    5  A    between atoms: C_19  and  O_20
REMARK    6  A    between atoms: O_20  and  C_21
REMARK                            x       y       z     vdW  Elec       q    Type
REMARK                         _______ _______ _______ _____ _____    ______ ____
ROOT
ATOM      1  C   UNL     1       2.833   6.490  17.755  0.00  0.00    +0.000 C 
ENDROOT
BRANCH   1   2
ATOM      2  C   UNL     1       2.522   6.090  19.190  0.00  0.00    +0.000 C 
ATOM      3  O   UNL     1       2.675   6.850  20.154  0.00  0.00    +0.000 OA
ATOM      4  N   UNL     1       2.094   4.769  19.394  0.00  0.00    +0.000 N 
ATOM      5  N   UNL     1       2.213   4.354  20.741  0.00  0.00    +0.000 N 
ATOM      6  C   UNL     1       1.749   3.173  21.227  0.00  0.00    +0.000 A 
ATOM      7  O   UNL     1       1.932   2.805  22.380  0.00  0.00    +0.000 OA
ATOM      8  C   UNL     1       0.985   2.343  20.291  0.00  0.00    +0.000 A 
ATOM      9  C   UNL     1       0.796   2.736  19.031  0.00  0.00    +0.000 A 
ATOM     10  C   UNL     1       1.360   4.000  18.495  0.00  0.00    +0.000 A 
ATOM     11  O   UNL     1       1.158   4.254  17.314  0.00  0.00    +0.000 OA
ATOM     12  H   UNL     1       2.711   4.990  21.364  0.00  0.00    +0.000 HD
ENDBRANCH   1   2
BRANCH   1  16
ATOM     13  C   UNL     1       6.574   5.225  15.974  0.00  0.00    +0.000 A 
ATOM     14  C   UNL     1       5.488   4.337  16.046  0.00  0.00    +0.000 A 
ATOM     15  C   UNL     1       4.277   4.723  16.625  0.00  0.00    +0.000 A 
ATOM     16  C   UNL     1       4.146   5.987  17.200  0.00  0.00    +0.000 A 
ATOM     17  C   UNL     1       5.257   6.841  17.195  0.00  0.00    +0.000 A 
ATOM     18  C   UNL     1       6.475   6.475  16.599  0.00  0.00    +0.000 A 
BRANCH  13  20
ATOM     19  C   UNL     1       7.686   5.002  13.900  0.00  0.00    +0.000 C 
ATOM     20  O   UNL     1       7.729   4.884  15.321  0.00  0.00    +0.000 OA
ENDBRANCH  13  20
BRANCH  18  21
ATOM     21  O   UNL     1       7.406   7.470  16.713  0.00  0.00    +0.000 OA
ATOM     22  C   UNL     1       7.899   7.815  17.995  0.00  0.00    +0.000 C 
ENDBRANCH  18  21
ENDBRANCH   1  16
TORSDOF 4
ENDMDL
MODEL 2
REMARK VINA RESULT:      -7.4      2.294      3.467
REMARK  Name = 
REMARK  6 active torsions:
REMARK  status: ('A' for Active; 'I' for Inactive)
REMARK    1  A    between atoms: C_1  and  O_2
REMARK    2  A    between atoms: O_2  and  C_3
REMARK    3  A    between atoms: C_6  and  C_7
REMARK    4  A    between atoms: C_7  and  C_8
REMARK    5  A    between atoms: C_19  and  O_20
REMARK    6  A    between atoms: O_20  and  C_21
REMARK                            x       y       z     vdW  Elec       q    Type
REMARK                         _______ _______ _______ _____ _____    ______ ____
ROOT
ATOM      1  C   UNL     1       2.474   5.799  18.083  0.00  0.00    +0.000 C 
ENDROOT
BRANCH   1   2
ATOM      2  C   UNL     1       2.523   6.353  19.500  0.00  0.00    +0.000 C 
ATOM      3  O   UNL     1       3.070   5.765  20.440  0.00  0.00    +0.000 OA
ATOM      4  N   UNL     1       1.857   7.570  19.720  0.00  0.00    +0.000 N 
ATOM      5  N   UNL     1       1.598   7.814  21.090  0.00  0.00    +0.000 N 
ATOM      6  C   UNL     1       1.087   8.973  21.581  0.00  0.00    +0.000 A 
ATOM      7  O   UNL     1       0.801   9.131  22.761  0.00  0.00    +0.000 OA
ATOM      8  C   UNL     1       0.900  10.060  20.616  0.00  0.00    +0.000 A 
ATOM      9  C   UNL     1       1.197   9.884  19.328  0.00  0.00    +0.000 A 
ATOM     10  C   UNL     1       1.699   8.594  18.792  0.00  0.00    +0.000 A 
ATOM     11  O   UNL     1       1.910   8.527  17.588  0.00  0.00    +0.000 OA
ATOM     12  H   UNL     1       1.791   7.042  21.728  0.00  0.00    +0.000 HD
ENDBRANCH   1   2
BRANCH   1  16
ATOM     13  C   UNL     1       6.241   5.005  16.098  0.00  0.00    +0.000 A 
ATOM     14  C   UNL     1       5.307   3.972  16.283  0.00  0.00    +0.000 A 
ATOM     15  C   UNL     1       4.091   4.206  16.930  0.00  0.00    +0.000 A 
ATOM     16  C   UNL     1       3.809   5.465  17.458  0.00  0.00    +0.000 A 
ATOM     17  C   UNL     1       4.777   6.471  17.339  0.00  0.00    +0.000 A 
ATOM     18  C   UNL     1       5.996   6.257  16.675  0.00  0.00    +0.000 A 
BRANCH  13  20
ATOM     19  C   UNL     1       7.235   4.809  13.961  0.00  0.00    +0.000 C 
ATOM     20  O   UNL     1       7.390   4.803  15.380  0.00  0.00    +0.000 OA
ENDBRANCH  13  20
BRANCH  18  21
ATOM     21  O   UNL     1       6.773   7.383  16.681  0.00  0.00    +0.000 OA
ATOM     22  C   UNL     1       7.710   7.572  17.726  0.00  0.00    +0.000 C 
ENDBRANCH  18  21
ENDBRANCH   1  16
TORSDOF 4
ENDMDL
MODEL 3
REMARK VINA RESULT:      -7.4      1.637      1.994
REMARK  Name = 
REMARK  6 active torsions:
REMARK  status: ('A' for Active; 'I' for Inactive)
REMARK    1  A    between atoms: C_1  and  O_2
REMARK    2  A    between atoms: O_2  and  C_3
REMARK    3  A    between atoms: C_6  and  C_7
REMARK    4  A    between atoms: C_7  and  C_8
REMARK    5  A    between atoms: C_19  and  O_20
REMARK    6  A    between atoms: O_20  and  C_21
REMARK                            x       y       z     vdW  Elec       q    Type
REMARK                         _______ _______ _______ _____ _____    ______ ____
ROOT
ATOM      1  C   UNL     1       3.945   3.902  16.830  0.00  0.00    +0.000 C 
ENDROOT
BRANCH   1   2
ATOM      2  C   UNL     1       4.189   3.679  18.316  0.00  0.00    +0.000 C 
ATOM      3  O   UNL     1       5.316   3.664  18.823  0.00  0.00    +0.000 OA
ATOM      4  N   UNL     1       3.055   3.430  19.107  0.00  0.00    +0.000 N 
ATOM      5  N   UNL     1       3.375   2.845  20.355  0.00  0.00    +0.000 N 
ATOM      6  C   UNL     1       2.479   2.626  21.353  0.00  0.00    +0.000 A 
ATOM      7  O   UNL     1       2.765   2.049  22.394  0.00  0.00    +0.000 OA
ATOM      8  C   UNL     1       1.123   3.137  21.131  0.00  0.00    +0.000 A 
ATOM      9  C   UNL     1       0.806   3.752  19.992  0.00  0.00    +0.000 A 
ATOM     10  C   UNL     1       1.777   3.932  18.884  0.00  0.00    +0.000 A 
ATOM     11  O   UNL     1       1.377   4.482  17.866  0.00  0.00    +0.000 OA
ATOM     12  H   UNL     1       4.343   2.551  20.479  0.00  0.00    +0.000 HD
ENDBRANCH   1   2
BRANCH   1  16
ATOM     13  C   UNL     1       7.326   5.176  14.441  0.00  0.00    +0.000 A 
ATOM     14  C   UNL     1       6.507   4.121  14.004  0.00  0.00    +0.000 A 
ATOM     15  C   UNL     1       5.419   3.689  14.765  0.00  0.00    +0.000 A 
ATOM     16  C   UNL     1       5.160   4.264  16.009  0.00  0.00    +0.000 A 
ATOM     17  C   UNL     1       6.027   5.262  16.476  0.00  0.00    +0.000 A 
ATOM     18  C   UNL     1       7.114   5.721  15.714  0.00  0.00    +0.000 A 
BRANCH  13  20
ATOM     19  C   UNL     1       8.043   5.734  12.258  0.00  0.00    +0.000 C 
ATOM     20  O   UNL     1       8.334   5.666  13.654  0.00  0.00    +0.000 OA
ENDBRANCH  13  20
BRANCH  18  21
ATOM     21  O   UNL     1       7.808   6.698  16.371  0.00  0.00    +0.000 OA
ATOM     22  C   UNL     1       7.197   7.370  17.459  0.00  0.00    +0.000 C 
ENDBRANCH  18  21
ENDBRANCH   1  16
TORSDOF 4
ENDMDL
MODEL 4
REMARK VINA RESULT:      -7.3      2.450      6.426
REMARK  Name = 
REMARK  6 active torsions:
REMARK  status: ('A' for Active; 'I' for Inactive)
REMARK    1  A    between atoms: C_1  and  O_2
REMARK    2  A    between atoms: O_2  and  C_3
REMARK    3  A    between atoms: C_6  and  C_7
REMARK    4  A    between atoms: C_7  and  C_8
REMARK    5  A    between atoms: C_19  and  O_20
REMARK    6  A    between atoms: O_20  and  C_21
REMARK                            x       y       z     vdW  Elec       q    Type
REMARK                         _______ _______ _______ _____ _____    ______ ____
ROOT
ATOM      1  C   UNL     1       4.408   4.638  16.536  0.00  0.00    +0.000 C 
ENDROOT
BRANCH   1   2
ATOM      2  C   UNL     1       4.884   6.074  16.708  0.00  0.00    +0.000 C 
ATOM      3  O   UNL     1       4.263   7.051  16.271  0.00  0.00    +0.000 OA
ATOM      4  N   UNL     1       6.118   6.252  17.352  0.00  0.00    +0.000 N 
ATOM      5  N   UNL     1       6.679   7.531  17.121  0.00  0.00    +0.000 N 
ATOM      6  C   UNL     1       7.797   8.002  17.733  0.00  0.00    +0.000 A 
ATOM      7  O   UNL     1       8.305   9.082  17.459  0.00  0.00    +0.000 OA
ATOM      8  C   UNL     1       8.378   7.146  18.772  0.00  0.00    +0.000 A 
ATOM      9  C   UNL     1       7.835   5.963  19.060  0.00  0.00    +0.000 A 
ATOM     10  C   UNL     1       6.648   5.433  18.344  0.00  0.00    +0.000 A 
ATOM     11  O   UNL     1       6.246   4.320  18.663  0.00  0.00    +0.000 OA
ATOM     12  H   UNL     1       6.209   8.108  16.424  0.00  0.00    +0.000 HD
ENDBRANCH   1   2
BRANCH   1  16
ATOM     13  C   UNL     1       1.529   3.338  19.501  0.00  0.00    +0.000 A 
ATOM     14  C   UNL     1       1.929   2.468  18.472  0.00  0.00    +0.000 A 
ATOM     15  C   UNL     1       2.847   2.872  17.501  0.00  0.00    +0.000 A 
ATOM     16  C   UNL     1       3.343   4.177  17.504  0.00  0.00    +0.000 A 
ATOM     17  C   UNL     1       2.881   5.063  18.486  0.00  0.00    +0.000 A 
ATOM     18  C   UNL     1       1.972   4.666  19.480  0.00  0.00    +0.000 A 
BRANCH  13  20
ATOM     19  C   UNL     1       1.362   2.491  21.702  0.00  0.00    +0.000 C 
ATOM     20  O   UNL     1       0.704   2.914  20.509  0.00  0.00    +0.000 OA
ENDBRANCH  13  20
BRANCH  18  21
ATOM     21  O   UNL     1       1.676   5.698  20.327  0.00  0.00    +0.000 OA
ATOM     22  C   UNL     1       2.098   7.009  19.996  0.00  0.00    +0.000 C 
ENDBRANCH  18  21
ENDBRANCH   1  16
TORSDOF 4
ENDMDL
MODEL 5
REMARK VINA RESULT:      -7.2      3.162      6.520
REMARK  Name = 
REMARK  6 active torsions:
REMARK  status: ('A' for Active; 'I' for Inactive)
REMARK    1  A    between atoms: C_1  and  O_2
REMARK    2  A    between atoms: O_2  and  C_3
REMARK    3  A    between atoms: C_6  and  C_7
REMARK    4  A    between atoms: C_7  and  C_8
REMARK    5  A    between atoms: C_19  and  O_20
REMARK    6  A    between atoms: O_20  and  C_21
REMARK                            x       y       z     vdW  Elec       q    Type
REMARK                         _______ _______ _______ _____ _____    ______ ____
ROOT
ATOM      1  C   UNL     1       2.575   6.047  18.000  0.00  0.00    +0.000 C 
ENDROOT
BRANCH   1   2
ATOM      2  C   UNL     1       3.699   5.346  18.752  0.00  0.00    +0.000 C 
ATOM      3  O   UNL     1       3.504   4.444  19.575  0.00  0.00    +0.000 OA
ATOM      4  N   UNL     1       5.000   5.812  18.509  0.00  0.00    +0.000 N 
ATOM      5  N   UNL     1       5.921   5.414  19.508  0.00  0.00    +0.000 N 
ATOM      6  C   UNL     1       7.262   5.621  19.443  0.00  0.00    +0.000 A 
ATOM      7  O   UNL     1       8.028   5.335  20.355  0.00  0.00    +0.000 OA
ATOM      8  C   UNL     1       7.770   6.203  18.198  0.00  0.00    +0.000 A 
ATOM      9  C   UNL     1       6.936   6.529  17.210  0.00  0.00    +0.000 A 
ATOM     10  C   UNL     1       5.466   6.354  17.315  0.00  0.00    +0.000 A 
ATOM     11  O   UNL     1       4.784   6.715  16.364  0.00  0.00    +0.000 OA
ATOM     12  H   UNL     1       5.523   4.969  20.334  0.00  0.00    +0.000 HD
ENDBRANCH   1   2
BRANCH   1  16
ATOM     13  C   UNL     1       1.265   9.904  19.475  0.00  0.00    +0.000 A 
ATOM     14  C   UNL     1       1.742   9.773  18.159  0.00  0.00    +0.000 A 
ATOM     15  C   UNL     1       2.178   8.540  17.669  0.00  0.00    +0.000 A 
ATOM     16  C   UNL     1       2.203   7.422  18.503  0.00  0.00    +0.000 A 
ATOM     17  C   UNL     1       1.800   7.576  19.837  0.00  0.00    +0.000 A 
ATOM     18  C   UNL     1       1.341   8.804  20.339  0.00  0.00    +0.000 A 
BRANCH  13  20
ATOM     19  C   UNL     1      -0.607  11.345  19.556  0.00  0.00    +0.000 C 
ATOM     20  O   UNL     1       0.747  11.088  19.928  0.00  0.00    +0.000 OA
ENDBRANCH  13  20
BRANCH  18  21
ATOM     21  O   UNL     1       0.999   8.707  21.660  0.00  0.00    +0.000 OA
ATOM     22  C   UNL     1      -0.369   8.626  22.018  0.00  0.00    +0.000 C 
ENDBRANCH  18  21
ENDBRANCH   1  16
TORSDOF 4
ENDMDL
MODEL 6
REMARK VINA RESULT:      -7.1      1.578      2.341
REMARK  Name = 
REMARK  6 active torsions:
REMARK  status: ('A' for Active; 'I' for Inactive)
REMARK    1  A    between atoms: C_1  and  O_2
REMARK    2  A    between atoms: O_2  and  C_3
REMARK    3  A    between atoms: C_6  and  C_7
REMARK    4  A    between atoms: C_7  and  C_8
REMARK    5  A    between atoms: C_19  and  O_20
REMARK    6  A    between atoms: O_20  and  C_21
REMARK                            x       y       z     vdW  Elec       q    Type
REMARK                         _______ _______ _______ _____ _____    ______ ____
ROOT
ATOM      1  C   UNL     1       3.575   3.724  16.553  0.00  0.00    +0.000 C 
ENDROOT
BRANCH   1   2
ATOM      2  C   UNL     1       3.683   3.216  17.983  0.00  0.00    +0.000 C 
ATOM      3  O   UNL     1       4.359   2.231  18.303  0.00  0.00    +0.000 OA
ATOM      4  N   UNL     1       2.922   3.894  18.949  0.00  0.00    +0.000 N 
ATOM      5  N   UNL     1       2.752   3.146  20.138  0.00  0.00    +0.000 N 
ATOM      6  C   UNL     1       2.171   3.624  21.270  0.00  0.00    +0.000 A 
ATOM      7  O   UNL     1       1.967   2.933  22.260  0.00  0.00    +0.000 OA
ATOM      8  C   UNL     1       1.802   5.042  21.261  0.00  0.00    +0.000 A 
ATOM      9  C   UNL     1       2.010   5.792  20.179  0.00  0.00    +0.000 A 
ATOM     10  C   UNL     1       2.591   5.245  18.927  0.00  0.00    +0.000 A 
ATOM     11  O   UNL     1       2.710   6.010  17.978  0.00  0.00    +0.000 OA
ATOM     12  H   UNL     1       3.069   2.178  20.109  0.00  0.00    +0.000 HD
ENDBRANCH   1   2
BRANCH   1  16
ATOM     13  C   UNL     1       7.197   5.150  14.653  0.00  0.00    +0.000 A 
ATOM     14  C   UNL     1       6.427   4.145  14.044  0.00  0.00    +0.000 A 
ATOM     15  C   UNL     1       5.262   3.666  14.646  0.00  0.00    +0.000 A 
ATOM     16  C   UNL     1       4.873   4.139  15.899  0.00  0.00    +0.000 A 
ATOM     17  C   UNL     1       5.687   5.084  16.538  0.00  0.00    +0.000 A 
ATOM     18  C   UNL     1       6.852   5.590  15.937  0.00  0.00    +0.000 A 
BRANCH  13  20
ATOM     19  C   UNL     1       8.249   5.652  12.596  0.00  0.00    +0.000 C 
ATOM     20  O   UNL     1       8.286   5.691  14.022  0.00  0.00    +0.000 OA
ENDBRANCH  13  20
BRANCH  18  21
ATOM     21  O   UNL     1       7.474   6.502  16.744  0.00  0.00    +0.000 OA
ATOM     22  C   UNL     1       7.577   6.242  18.133  0.00  0.00    +0.000 C 
ENDBRANCH  18  21
ENDBRANCH   1  16
TORSDOF 4
ENDMDL
MODEL 7
REMARK VINA RESULT:      -7.1      2.817      6.618
REMARK  Name = 
REMARK  6 active torsions:
REMARK  status: ('A' for Active; 'I' for Inactive)
REMARK    1  A    between atoms: C_1  and  O_2
REMARK    2  A    between atoms: O_2  and  C_3
REMARK    3  A    between atoms: C_6  and  C_7
REMARK    4  A    between atoms: C_7  and  C_8
REMARK    5  A    between atoms: C_19  and  O_20
REMARK    6  A    between atoms: O_20  and  C_21
REMARK                            x       y       z     vdW  Elec       q    Type
REMARK                         _______ _______ _______ _____ _____    ______ ____
ROOT
ATOM      1  C   UNL     1       5.654   4.418  18.109  0.00  0.00    +0.000 C 
ENDROOT
BRANCH   1   2
ATOM      2  C   UNL     1       6.854   4.732  17.227  0.00  0.00    +0.000 C 
ATOM      3  O   UNL     1       7.950   5.090  17.675  0.00  0.00    +0.000 OA
ATOM      4  N   UNL     1       6.651   4.652  15.840  0.00  0.00    +0.000 N 
ATOM      5  N   UNL     1       7.648   5.330  15.099  0.00  0.00    +0.000 N 
ATOM      6  C   UNL     1       7.756   5.295  13.745  0.00  0.00    +0.000 A 
ATOM      7  O   UNL     1       8.582   5.951  13.123  0.00  0.00    +0.000 OA
ATOM      8  C   UNL     1       6.829   4.402  13.043  0.00  0.00    +0.000 A 
ATOM      9  C   UNL     1       5.921   3.698  13.717  0.00  0.00    +0.000 A 
ATOM     10  C   UNL     1       5.772   3.790  15.191  0.00  0.00    +0.000 A 
ATOM     11  O   UNL     1       4.884   3.126  15.712  0.00  0.00    +0.000 OA
ATOM     12  H   UNL     1       8.299   5.899  15.638  0.00  0.00    +0.000 HD
ENDBRANCH   1   2
BRANCH   1  16
ATOM     13  C   UNL     1       2.622   7.476  18.582  0.00  0.00    +0.000 A 
ATOM     14  C   UNL     1       3.632   7.623  17.616  0.00  0.00    +0.000 A 
ATOM     15  C   UNL     1       4.624   6.653  17.455  0.00  0.00    +0.000 A 
ATOM     16  C   UNL     1       4.662   5.542  18.298  0.00  0.00    +0.000 A 
ATOM     17  C   UNL     1       3.699   5.440  19.310  0.00  0.00    +0.000 A 
ATOM     18  C   UNL     1       2.683   6.397  19.473  0.00  0.00    +0.000 A 
BRANCH  13  20
ATOM     19  C   UNL     1       1.736   9.554  17.884  0.00  0.00    +0.000 C 
ATOM     20  O   UNL     1       1.594   8.376  18.677  0.00  0.00    +0.000 OA
ENDBRANCH  13  20
BRANCH  18  21
ATOM     21  O   UNL     1       1.861   6.081  20.518  0.00  0.00    +0.000 OA
ATOM     22  C   UNL     1       1.603   4.719  20.810  0.00  0.00    +0.000 C 
ENDBRANCH  18  21
ENDBRANCH   1  16
TORSDOF 4
ENDMDL
MODEL 8
REMARK VINA RESULT:      -7.1      2.895      6.426
REMARK  Name = 
REMARK  6 active torsions:
REMARK  status: ('A' for Active; 'I' for Inactive)
REMARK    1  A    between atoms: C_1  and  O_2
REMARK    2  A    between atoms: O_2  and  C_3
REMARK    3  A    between atoms: C_6  and  C_7
REMARK    4  A    between atoms: C_7  and  C_8
REMARK    5  A    between atoms: C_19  and  O_20
REMARK    6  A    between atoms: O_20  and  C_21
REMARK                            x       y       z     vdW  Elec       q    Type
REMARK                         _______ _______ _______ _____ _____    ______ ____
ROOT
ATOM      1  C   UNL     1       3.143   5.242  17.874  0.00  0.00    +0.000 C 
ENDROOT
BRANCH   1   2
ATOM      2  C   UNL     1       4.432   4.630  18.407  0.00  0.00    +0.000 C 
ATOM      3  O   UNL     1       4.504   3.475  18.842  0.00  0.00    +0.000 OA
ATOM      4  N   UNL     1       5.557   5.469  18.437  0.00  0.00    +0.000 N 
ATOM      5  N   UNL     1       6.577   4.988  19.293  0.00  0.00    +0.000 N 
ATOM      6  C   UNL     1       7.814   5.540  19.400  0.00  0.00    +0.000 A 
ATOM      7  O   UNL     1       8.652   5.151  20.204  0.00  0.00    +0.000 OA
ATOM      8  C   UNL     1       8.116   6.639  18.479  0.00  0.00    +0.000 A 
ATOM      9  C   UNL     1       7.199   7.073  17.614  0.00  0.00    +0.000 A 
ATOM     10  C   UNL     1       5.831   6.502  17.547  0.00  0.00    +0.000 A 
ATOM     11  O   UNL     1       5.053   6.994  16.739  0.00  0.00    +0.000 OA
ATOM     12  H   UNL     1       6.332   4.190  19.878  0.00  0.00    +0.000 HD
ENDBRANCH   1   2
BRANCH   1  16
ATOM     13  C   UNL     1       1.390   8.211  20.495  0.00  0.00    +0.000 A 
ATOM     14  C   UNL     1       1.543   6.884  20.930  0.00  0.00    +0.000 A 
ATOM     15  C   UNL     1       2.096   5.910  20.096  0.00  0.00    +0.000 A 
ATOM     16  C   UNL     1       2.455   6.230  18.787  0.00  0.00    +0.000 A 
ATOM     17  C   UNL     1       2.229   7.536  18.333  0.00  0.00    +0.000 A 
ATOM     18  C   UNL     1       1.691   8.531  19.165  0.00  0.00    +0.000 A 
BRANCH  13  20
ATOM     19  C   UNL     1      -0.317   8.925  21.967  0.00  0.00    +0.000 C 
ATOM     20  O   UNL     1       0.939   9.189  21.342  0.00  0.00    +0.000 OA
ENDBRANCH  13  20
BRANCH  18  21
ATOM     21  O   UNL     1       1.570   9.723  18.505  0.00  0.00    +0.000 OA
ATOM     22  C   UNL     1       0.281  10.187  18.144  0.00  0.00    +0.000 C 
ENDBRANCH  18  21
ENDBRANCH   1  16
TORSDOF 4
ENDMDL
MODEL 9
REMARK VINA RESULT:      -6.9      2.945      7.034
REMARK  Name = 
REMARK  6 active torsions:
REMARK  status: ('A' for Active; 'I' for Inactive)
REMARK    1  A    between atoms: C_1  and  O_2
REMARK    2  A    between atoms: O_2  and  C_3
REMARK    3  A    between atoms: C_6  and  C_7
REMARK    4  A    between atoms: C_7  and  C_8
REMARK    5  A    between atoms: C_19  and  O_20
REMARK    6  A    between atoms: O_20  and  C_21
REMARK                            x       y       z     vdW  Elec       q    Type
REMARK                         _______ _______ _______ _____ _____    ______ ____
ROOT
ATOM      1  C   UNL     1       5.298   4.012  16.625  0.00  0.00    +0.000 C 
ENDROOT
BRANCH   1   2
ATOM      2  C   UNL     1       6.670   4.414  16.102  0.00  0.00    +0.000 C 
ATOM      3  O   UNL     1       7.644   4.611  16.837  0.00  0.00    +0.000 OA
ATOM      4  N   UNL     1       6.778   4.613  14.717  0.00  0.00    +0.000 N 
ATOM      5  N   UNL     1       7.927   5.357  14.357  0.00  0.00    +0.000 N 
ATOM      6  C   UNL     1       8.333   5.575  13.079  0.00  0.00    +0.000 A 
ATOM      7  O   UNL     1       9.288   6.286  12.792  0.00  0.00    +0.000 OA
ATOM      8  C   UNL     1       7.570   4.892  12.031  0.00  0.00    +0.000 A 
ATOM      9  C   UNL     1       6.521   4.130  12.340  0.00  0.00    +0.000 A 
ATOM     10  C   UNL     1       6.050   3.947  13.736  0.00  0.00    +0.000 A 
ATOM     11  O   UNL     1       5.057   3.252  13.910  0.00  0.00    +0.000 OA
ATOM     12  H   UNL     1       8.452   5.771  15.126  0.00  0.00    +0.000 HD
ENDBRANCH   1   2
BRANCH   1  16
ATOM     13  C   UNL     1       2.790   7.065  18.402  0.00  0.00    +0.000 A 
ATOM     14  C   UNL     1       3.832   7.423  17.530  0.00  0.00    +0.000 A 
ATOM     15  C   UNL     1       4.657   6.454  16.956  0.00  0.00    +0.000 A 
ATOM     16  C   UNL     1       4.496   5.109  17.287  0.00  0.00    +0.000 A 
ATOM     17  C   UNL     1       3.507   4.765  18.217  0.00  0.00    +0.000 A 
ATOM     18  C   UNL     1       2.656   5.725  18.789  0.00  0.00    +0.000 A 
BRANCH  13  20
ATOM     19  C   UNL     1       1.613   9.076  18.002  0.00  0.00    +0.000 C 
ATOM     20  O   UNL     1       1.919   8.002  18.891  0.00  0.00    +0.000 OA
ENDBRANCH  13  20
BRANCH  18  21
ATOM     21  O   UNL     1       1.770   5.153  19.659  0.00  0.00    +0.000 OA
ATOM     22  C   UNL     1       2.218   4.753  20.942  0.00  0.00    +0.000 C 
ENDBRANCH  18  21
ENDBRANCH   1  16
TORSDOF 4
ENDMDL
