MODEL 1
REMARK VINA RESULT:      -7.2      0.000      0.000
REMARK  Name = 
REMARK  1 active torsions:
REMARK  status: ('A' for Active; 'I' for Inactive)
REMARK    1  A    between atoms: C_5  and  C_6
REMARK                            x       y       z     vdW  Elec       q    Type
REMARK                         _______ _______ _______ _____ _____    ______ ____
ROOT
ATOM      1  C   UNL     1       3.552   4.517  17.827  0.00  0.00    +0.000 C 
ATOM      2  C   UNL     1       3.578   3.045  18.283  0.00  0.00    +0.000 C 
ATOM      3  C   UNL     1       2.322   2.225  17.978  0.00  0.00    +0.000 C 
ATOM      4  C   UNL     1       1.024   2.563  18.720  0.00  0.00    +0.000 C 
ATOM      5  C   UNL     1       1.168   2.950  20.192  0.00  0.00    +0.000 C 
ATOM      6  C   UNL     1       1.110   4.457  20.462  0.00  0.00    +0.000 C 
ATOM      7  C   UNL     1       2.300   5.276  19.970  0.00  0.00    +0.000 C 
ATOM      8  C   UNL     1       2.422   5.368  18.446  0.00  0.00    +0.000 C 
ENDROOT
BRANCH   1  13
ATOM      9  C   UNL     1       6.601   6.808  17.371  0.00  0.00    +0.000 A 
ATOM     10  C   UNL     1       7.425   6.244  18.328  0.00  0.00    +0.000 A 
ATOM     11  N   UNL     1       7.037   5.251  19.154  0.00  0.00    +0.000 NA
ATOM     12  C   UNL     1       5.778   4.782  18.988  0.00  0.00    +0.000 A 
ATOM     13  C   UNL     1       4.873   5.255  18.035  0.00  0.00    +0.000 A 
ATOM     14  C   UNL     1       5.309   6.312  17.229  0.00  0.00    +0.000 A 
ENDBRANCH   1  13
TORSDOF 1
ENDMDL
MODEL 2
REMARK VINA RESULT:      -7.1      1.291      1.337
REMARK  Name = 
REMARK  1 active torsions:
REMARK  status: ('A' for Active; 'I' for Inactive)
REMARK    1  A    between atoms: C_5  and  C_6
REMARK                            x       y       z     vdW  Elec       q    Type
REMARK                         _______ _______ _______ _____ _____    ______ ____
ROOT
ATOM      1  C   UNL     1       3.275   3.850  17.627  0.00  0.00    +0.000 C 
ATOM      2  C   UNL     1       3.136   2.626  18.554  0.00  0.00    +0.000 C 
ATOM      3  C   UNL     1       1.712   2.103  18.766  0.00  0.00    +0.000 C 
ATOM      4  C   UNL     1       0.720   2.969  19.551  0.00  0.00    +0.000 C 
ATOM      5  C   UNL     1       1.287   3.728  20.752  0.00  0.00    +0.000 C 
ATOM      6  C   UNL     1       1.578   5.208  20.488  0.00  0.00    +0.000 C 
ATOM      7  C   UNL     1       2.745   5.509  19.551  0.00  0.00    +0.000 C 
ATOM      8  C   UNL     1       2.508   5.107  18.092  0.00  0.00    +0.000 C 
ENDROOT
BRANCH   1  13
ATOM      9  C   UNL     1       6.594   4.654  15.870  0.00  0.00    +0.000 A 
ATOM     10  C   UNL     1       7.422   4.628  16.977  0.00  0.00    +0.000 A 
ATOM     11  N   UNL     1       6.976   4.459  18.239  0.00  0.00    +0.000 NA
ATOM     12  C   UNL     1       5.643   4.274  18.389  0.00  0.00    +0.000 A 
ATOM     13  C   UNL     1       4.721   4.251  17.342  0.00  0.00    +0.000 A 
ATOM     14  C   UNL     1       5.228   4.471  16.056  0.00  0.00    +0.000 A 
ENDBRANCH   1  13
TORSDOF 1
ENDMDL
MODEL 3
REMARK VINA RESULT:      -7.1      0.960      1.382
REMARK  Name = 
REMARK  1 active torsions:
REMARK  status: ('A' for Active; 'I' for Inactive)
REMARK    1  A    between atoms: C_5  and  C_6
REMARK                            x       y       z     vdW  Elec       q    Type
REMARK                         _______ _______ _______ _____ _____    ______ ____
ROOT
ATOM      1  C   UNL     1       3.468   4.444  17.522  0.00  0.00    +0.000 C 
ATOM      2  C   UNL     1       3.472   3.015  18.100  0.00  0.00    +0.000 C 
ATOM      3  C   UNL     1       2.140   2.262  18.039  0.00  0.00    +0.000 C 
ATOM      4  C   UNL     1       0.979   2.749  18.914  0.00  0.00    +0.000 C 
ATOM      5  C   UNL     1       1.348   3.243  20.313  0.00  0.00    +0.000 C 
ATOM      6  C   UNL     1       1.415   4.766  20.453  0.00  0.00    +0.000 C 
ATOM      7  C   UNL     1       2.571   5.458  19.737  0.00  0.00    +0.000 C 
ATOM      8  C   UNL     1       2.487   5.419  18.207  0.00  0.00    +0.000 C 
ENDROOT
BRANCH   1  13
ATOM      9  C   UNL     1       7.063   5.511  18.357  0.00  0.00    +0.000 A 
ATOM     10  C   UNL     1       7.147   6.612  17.526  0.00  0.00    +0.000 A 
ATOM     11  N   UNL     1       6.172   6.974  16.666  0.00  0.00    +0.000 NA
ATOM     12  C   UNL     1       5.052   6.215  16.668  0.00  0.00    +0.000 A 
ATOM     13  C   UNL     1       4.847   5.102  17.486  0.00  0.00    +0.000 A 
ATOM     14  C   UNL     1       5.903   4.743  18.330  0.00  0.00    +0.000 A 
ENDBRANCH   1  13
TORSDOF 1
ENDMDL
MODEL 4
REMARK VINA RESULT:      -7.1      1.475      2.517
REMARK  Name = 
REMARK  1 active torsions:
REMARK  status: ('A' for Active; 'I' for Inactive)
REMARK    1  A    between atoms: C_5  and  C_6
REMARK                            x       y       z     vdW  Elec       q    Type
REMARK                         _______ _______ _______ _____ _____    ______ ____
ROOT
ATOM      1  C   UNL     1       4.360   4.625  19.062  0.00  0.00    +0.000 C 
ATOM      2  C   UNL     1       3.033   5.403  18.972  0.00  0.00    +0.000 C 
ATOM      3  C   UNL     1       2.170   5.407  20.237  0.00  0.00    +0.000 C 
ATOM      4  C   UNL     1       1.517   4.095  20.687  0.00  0.00    +0.000 C 
ATOM      5  C   UNL     1       0.983   3.189  19.577  0.00  0.00    +0.000 C 
ATOM      6  C   UNL     1       1.898   2.014  19.220  0.00  0.00    +0.000 C 
ATOM      7  C   UNL     1       3.205   2.366  18.516  0.00  0.00    +0.000 C 
ATOM      8  C   UNL     1       4.213   3.123  19.387  0.00  0.00    +0.000 C 
ENDROOT
BRANCH   1  13
ATOM      9  C   UNL     1       5.616   4.803  15.436  0.00  0.00    +0.000 A 
ATOM     10  C   UNL     1       6.968   4.652  15.680  0.00  0.00    +0.000 A 
ATOM     11  N   UNL     1       7.499   4.586  16.919  0.00  0.00    +0.000 NA
ATOM     12  C   UNL     1       6.629   4.641  17.954  0.00  0.00    +0.000 A 
ATOM     13  C   UNL     1       5.244   4.761  17.823  0.00  0.00    +0.000 A 
ATOM     14  C   UNL     1       4.746   4.866  16.520  0.00  0.00    +0.000 A 
ENDBRANCH   1  13
TORSDOF 1
ENDMDL
MODEL 5
REMARK VINA RESULT:      -6.8      0.838      2.171
REMARK  Name = 
REMARK  1 active torsions:
REMARK  status: ('A' for Active; 'I' for Inactive)
REMARK    1  A    between atoms: C_5  and  C_6
REMARK                            x       y       z     vdW  Elec       q    Type
REMARK                         _______ _______ _______ _____ _____    ______ ____
ROOT
ATOM      1  C   UNL     1       4.008   4.796  19.640  0.00  0.00    +0.000 C 
ATOM      2  C   UNL     1       2.585   5.375  19.518  0.00  0.00    +0.000 C 
ATOM      3  C   UNL     1       1.525   4.751  20.429  0.00  0.00    +0.000 C 
ATOM      4  C   UNL     1       1.094   3.302  20.172  0.00  0.00    +0.000 C 
ATOM      5  C   UNL     1       0.975   2.882  18.706  0.00  0.00    +0.000 C 
ATOM      6  C   UNL     1       2.166   2.080  18.177  0.00  0.00    +0.000 C 
ATOM      7  C   UNL     1       3.476   2.846  18.011  0.00  0.00    +0.000 C 
ATOM      8  C   UNL     1       4.124   3.288  19.327  0.00  0.00    +0.000 C 
ENDROOT
BRANCH   1  13
ATOM      9  C   UNL     1       5.785   6.754  16.854  0.00  0.00    +0.000 A 
ATOM     10  C   UNL     1       7.091   6.526  17.246  0.00  0.00    +0.000 A 
ATOM     11  N   UNL     1       7.427   5.870  18.376  0.00  0.00    +0.000 NA
ATOM     12  C   UNL     1       6.406   5.393  19.125  0.00  0.00    +0.000 A 
ATOM     13  C   UNL     1       5.053   5.538  18.810  0.00  0.00    +0.000 A 
ATOM     14  C   UNL     1       4.755   6.261  17.650  0.00  0.00    +0.000 A 
ENDBRANCH   1  13
TORSDOF 1
ENDMDL
MODEL 6
REMARK VINA RESULT:      -6.8      1.155      2.513
REMARK  Name = 
REMARK  1 active torsions:
REMARK  status: ('A' for Active; 'I' for Inactive)
REMARK    1  A    between atoms: C_5  and  C_6
REMARK                            x       y       z     vdW  Elec       q    Type
REMARK                         _______ _______ _______ _____ _____    ______ ____
ROOT
ATOM      1  C   UNL     1       4.369   4.889  19.603  0.00  0.00    +0.000 C 
ATOM      2  C   UNL     1       3.015   5.599  19.404  0.00  0.00    +0.000 C 
ATOM      3  C   UNL     1       1.859   5.096  20.273  0.00  0.00    +0.000 C 
ATOM      4  C   UNL     1       1.303   3.690  20.016  0.00  0.00    +0.000 C 
ATOM      5  C   UNL     1       1.212   3.255  18.553  0.00  0.00    +0.000 C 
ATOM      6  C   UNL     1       2.345   2.333  18.093  0.00  0.00    +0.000 C 
ATOM      7  C   UNL     1       3.728   2.968  17.979  0.00  0.00    +0.000 C 
ATOM      8  C   UNL     1       4.354   3.372  19.318  0.00  0.00    +0.000 C 
ENDROOT
BRANCH   1  13
ATOM      9  C   UNL     1       7.806   6.243  18.552  0.00  0.00    +0.000 A 
ATOM     10  C   UNL     1       7.409   6.974  17.448  0.00  0.00    +0.000 A 
ATOM     11  N   UNL     1       6.144   6.987  16.978  0.00  0.00    +0.000 NA
ATOM     12  C   UNL     1       5.234   6.261  17.669  0.00  0.00    +0.000 A 
ATOM     13  C   UNL     1       5.518   5.512  18.813  0.00  0.00    +0.000 A 
ATOM     14  C   UNL     1       6.851   5.498  19.237  0.00  0.00    +0.000 A 
ENDBRANCH   1  13
TORSDOF 1
ENDMDL
MODEL 7
REMARK VINA RESULT:      -6.8      1.581      1.682
REMARK  Name = 
REMARK  1 active torsions:
REMARK  status: ('A' for Active; 'I' for Inactive)
REMARK    1  A    between atoms: C_5  and  C_6
REMARK                            x       y       z     vdW  Elec       q    Type
REMARK                         _______ _______ _______ _____ _____    ______ ____
ROOT
ATOM      1  C   UNL     1       2.867   4.196  17.522  0.00  0.00    +0.000 C 
ATOM      2  C   UNL     1       2.886   2.837  18.250  0.00  0.00    +0.000 C 
ATOM      3  C   UNL     1       1.523   2.279  18.668  0.00  0.00    +0.000 C 
ATOM      4  C   UNL     1       0.739   3.002  19.770  0.00  0.00    +0.000 C 
ATOM      5  C   UNL     1       1.563   3.559  20.932  0.00  0.00    +0.000 C 
ATOM      6  C   UNL     1       1.837   5.063  20.853  0.00  0.00    +0.000 C 
ATOM      7  C   UNL     1       2.794   5.518  19.754  0.00  0.00    +0.000 C 
ATOM      8  C   UNL     1       2.250   5.357  18.331  0.00  0.00    +0.000 C 
ENDROOT
BRANCH   1  13
ATOM      9  C   UNL     1       5.799   6.305  16.217  0.00  0.00    +0.000 A 
ATOM     10  C   UNL     1       6.599   5.278  15.753  0.00  0.00    +0.000 A 
ATOM     11  N   UNL     1       6.301   3.972  15.910  0.00  0.00    +0.000 NA
ATOM     12  C   UNL     1       5.132   3.688  16.530  0.00  0.00    +0.000 A 
ATOM     13  C   UNL     1       4.234   4.644  17.010  0.00  0.00    +0.000 A 
ATOM     14  C   UNL     1       4.608   5.984  16.859  0.00  0.00    +0.000 A 
ENDBRANCH   1  13
TORSDOF 1
ENDMDL
MODEL 8
REMARK VINA RESULT:      -6.7      1.966      2.476
REMARK  Name = 
REMARK  1 active torsions:
REMARK  status: ('A' for Active; 'I' for Inactive)
REMARK    1  A    between atoms: C_5  and  C_6
REMARK                            x       y       z     vdW  Elec       q    Type
REMARK                         _______ _______ _______ _____ _____    ______ ____
ROOT
ATOM      1  C   UNL     1       3.746   5.036  17.709  0.00  0.00    +0.000 C 
ATOM      2  C   UNL     1       2.562   4.134  17.307  0.00  0.00    +0.000 C 
ATOM      3  C   UNL     1       1.324   4.212  18.205  0.00  0.00    +0.000 C 
ATOM      4  C   UNL     1       1.418   3.668  19.636  0.00  0.00    +0.000 C 
ATOM      5  C   UNL     1       2.238   2.392  19.822  0.00  0.00    +0.000 C 
ATOM      6  C   UNL     1       3.652   2.619  20.365  0.00  0.00    +0.000 C 
ATOM      7  C   UNL     1       4.637   3.298  19.417  0.00  0.00    +0.000 C 
ATOM      8  C   UNL     1       4.320   4.766  19.116  0.00  0.00    +0.000 C 
ENDROOT
BRANCH   1  13
ATOM      9  C   UNL     1       6.213   4.021  14.945  0.00  0.00    +0.000 A 
ATOM     10  C   UNL     1       7.214   4.933  15.219  0.00  0.00    +0.000 A 
ATOM     11  N   UNL     1       7.110   5.893  16.162  0.00  0.00    +0.000 NA
ATOM     12  C   UNL     1       5.964   5.913  16.881  0.00  0.00    +0.000 A 
ATOM     13  C   UNL     1       4.902   5.022  16.711  0.00  0.00    +0.000 A 
ATOM     14  C   UNL     1       5.041   4.071  15.694  0.00  0.00    +0.000 A 
ENDBRANCH   1  13
TORSDOF 1
ENDMDL
MODEL 9
REMARK VINA RESULT:      -6.7      1.748      2.888
REMARK  Name = 
REMARK  1 active torsions:
REMARK  status: ('A' for Active; 'I' for Inactive)
REMARK    1  A    between atoms: C_5  and  C_6
REMARK                            x       y       z     vdW  Elec       q    Type
REMARK                         _______ _______ _______ _____ _____    ______ ____
ROOT
ATOM      1  C   UNL     1       3.999   4.518  18.568  0.00  0.00    +0.000 C 
ATOM      2  C   UNL     1       2.788   5.416  18.886  0.00  0.00    +0.000 C 
ATOM      3  C   UNL     1       2.228   5.312  20.307  0.00  0.00    +0.000 C 
ATOM      4  C   UNL     1       1.535   4.011  20.731  0.00  0.00    +0.000 C 
ATOM      5  C   UNL     1       0.667   3.331  19.672  0.00  0.00    +0.000 C 
ATOM      6  C   UNL     1       1.332   2.144  18.971  0.00  0.00    +0.000 C 
ATOM      7  C   UNL     1       2.488   2.477  18.031  0.00  0.00    +0.000 C 
ATOM      8  C   UNL     1       3.745   3.004  18.730  0.00  0.00    +0.000 C 
ENDROOT
BRANCH   1  13
ATOM      9  C   UNL     1       5.872   4.081  15.243  0.00  0.00    +0.000 A 
ATOM     10  C   UNL     1       5.942   5.411  14.872  0.00  0.00    +0.000 A 
ATOM     11  N   UNL     1       5.360   6.410  15.566  0.00  0.00    +0.000 NA
ATOM     12  C   UNL     1       4.708   6.060  16.699  0.00  0.00    +0.000 A 
ATOM     13  C   UNL     1       4.601   4.755  17.184  0.00  0.00    +0.000 A 
ATOM     14  C   UNL     1       5.187   3.749  16.408  0.00  0.00    +0.000 A 
ENDBRANCH   1  13
TORSDOF 1
ENDMDL
