MODEL 1
REMARK VINA RESULT:      -8.2      0.000      0.000
REMARK  Name = 
REMARK  7 active torsions:
REMARK  status: ('A' for Active; 'I' for Inactive)
REMARK    1  A    between atoms: C_1  and  C_2
REMARK    2  A    between atoms: N_5  and  C_6
REMARK    3  A    between atoms: C_6  and  C_7
REMARK    4  A    between atoms: C_10  and  N_11
REMARK    5  A    between atoms: N_11  and  C_12
REMARK    6  A    between atoms: C_12  and  C_13
REMARK    7  A    between atoms: C_20  and  O_21
REMARK                            x       y       z     vdW  Elec       q    Type
REMARK                         _______ _______ _______ _____ _____    ______ ____
ROOT
ATOM      1  C   UNL     1       5.089   5.730  18.214  0.00  0.00    +0.000 C 
ATOM      2  O   UNL     1       5.575   6.771  17.336  0.00  0.00    +0.000 OA
ATOM      3  C   UNL     1       7.009   6.763  17.385  0.00  0.00    +0.000 C 
ATOM      4  C   UNL     1       7.453   5.324  17.674  0.00  0.00    +0.000 C 
ATOM      5  C   UNL     1       6.314   4.894  18.623  0.00  0.00    +0.000 C 
ENDROOT
BRANCH   4   6
ATOM      6  N   UNL     1       7.624   4.510  16.441  0.00  0.00    +0.000 NA
ATOM      7  H   UNL     1       8.568   4.119  16.432  0.00  0.00    +0.000 HD
BRANCH   6   8
ATOM      8  C   UNL     1       7.486   5.360  15.239  0.00  0.00    +0.000 C 
BRANCH   8   9
ATOM      9  C   UNL     1       6.776   4.710  14.065  0.00  0.00    +0.000 A 
ATOM     10  C   UNL     1       7.449   4.441  12.864  0.00  0.00    +0.000 A 
ATOM     11  C   UNL     1       6.836   3.688  11.856  0.00  0.00    +0.000 A 
ATOM     12  C   UNL     1       5.552   3.198  12.044  0.00  0.00    +0.000 A 
ATOM     13  F   UNL     1       4.977   2.451  11.090  0.00  0.00    +0.000 F 
ATOM     14  C   UNL     1       4.860   3.457  13.219  0.00  0.00    +0.000 A 
ATOM     15  C   UNL     1       5.472   4.206  14.228  0.00  0.00    +0.000 A 
ENDBRANCH   8   9
ENDBRANCH   6   8
ENDBRANCH   4   6
BRANCH   5  16
ATOM     16  O   UNL     1       6.712   5.264  19.968  0.00  0.00    +0.000 OA
ATOM     17  H   UNL     1       7.062   4.472  20.420  0.00  0.00    +0.000 HD
ENDBRANCH   5  16
BRANCH   1  18
ATOM     18  C   UNL     1       3.920   4.964  17.535  0.00  0.00    +0.000 C 
BRANCH  18  23
ATOM     19  C   UNL     1       1.257   2.874  21.344  0.00  0.00    +0.000 C 
ATOM     20  C   UNL     1       1.280   3.917  20.228  0.00  0.00    +0.000 C 
ATOM     21  C   UNL     1       1.553   3.267  18.872  0.00  0.00    +0.000 C 
ATOM     22  C   UNL     1       1.525   4.338  17.779  0.00  0.00    +0.000 C 
ATOM     23  N   UNL     1       2.557   5.370  17.935  0.00  0.00    +0.000 NA
ATOM     24  C   UNL     1       2.495   5.973  19.282  0.00  0.00    +0.000 C 
ATOM     25  C   UNL     1       2.324   5.013  20.477  0.00  0.00    +0.000 C 
ENDBRANCH  18  23
ENDBRANCH   1  18
TORSDOF 6
ENDMDL
MODEL 2
REMARK VINA RESULT:      -8.0      3.513      6.900
REMARK  Name = 
REMARK  7 active torsions:
REMARK  status: ('A' for Active; 'I' for Inactive)
REMARK    1  A    between atoms: C_1  and  C_2
REMARK    2  A    between atoms: N_5  and  C_6
REMARK    3  A    between atoms: C_6  and  C_7
REMARK    4  A    between atoms: C_10  and  N_11
REMARK    5  A    between atoms: N_11  and  C_12
REMARK    6  A    between atoms: C_12  and  C_13
REMARK    7  A    between atoms: C_20  and  O_21
REMARK                            x       y       z     vdW  Elec       q    Type
REMARK                         _______ _______ _______ _____ _____    ______ ____
ROOT
ATOM      1  C   UNL     1       3.957   3.038  17.832  0.00  0.00    +0.000 C 
ATOM      2  O   UNL     1       2.685   2.375  17.644  0.00  0.00    +0.000 OA
ATOM      3  C   UNL     1       2.215   1.939  18.928  0.00  0.00    +0.000 C 
ATOM      4  C   UNL     1       2.757   2.918  19.975  0.00  0.00    +0.000 C 
ATOM      5  C   UNL     1       4.136   3.220  19.349  0.00  0.00    +0.000 C 
ENDROOT
BRANCH   4   6
ATOM      6  N   UNL     1       1.865   4.087  20.195  0.00  0.00    +0.000 NA
ATOM      7  H   UNL     1       1.360   4.285  19.328  0.00  0.00    +0.000 HD
BRANCH   6   8
ATOM      8  C   UNL     1       2.660   5.288  20.528  0.00  0.00    +0.000 C 
BRANCH   8   9
ATOM      9  C   UNL     1       2.170   6.582  19.903  0.00  0.00    +0.000 A 
ATOM     10  C   UNL     1       1.504   7.553  20.665  0.00  0.00    +0.000 A 
ATOM     11  C   UNL     1       1.212   8.809  20.122  0.00  0.00    +0.000 A 
ATOM     12  C   UNL     1       1.587   9.103  18.820  0.00  0.00    +0.000 A 
ATOM     13  F   UNL     1       1.334  10.317  18.310  0.00  0.00    +0.000 F 
ATOM     14  C   UNL     1       2.240   8.157  18.040  0.00  0.00    +0.000 A 
ATOM     15  C   UNL     1       2.534   6.903  18.582  0.00  0.00    +0.000 A 
ENDBRANCH   8   9
ENDBRANCH   6   8
ENDBRANCH   4   6
BRANCH   5  16
ATOM     16  O   UNL     1       5.060   2.216  19.841  0.00  0.00    +0.000 OA
ATOM     17  H   UNL     1       5.048   2.230  20.816  0.00  0.00    +0.000 HD
ENDBRANCH   5  16
BRANCH   1  18
ATOM     18  C   UNL     1       4.019   4.325  16.965  0.00  0.00    +0.000 C 
BRANCH  18  23
ATOM     19  C   UNL     1       7.850   7.497  18.074  0.00  0.00    +0.000 C 
ATOM     20  C   UNL     1       7.294   6.463  17.095  0.00  0.00    +0.000 C 
ATOM     21  C   UNL     1       5.918   6.878  16.579  0.00  0.00    +0.000 C 
ATOM     22  C   UNL     1       5.417   5.839  15.572  0.00  0.00    +0.000 C 
ATOM     23  N   UNL     1       5.235   4.500  16.145  0.00  0.00    +0.000 NA
ATOM     24  C   UNL     1       6.469   4.047  16.820  0.00  0.00    +0.000 C 
ATOM     25  C   UNL     1       7.194   5.066  17.722  0.00  0.00    +0.000 C 
ENDBRANCH  18  23
ENDBRANCH   1  18
TORSDOF 6
ENDMDL
MODEL 3
REMARK VINA RESULT:      -7.9      3.474      6.772
REMARK  Name = 
REMARK  7 active torsions:
REMARK  status: ('A' for Active; 'I' for Inactive)
REMARK    1  A    between atoms: C_1  and  C_2
REMARK    2  A    between atoms: N_5  and  C_6
REMARK    3  A    between atoms: C_6  and  C_7
REMARK    4  A    between atoms: C_10  and  N_11
REMARK    5  A    between atoms: N_11  and  C_12
REMARK    6  A    between atoms: C_12  and  C_13
REMARK    7  A    between atoms: C_20  and  O_21
REMARK                            x       y       z     vdW  Elec       q    Type
REMARK                         _______ _______ _______ _____ _____    ______ ____
ROOT
ATOM      1  C   UNL     1       3.934   3.101  17.781  0.00  0.00    +0.000 C 
ATOM      2  O   UNL     1       2.678   2.419  17.563  0.00  0.00    +0.000 OA
ATOM      3  C   UNL     1       2.188   1.967  18.835  0.00  0.00    +0.000 C 
ATOM      4  C   UNL     1       2.694   2.948  19.899  0.00  0.00    +0.000 C 
ATOM      5  C   UNL     1       4.080   3.276  19.303  0.00  0.00    +0.000 C 
ENDROOT
BRANCH   4   6
ATOM      6  N   UNL     1       1.778   4.102  20.108  0.00  0.00    +0.000 NA
ATOM      7  H   UNL     1       1.419   4.406  19.201  0.00  0.00    +0.000 HD
BRANCH   6   8
ATOM      8  C   UNL     1       2.511   5.241  20.699  0.00  0.00    +0.000 C 
BRANCH   8   9
ATOM      9  C   UNL     1       2.310   6.573  19.999  0.00  0.00    +0.000 A 
ATOM     10  C   UNL     1       2.686   6.758  18.661  0.00  0.00    +0.000 A 
ATOM     11  C   UNL     1       2.338   7.929  17.977  0.00  0.00    +0.000 A 
ATOM     12  C   UNL     1       1.613   8.918  18.625  0.00  0.00    +0.000 A 
ATOM     13  F   UNL     1       1.254  10.026  17.961  0.00  0.00    +0.000 F 
ATOM     14  C   UNL     1       1.236   8.765  19.953  0.00  0.00    +0.000 A 
ATOM     15  C   UNL     1       1.580   7.595  20.635  0.00  0.00    +0.000 A 
ENDBRANCH   8   9
ENDBRANCH   6   8
ENDBRANCH   4   6
BRANCH   5  16
ATOM     16  O   UNL     1       5.010   2.283  19.807  0.00  0.00    +0.000 OA
ATOM     17  H   UNL     1       5.261   1.689  19.075  0.00  0.00    +0.000 HD
ENDBRANCH   5  16
BRANCH   1  18
ATOM     18  C   UNL     1       3.994   4.395  16.924  0.00  0.00    +0.000 C 
BRANCH  18  23
ATOM     19  C   UNL     1       7.913   7.381  18.225  0.00  0.00    +0.000 C 
ATOM     20  C   UNL     1       7.329   6.426  17.185  0.00  0.00    +0.000 C 
ATOM     21  C   UNL     1       5.965   6.911  16.696  0.00  0.00    +0.000 C 
ATOM     22  C   UNL     1       5.437   5.951  15.627  0.00  0.00    +0.000 C 
ATOM     23  N   UNL     1       5.216   4.585  16.116  0.00  0.00    +0.000 NA
ATOM     24  C   UNL     1       6.435   4.056  16.760  0.00  0.00    +0.000 C 
ATOM     25  C   UNL     1       7.188   4.996  17.723  0.00  0.00    +0.000 C 
ENDBRANCH  18  23
ENDBRANCH   1  18
TORSDOF 6
ENDMDL
MODEL 4
REMARK VINA RESULT:      -7.9      0.158      1.017
REMARK  Name = 
REMARK  7 active torsions:
REMARK  status: ('A' for Active; 'I' for Inactive)
REMARK    1  A    between atoms: C_1  and  C_2
REMARK    2  A    between atoms: N_5  and  C_6
REMARK    3  A    between atoms: C_6  and  C_7
REMARK    4  A    between atoms: C_10  and  N_11
REMARK    5  A    between atoms: N_11  and  C_12
REMARK    6  A    between atoms: C_12  and  C_13
REMARK    7  A    between atoms: C_20  and  O_21
REMARK                            x       y       z     vdW  Elec       q    Type
REMARK                         _______ _______ _______ _____ _____    ______ ____
ROOT
ATOM      1  C   UNL     1       5.157   5.759  18.236  0.00  0.00    +0.000 C 
ATOM      2  O   UNL     1       5.585   6.784  17.311  0.00  0.00    +0.000 OA
ATOM      3  C   UNL     1       7.020   6.825  17.323  0.00  0.00    +0.000 C 
ATOM      4  C   UNL     1       7.519   5.413  17.650  0.00  0.00    +0.000 C 
ATOM      5  C   UNL     1       6.419   4.979  18.643  0.00  0.00    +0.000 C 
ENDROOT
BRANCH   4   6
ATOM      6  N   UNL     1       7.688   4.562  16.443  0.00  0.00    +0.000 NA
ATOM      7  H   UNL     1       8.676   4.320  16.345  0.00  0.00    +0.000 HD
BRANCH   6   8
ATOM      8  C   UNL     1       7.291   5.306  15.228  0.00  0.00    +0.000 C 
BRANCH   8   9
ATOM      9  C   UNL     1       6.652   4.467  14.136  0.00  0.00    +0.000 A 
ATOM     10  C   UNL     1       5.308   4.073  14.211  0.00  0.00    +0.000 A 
ATOM     11  C   UNL     1       4.685   3.451  13.123  0.00  0.00    +0.000 A 
ATOM     12  C   UNL     1       5.399   3.223  11.956  0.00  0.00    +0.000 A 
ATOM     13  F   UNL     1       4.793   2.654  10.904  0.00  0.00    +0.000 F 
ATOM     14  C   UNL     1       6.734   3.593  11.858  0.00  0.00    +0.000 A 
ATOM     15  C   UNL     1       7.356   4.217  12.943  0.00  0.00    +0.000 A 
ENDBRANCH   8   9
ENDBRANCH   6   8
ENDBRANCH   4   6
BRANCH   5  16
ATOM     16  O   UNL     1       6.837   5.410  19.964  0.00  0.00    +0.000 OA
ATOM     17  H   UNL     1       6.270   6.153  20.245  0.00  0.00    +0.000 HD
ENDBRANCH   5  16
BRANCH   1  18
ATOM     18  C   UNL     1       3.998   4.931  17.615  0.00  0.00    +0.000 C 
BRANCH  18  23
ATOM     19  C   UNL     1       1.250   2.816  21.349  0.00  0.00    +0.000 C 
ATOM     20  C   UNL     1       1.300   3.871  20.244  0.00  0.00    +0.000 C 
ATOM     21  C   UNL     1       1.596   3.234  18.888  0.00  0.00    +0.000 C 
ATOM     22  C   UNL     1       1.596   4.316  17.806  0.00  0.00    +0.000 C 
ATOM     23  N   UNL     1       2.630   5.340  17.993  0.00  0.00    +0.000 NA
ATOM     24  C   UNL     1       2.545   5.929  19.345  0.00  0.00    +0.000 C 
ATOM     25  C   UNL     1       2.346   4.958  20.526  0.00  0.00    +0.000 C 
ENDBRANCH  18  23
ENDBRANCH   1  18
TORSDOF 6
ENDMDL
MODEL 5
REMARK VINA RESULT:      -7.9      3.656      6.946
REMARK  Name = 
REMARK  7 active torsions:
REMARK  status: ('A' for Active; 'I' for Inactive)
REMARK    1  A    between atoms: C_1  and  C_2
REMARK    2  A    between atoms: N_5  and  C_6
REMARK    3  A    between atoms: C_6  and  C_7
REMARK    4  A    between atoms: C_10  and  N_11
REMARK    5  A    between atoms: N_11  and  C_12
REMARK    6  A    between atoms: C_12  and  C_13
REMARK    7  A    between atoms: C_20  and  O_21
REMARK                            x       y       z     vdW  Elec       q    Type
REMARK                         _______ _______ _______ _____ _____    ______ ____
ROOT
ATOM      1  C   UNL     1       4.579   3.220  19.274  0.00  0.00    +0.000 C 
ATOM      2  O   UNL     1       3.773   2.777  18.157  0.00  0.00    +0.000 OA
ATOM      3  C   UNL     1       2.576   2.182  18.679  0.00  0.00    +0.000 C 
ATOM      4  C   UNL     1       2.259   2.873  20.010  0.00  0.00    +0.000 C 
ATOM      5  C   UNL     1       3.696   3.097  20.528  0.00  0.00    +0.000 C 
ENDROOT
BRANCH   4   6
ATOM      6  N   UNL     1       1.421   4.091  19.847  0.00  0.00    +0.000 NA
ATOM      7  H   UNL     1       1.460   4.390  18.871  0.00  0.00    +0.000 HD
BRANCH   6   8
ATOM      8  C   UNL     1       1.954   5.198  20.670  0.00  0.00    +0.000 C 
BRANCH   8   9
ATOM      9  C   UNL     1       2.009   6.549  19.980  0.00  0.00    +0.000 A 
ATOM     10  C   UNL     1       2.448   6.673  18.654  0.00  0.00    +0.000 A 
ATOM     11  C   UNL     1       2.331   7.891  17.974  0.00  0.00    +0.000 A 
ATOM     12  C   UNL     1       1.773   8.988  18.614  0.00  0.00    +0.000 A 
ATOM     13  F   UNL     1       1.633  10.146  17.953  0.00  0.00    +0.000 F 
ATOM     14  C   UNL     1       1.339   8.895  19.930  0.00  0.00    +0.000 A 
ATOM     15  C   UNL     1       1.453   7.679  20.608  0.00  0.00    +0.000 A 
ENDBRANCH   8   9
ENDBRANCH   6   8
ENDBRANCH   4   6
BRANCH   5  16
ATOM     16  O   UNL     1       4.079   1.906  21.263  0.00  0.00    +0.000 OA
ATOM     17  H   UNL     1       5.025   1.972  21.495  0.00  0.00    +0.000 HD
ENDBRANCH   5  16
BRANCH   1  18
ATOM     18  C   UNL     1       5.175   4.623  18.978  0.00  0.00    +0.000 C 
BRANCH  18  23
ATOM     19  C   UNL     1       7.880   8.772  17.780  0.00  0.00    +0.000 C 
ATOM     20  C   UNL     1       7.608   7.298  17.481  0.00  0.00    +0.000 C 
ATOM     21  C   UNL     1       6.136   7.068  17.143  0.00  0.00    +0.000 C 
ATOM     22  C   UNL     1       5.914   5.591  16.809  0.00  0.00    +0.000 C 
ATOM     23  N   UNL     1       6.208   4.682  17.924  0.00  0.00    +0.000 NA
ATOM     24  C   UNL     1       7.569   4.919  18.448  0.00  0.00    +0.000 C 
ATOM     25  C   UNL     1       8.001   6.385  18.650  0.00  0.00    +0.000 C 
ENDBRANCH  18  23
ENDBRANCH   1  18
TORSDOF 6
ENDMDL
MODEL 6
REMARK VINA RESULT:      -7.6      3.508      7.089
REMARK  Name = 
REMARK  7 active torsions:
REMARK  status: ('A' for Active; 'I' for Inactive)
REMARK    1  A    between atoms: C_1  and  C_2
REMARK    2  A    between atoms: N_5  and  C_6
REMARK    3  A    between atoms: C_6  and  C_7
REMARK    4  A    between atoms: C_10  and  N_11
REMARK    5  A    between atoms: N_11  and  C_12
REMARK    6  A    between atoms: C_12  and  C_13
REMARK    7  A    between atoms: C_20  and  O_21
REMARK                            x       y       z     vdW  Elec       q    Type
REMARK                         _______ _______ _______ _____ _____    ______ ____
ROOT
ATOM      1  C   UNL     1       3.512   2.356  19.926  0.00  0.00    +0.000 C 
ATOM      2  O   UNL     1       2.469   1.990  18.993  0.00  0.00    +0.000 OA
ATOM      3  C   UNL     1       1.204   2.314  19.588  0.00  0.00    +0.000 C 
ATOM      4  C   UNL     1       1.424   3.514  20.517  0.00  0.00    +0.000 C 
ATOM      5  C   UNL     1       2.835   3.170  21.043  0.00  0.00    +0.000 C 
ENDROOT
BRANCH   4   6
ATOM      6  N   UNL     1       1.282   4.821  19.822  0.00  0.00    +0.000 NA
ATOM      7  H   UNL     1       1.706   4.751  18.895  0.00  0.00    +0.000 HD
BRANCH   6   8
ATOM      8  C   UNL     1       2.003   5.879  20.561  0.00  0.00    +0.000 C 
BRANCH   8   9
ATOM      9  C   UNL     1       1.953   7.258  19.929  0.00  0.00    +0.000 A 
ATOM     10  C   UNL     1       2.414   7.479  18.623  0.00  0.00    +0.000 A 
ATOM     11  C   UNL     1       2.204   8.710  17.991  0.00  0.00    +0.000 A 
ATOM     12  C   UNL     1       1.531   9.724  18.658  0.00  0.00    +0.000 A 
ATOM     13  F   UNL     1       1.304  10.892  18.042  0.00  0.00    +0.000 F 
ATOM     14  C   UNL     1       1.073   9.535  19.955  0.00  0.00    +0.000 A 
ATOM     15  C   UNL     1       1.279   8.305  20.586  0.00  0.00    +0.000 A 
ENDBRANCH   8   9
ENDBRANCH   6   8
ENDBRANCH   4   6
BRANCH   5  16
ATOM     16  O   UNL     1       2.665   2.325  22.209  0.00  0.00    +0.000 OA
ATOM     17  H   UNL     1       1.847   1.804  22.102  0.00  0.00    +0.000 HD
ENDBRANCH   5  16
BRANCH   1  18
ATOM     18  C   UNL     1       4.682   3.047  19.174  0.00  0.00    +0.000 C 
BRANCH  18  23
ATOM     19  C   UNL     1       7.063   4.875  15.056  0.00  0.00    +0.000 C 
ATOM     20  C   UNL     1       5.975   5.102  16.105  0.00  0.00    +0.000 C 
ATOM     21  C   UNL     1       6.554   5.053  17.518  0.00  0.00    +0.000 C 
ATOM     22  C   UNL     1       5.442   5.327  18.534  0.00  0.00    +0.000 C 
ATOM     23  N   UNL     1       4.365   4.331  18.515  0.00  0.00    +0.000 NA
ATOM     24  C   UNL     1       3.822   4.172  17.150  0.00  0.00    +0.000 C 
ATOM     25  C   UNL     1       4.838   4.079  15.994  0.00  0.00    +0.000 C 
ENDBRANCH  18  23
ENDBRANCH   1  18
TORSDOF 6
ENDMDL
MODEL 7
REMARK VINA RESULT:      -7.4      3.414      5.153
REMARK  Name = 
REMARK  7 active torsions:
REMARK  status: ('A' for Active; 'I' for Inactive)
REMARK    1  A    between atoms: C_1  and  C_2
REMARK    2  A    between atoms: N_5  and  C_6
REMARK    3  A    between atoms: C_6  and  C_7
REMARK    4  A    between atoms: C_10  and  N_11
REMARK    5  A    between atoms: N_11  and  C_12
REMARK    6  A    between atoms: C_12  and  C_13
REMARK    7  A    between atoms: C_20  and  O_21
REMARK                            x       y       z     vdW  Elec       q    Type
REMARK                         _______ _______ _______ _____ _____    ______ ____
ROOT
ATOM      1  C   UNL     1       2.087   3.674  19.693  0.00  0.00    +0.000 C 
ATOM      2  O   UNL     1       3.487   3.700  20.056  0.00  0.00    +0.000 OA
ATOM      3  C   UNL     1       4.203   2.866  19.133  0.00  0.00    +0.000 C 
ATOM      4  C   UNL     1       3.450   2.903  17.798  0.00  0.00    +0.000 C 
ATOM      5  C   UNL     1       2.001   2.974  18.326  0.00  0.00    +0.000 C 
ENDROOT
BRANCH   4   6
ATOM      6  N   UNL     1       3.884   4.020  16.917  0.00  0.00    +0.000 NA
ATOM      7  H   UNL     1       3.323   4.004  16.063  0.00  0.00    +0.000 HD
BRANCH   6   8
ATOM      8  C   UNL     1       5.298   3.845  16.521  0.00  0.00    +0.000 C 
BRANCH   8   9
ATOM      9  C   UNL     1       6.245   4.926  17.010  0.00  0.00    +0.000 A 
ATOM     10  C   UNL     1       6.093   6.262  16.612  0.00  0.00    +0.000 A 
ATOM     11  C   UNL     1       6.860   7.274  17.202  0.00  0.00    +0.000 A 
ATOM     12  C   UNL     1       7.779   6.956  18.191  0.00  0.00    +0.000 A 
ATOM     13  F   UNL     1       8.492   7.929  18.777  0.00  0.00    +0.000 F 
ATOM     14  C   UNL     1       7.956   5.640  18.597  0.00  0.00    +0.000 A 
ATOM     15  C   UNL     1       7.189   4.630  18.011  0.00  0.00    +0.000 A 
ENDBRANCH   8   9
ENDBRANCH   6   8
ENDBRANCH   4   6
BRANCH   5  16
ATOM     16  O   UNL     1       1.547   1.610  18.520  0.00  0.00    +0.000 OA
ATOM     17  H   UNL     1       0.883   1.400  17.836  0.00  0.00    +0.000 HD
ENDBRANCH   5  16
BRANCH   1  18
ATOM     18  C   UNL     1       1.487   5.104  19.781  0.00  0.00    +0.000 C 
BRANCH  18  23
ATOM     19  C   UNL     1       0.918   9.854  18.029  0.00  0.00    +0.000 C 
ATOM     20  C   UNL     1       1.799   8.882  18.812  0.00  0.00    +0.000 C 
ATOM     21  C   UNL     1       2.156   7.659  17.968  0.00  0.00    +0.000 C 
ATOM     22  C   UNL     1       3.071   6.734  18.773  0.00  0.00    +0.000 C 
ATOM     23  N   UNL     1       2.451   6.203  19.992  0.00  0.00    +0.000 NA
ATOM     24  C   UNL     1       1.920   7.297  20.830  0.00  0.00    +0.000 C 
ATOM     25  C   UNL     1       1.135   8.415  20.114  0.00  0.00    +0.000 C 
ENDBRANCH  18  23
ENDBRANCH   1  18
TORSDOF 6
ENDMDL
MODEL 8
REMARK VINA RESULT:      -7.3      2.494      6.594
REMARK  Name = 
REMARK  7 active torsions:
REMARK  status: ('A' for Active; 'I' for Inactive)
REMARK    1  A    between atoms: C_1  and  C_2
REMARK    2  A    between atoms: N_5  and  C_6
REMARK    3  A    between atoms: C_6  and  C_7
REMARK    4  A    between atoms: C_10  and  N_11
REMARK    5  A    between atoms: N_11  and  C_12
REMARK    6  A    between atoms: C_12  and  C_13
REMARK    7  A    between atoms: C_20  and  O_21
REMARK                            x       y       z     vdW  Elec       q    Type
REMARK                         _______ _______ _______ _____ _____    ______ ____
ROOT
ATOM      1  C   UNL     1       7.411   5.011  17.349  0.00  0.00    +0.000 C 
ATOM      2  O   UNL     1       6.496   4.308  18.221  0.00  0.00    +0.000 OA
ATOM      3  C   UNL     1       5.776   5.281  18.990  0.00  0.00    +0.000 C 
ATOM      4  C   UNL     1       5.669   6.554  18.142  0.00  0.00    +0.000 C 
ATOM      5  C   UNL     1       7.040   6.501  17.433  0.00  0.00    +0.000 C 
ENDROOT
BRANCH   4   6
ATOM      6  N   UNL     1       4.472   6.564  17.258  0.00  0.00    +0.000 NA
ATOM      7  H   UNL     1       4.633   7.221  16.493  0.00  0.00    +0.000 HD
BRANCH   6   8
ATOM      8  C   UNL     1       3.285   7.033  18.004  0.00  0.00    +0.000 C 
BRANCH   8   9
ATOM      9  C   UNL     1       2.433   5.938  18.620  0.00  0.00    +0.000 A 
ATOM     10  C   UNL     1       2.032   4.820  17.874  0.00  0.00    +0.000 A 
ATOM     11  C   UNL     1       1.398   3.738  18.495  0.00  0.00    +0.000 A 
ATOM     12  C   UNL     1       1.164   3.766  19.862  0.00  0.00    +0.000 A 
ATOM     13  F   UNL     1       0.584   2.716  20.462  0.00  0.00    +0.000 F 
ATOM     14  C   UNL     1       1.542   4.865  20.623  0.00  0.00    +0.000 A 
ATOM     15  C   UNL     1       2.178   5.944  20.004  0.00  0.00    +0.000 A 
ENDBRANCH   8   9
ENDBRANCH   6   8
ENDBRANCH   4   6
BRANCH   5  16
ATOM     16  O   UNL     1       7.993   7.180  18.291  0.00  0.00    +0.000 OA
ATOM     17  H   UNL     1       8.699   7.560  17.736  0.00  0.00    +0.000 HD
ENDBRANCH   5  16
BRANCH   1  18
ATOM     18  C   UNL     1       7.398   4.370  15.934  0.00  0.00    +0.000 C 
BRANCH  18  23
ATOM     19  C   UNL     1       5.640   2.410  11.572  0.00  0.00    +0.000 C 
ATOM     20  C   UNL     1       5.812   3.665  12.427  0.00  0.00    +0.000 C 
ATOM     21  C   UNL     1       7.283   3.902  12.766  0.00  0.00    +0.000 C 
ATOM     22  C   UNL     1       7.416   5.188  13.586  0.00  0.00    +0.000 C 
ATOM     23  N   UNL     1       6.717   5.142  14.876  0.00  0.00    +0.000 NA
ATOM     24  C   UNL     1       5.301   4.764  14.691  0.00  0.00    +0.000 C 
ATOM     25  C   UNL     1       5.003   3.597  13.729  0.00  0.00    +0.000 C 
ENDBRANCH  18  23
ENDBRANCH   1  18
TORSDOF 6
ENDMDL
MODEL 9
REMARK VINA RESULT:      -7.2      3.419      5.454
REMARK  Name = 
REMARK  7 active torsions:
REMARK  status: ('A' for Active; 'I' for Inactive)
REMARK    1  A    between atoms: C_1  and  C_2
REMARK    2  A    between atoms: N_5  and  C_6
REMARK    3  A    between atoms: C_6  and  C_7
REMARK    4  A    between atoms: C_10  and  N_11
REMARK    5  A    between atoms: N_11  and  C_12
REMARK    6  A    between atoms: C_12  and  C_13
REMARK    7  A    between atoms: C_20  and  O_21
REMARK                            x       y       z     vdW  Elec       q    Type
REMARK                         _______ _______ _______ _____ _____    ______ ____
ROOT
ATOM      1  C   UNL     1       5.469   3.820  16.691  0.00  0.00    +0.000 C 
ATOM      2  O   UNL     1       6.348   4.021  17.822  0.00  0.00    +0.000 OA
ATOM      3  C   UNL     1       7.276   5.063  17.486  0.00  0.00    +0.000 C 
ATOM      4  C   UNL     1       6.574   6.008  16.505  0.00  0.00    +0.000 C 
ATOM      5  C   UNL     1       5.738   4.978  15.715  0.00  0.00    +0.000 C 
ENDROOT
BRANCH   4   6
ATOM      6  N   UNL     1       5.812   7.090  17.184  0.00  0.00    +0.000 NA
ATOM      7  H   UNL     1       5.782   6.893  18.187  0.00  0.00    +0.000 HD
BRANCH   6   8
ATOM      8  C   UNL     1       4.417   7.123  16.697  0.00  0.00    +0.000 C 
BRANCH   8   9
ATOM      9  C   UNL     1       3.362   7.319  17.771  0.00  0.00    +0.000 A 
ATOM     10  C   UNL     1       3.240   6.426  18.845  0.00  0.00    +0.000 A 
ATOM     11  C   UNL     1       2.384   6.710  19.916  0.00  0.00    +0.000 A 
ATOM     12  C   UNL     1       1.649   7.887  19.920  0.00  0.00    +0.000 A 
ATOM     13  F   UNL     1       0.852   8.172  20.960  0.00  0.00    +0.000 F 
ATOM     14  C   UNL     1       1.744   8.784  18.864  0.00  0.00    +0.000 A 
ATOM     15  C   UNL     1       2.600   8.503  17.797  0.00  0.00    +0.000 A 
ENDBRANCH   8   9
ENDBRANCH   6   8
ENDBRANCH   4   6
BRANCH   5  16
ATOM     16  O   UNL     1       6.566   4.497  14.625  0.00  0.00    +0.000 OA
ATOM     17  H   UNL     1       7.353   5.070  14.554  0.00  0.00    +0.000 HD
ENDBRANCH   5  16
BRANCH   1  18
ATOM     18  C   UNL     1       4.005   3.646  17.179  0.00  0.00    +0.000 C 
BRANCH  18  23
ATOM     19  C   UNL     1       1.301   3.150  21.469  0.00  0.00    +0.000 C 
ATOM     20  C   UNL     1       2.070   2.436  20.357  0.00  0.00    +0.000 C 
ATOM     21  C   UNL     1       3.507   2.947  20.266  0.00  0.00    +0.000 C 
ATOM     22  C   UNL     1       4.251   2.179  19.171  0.00  0.00    +0.000 C 
ATOM     23  N   UNL     1       3.683   2.360  17.830  0.00  0.00    +0.000 NA
ATOM     24  C   UNL     1       2.241   2.043  17.825  0.00  0.00    +0.000 C 
ATOM     25  C   UNL     1       1.394   2.596  18.989  0.00  0.00    +0.000 C 
ENDBRANCH  18  23
ENDBRANCH   1  18
TORSDOF 6
ENDMDL
