MODEL 1
REMARK VINA RESULT:      -7.4      0.000      0.000
REMARK  Name = 
REMARK  3 active torsions:
REMARK  status: ('A' for Active; 'I' for Inactive)
REMARK    1  A    between atoms: C_5  and  C_6
REMARK    2  A    between atoms: C_7  and  C_8
REMARK    3  A    between atoms: C_8  and  N_9
REMARK                            x       y       z     vdW  Elec       q    Type
REMARK                         _______ _______ _______ _____ _____    ______ ____
ROOT
ATOM      1  C   UNL     1       7.266   6.185  17.736  0.00  0.00    +0.000 C 
ENDROOT
BRANCH   1   2
ATOM      2  N   UNL     1       5.808   6.249  17.931  0.00  0.00    +0.000 NA
ATOM      3  C   UNL     1       5.020   5.854  16.756  0.00  0.00    +0.000 C 
ATOM      4  C   UNL     1       4.581   4.372  16.664  0.00  0.00    +0.000 C 
ATOM      5  N   UNL     1       4.009   3.829  17.998  0.00  0.00    +0.000 N 
ATOM      6  C   UNL     1       3.811   2.302  17.882  0.00  0.00    +0.000 C 
ATOM      7  C   UNL     1       2.448   2.041  18.488  0.00  0.00    +0.000 C 
ATOM      8  C   UNL     1       1.655   3.258  18.067  0.00  0.00    +0.000 C 
ATOM      9  C   UNL     1       2.616   4.401  18.315  0.00  0.00    +0.000 C 
ATOM     10  C   UNL     1       5.009   4.153  19.124  0.00  0.00    +0.000 C 
ATOM     11  C   UNL     1       5.319   5.662  19.179  0.00  0.00    +0.000 C 
ENDBRANCH   1   2
BRANCH   1  13
ATOM     12  C   UNL     1       7.757   8.640  17.765  0.00  0.00    +0.000 C 
ATOM     13  C   UNL     1       8.019   7.395  18.197  0.00  0.00    +0.000 C 
BRANCH  12  18
ATOM     14 CL   UNL     1      10.650  13.517  19.706  0.00  0.00    +0.000 Cl
ATOM     15  C   UNL     1       9.831  12.119  19.129  0.00  0.00    +0.000 A 
ATOM     16  C   UNL     1       9.050  12.203  17.978  0.00  0.00    +0.000 A 
ATOM     17  C   UNL     1       8.379  11.073  17.508  0.00  0.00    +0.000 A 
ATOM     18  C   UNL     1       8.486   9.845  18.185  0.00  0.00    +0.000 A 
ATOM     19  C   UNL     1       9.264   9.784  19.351  0.00  0.00    +0.000 A 
ATOM     20  C   UNL     1       9.942  10.913  19.817  0.00  0.00    +0.000 A 
ENDBRANCH  12  18
ENDBRANCH   1  13
TORSDOF 3
ENDMDL
MODEL 2
REMARK VINA RESULT:      -7.3      0.847      1.904
REMARK  Name = 
REMARK  3 active torsions:
REMARK  status: ('A' for Active; 'I' for Inactive)
REMARK    1  A    between atoms: C_5  and  C_6
REMARK    2  A    between atoms: C_7  and  C_8
REMARK    3  A    between atoms: C_8  and  N_9
REMARK                            x       y       z     vdW  Elec       q    Type
REMARK                         _______ _______ _______ _____ _____    ______ ____
ROOT
ATOM      1  C   UNL     1       7.273   6.697  17.099  0.00  0.00    +0.000 C 
ENDROOT
BRANCH   1   2
ATOM      2  N   UNL     1       6.947   5.442  17.796  0.00  0.00    +0.000 NA
ATOM      3  C   UNL     1       6.197   5.617  19.046  0.00  0.00    +0.000 C 
ATOM      4  C   UNL     1       4.653   5.551  18.961  0.00  0.00    +0.000 C 
ATOM      5  N   UNL     1       4.148   4.363  18.104  0.00  0.00    +0.000 N 
ATOM      6  C   UNL     1       2.625   4.504  17.886  0.00  0.00    +0.000 C 
ATOM      7  C   UNL     1       2.071   3.114  18.121  0.00  0.00    +0.000 C 
ATOM      8  C   UNL     1       2.949   2.585  19.233  0.00  0.00    +0.000 C 
ATOM      9  C   UNL     1       4.339   3.008  18.807  0.00  0.00    +0.000 C 
ATOM     10  C   UNL     1       4.884   4.392  16.750  0.00  0.00    +0.000 C 
ATOM     11  C   UNL     1       6.413   4.378  16.946  0.00  0.00    +0.000 C 
ENDBRANCH   1   2
BRANCH   1  13
ATOM     12  C   UNL     1       8.123   9.013  17.531  0.00  0.00    +0.000 C 
ATOM     13  C   UNL     1       7.822   7.781  17.975  0.00  0.00    +0.000 C 
BRANCH  12  18
ATOM     14 CL   UNL     1      10.515  13.487  20.721  0.00  0.00    +0.000 Cl
ATOM     15  C   UNL     1       9.813  12.200  19.823  0.00  0.00    +0.000 A 
ATOM     16  C   UNL     1       9.766  10.921  20.373  0.00  0.00    +0.000 A 
ATOM     17  C   UNL     1       9.202   9.870  19.646  0.00  0.00    +0.000 A 
ATOM     18  C   UNL     1       8.677  10.092  18.360  0.00  0.00    +0.000 A 
ATOM     19  C   UNL     1       8.748  11.384  17.818  0.00  0.00    +0.000 A 
ATOM     20  C   UNL     1       9.305  12.437  18.548  0.00  0.00    +0.000 A 
ENDBRANCH  12  18
ENDBRANCH   1  13
TORSDOF 3
ENDMDL
MODEL 3
REMARK VINA RESULT:      -7.3      0.482      1.182
REMARK  Name = 
REMARK  3 active torsions:
REMARK  status: ('A' for Active; 'I' for Inactive)
REMARK    1  A    between atoms: C_5  and  C_6
REMARK    2  A    between atoms: C_7  and  C_8
REMARK    3  A    between atoms: C_8  and  N_9
REMARK                            x       y       z     vdW  Elec       q    Type
REMARK                         _______ _______ _______ _____ _____    ______ ____
ROOT
ATOM      1  C   UNL     1       7.384   6.608  17.500  0.00  0.00    +0.000 C 
ENDROOT
BRANCH   1   2
ATOM      2  N   UNL     1       5.919   6.652  17.634  0.00  0.00    +0.000 NA
ATOM      3  C   UNL     1       5.186   6.218  16.437  0.00  0.00    +0.000 C 
ATOM      4  C   UNL     1       4.775   4.728  16.359  0.00  0.00    +0.000 C 
ATOM      5  N   UNL     1       4.158   4.204  17.680  0.00  0.00    +0.000 N 
ATOM      6  C   UNL     1       3.989   2.671  17.590  0.00  0.00    +0.000 C 
ATOM      7  C   UNL     1       2.606   2.401  18.146  0.00  0.00    +0.000 C 
ATOM      8  C   UNL     1       1.812   3.595  17.666  0.00  0.00    +0.000 C 
ATOM      9  C   UNL     1       2.744   4.759  17.928  0.00  0.00    +0.000 C 
ATOM     10  C   UNL     1       5.105   4.569  18.839  0.00  0.00    +0.000 C 
ATOM     11  C   UNL     1       5.388   6.084  18.873  0.00  0.00    +0.000 C 
ENDBRANCH   1   2
BRANCH   1  13
ATOM     12  C   UNL     1       7.963   9.029  17.779  0.00  0.00    +0.000 C 
ATOM     13  C   UNL     1       8.112   7.746  18.149  0.00  0.00    +0.000 C 
BRANCH  12  18
ATOM     14 CL   UNL     1      10.955  13.709  20.028  0.00  0.00    +0.000 Cl
ATOM     15  C   UNL     1      10.084  12.365  19.402  0.00  0.00    +0.000 A 
ATOM     16  C   UNL     1      10.106  11.151  20.085  0.00  0.00    +0.000 A 
ATOM     17  C   UNL     1       9.405  10.054  19.579  0.00  0.00    +0.000 A 
ATOM     18  C   UNL     1       8.672  10.165  18.383  0.00  0.00    +0.000 A 
ATOM     19  C   UNL     1       8.675  11.391  17.702  0.00  0.00    +0.000 A 
ATOM     20  C   UNL     1       9.370  12.490  18.213  0.00  0.00    +0.000 A 
ENDBRANCH  12  18
ENDBRANCH   1  13
TORSDOF 3
ENDMDL
MODEL 4
REMARK VINA RESULT:      -7.3      1.309      2.002
REMARK  Name = 
REMARK  3 active torsions:
REMARK  status: ('A' for Active; 'I' for Inactive)
REMARK    1  A    between atoms: C_5  and  C_6
REMARK    2  A    between atoms: C_7  and  C_8
REMARK    3  A    between atoms: C_8  and  N_9
REMARK                            x       y       z     vdW  Elec       q    Type
REMARK                         _______ _______ _______ _____ _____    ______ ____
ROOT
ATOM      1  C   UNL     1       7.961   7.097  18.442  0.00  0.00    +0.000 C 
ENDROOT
BRANCH   1   2
ATOM      2  N   UNL     1       7.212   6.289  17.466  0.00  0.00    +0.000 NA
ATOM      3  C   UNL     1       7.111   4.864  17.807  0.00  0.00    +0.000 C 
ATOM      4  C   UNL     1       5.860   4.413  18.600  0.00  0.00    +0.000 C 
ATOM      5  N   UNL     1       4.544   5.005  18.036  0.00  0.00    +0.000 N 
ATOM      6  C   UNL     1       3.387   4.692  19.010  0.00  0.00    +0.000 C 
ATOM      7  C   UNL     1       2.247   4.234  18.123  0.00  0.00    +0.000 C 
ATOM      8  C   UNL     1       2.959   3.473  17.027  0.00  0.00    +0.000 C 
ATOM      9  C   UNL     1       4.139   4.363  16.697  0.00  0.00    +0.000 C 
ATOM     10  C   UNL     1       4.719   6.528  17.888  0.00  0.00    +0.000 C 
ATOM     11  C   UNL     1       5.945   6.867  17.018  0.00  0.00    +0.000 C 
ENDBRANCH   1   2
BRANCH   1  13
ATOM     12  C   UNL     1       8.924   9.386  18.764  0.00  0.00    +0.000 C 
ATOM     13  C   UNL     1       8.261   8.498  18.005  0.00  0.00    +0.000 C 
BRANCH  12  18
ATOM     14 CL   UNL     1      10.238  15.067  17.379  0.00  0.00    +0.000 Cl
ATOM     15  C   UNL     1       9.855  13.433  17.754  0.00  0.00    +0.000 A 
ATOM     16  C   UNL     1       8.568  12.955  17.518  0.00  0.00    +0.000 A 
ATOM     17  C   UNL     1       8.250  11.631  17.825  0.00  0.00    +0.000 A 
ATOM     18  C   UNL     1       9.221  10.771  18.371  0.00  0.00    +0.000 A 
ATOM     19  C   UNL     1      10.506  11.276  18.616  0.00  0.00    +0.000 A 
ATOM     20  C   UNL     1      10.826  12.599  18.301  0.00  0.00    +0.000 A 
ENDBRANCH  12  18
ENDBRANCH   1  13
TORSDOF 3
ENDMDL
MODEL 5
REMARK VINA RESULT:      -7.3      0.863      1.555
REMARK  Name = 
REMARK  3 active torsions:
REMARK  status: ('A' for Active; 'I' for Inactive)
REMARK    1  A    between atoms: C_5  and  C_6
REMARK    2  A    between atoms: C_7  and  C_8
REMARK    3  A    between atoms: C_8  and  N_9
REMARK                            x       y       z     vdW  Elec       q    Type
REMARK                         _______ _______ _______ _____ _____    ______ ____
ROOT
ATOM      1  C   UNL     1       7.216   6.681  17.196  0.00  0.00    +0.000 C 
ENDROOT
BRANCH   1   2
ATOM      2  N   UNL     1       6.897   5.464  17.959  0.00  0.00    +0.000 NA
ATOM      3  C   UNL     1       6.085   5.695  19.161  0.00  0.00    +0.000 C 
ATOM      4  C   UNL     1       4.550   5.571  19.013  0.00  0.00    +0.000 C 
ATOM      5  N   UNL     1       4.121   4.314  18.215  0.00  0.00    +0.000 N 
ATOM      6  C   UNL     1       2.607   4.388  17.923  0.00  0.00    +0.000 C 
ATOM      7  C   UNL     1       2.085   2.999  18.225  0.00  0.00    +0.000 C 
ATOM      8  C   UNL     1       2.927   2.573  19.406  0.00  0.00    +0.000 C 
ATOM      9  C   UNL     1       4.322   3.014  19.015  0.00  0.00    +0.000 C 
ATOM     10  C   UNL     1       4.917   4.279  16.897  0.00  0.00    +0.000 C 
ATOM     11  C   UNL     1       6.435   4.329  17.160  0.00  0.00    +0.000 C 
ENDBRANCH   1   2
BRANCH   1  13
ATOM     12  C   UNL     1       7.958   9.039  17.596  0.00  0.00    +0.000 C 
ATOM     13  C   UNL     1       7.914   7.752  17.977  0.00  0.00    +0.000 C 
BRANCH  12  18
ATOM     14 CL   UNL     1      10.635  13.345  20.791  0.00  0.00    +0.000 Cl
ATOM     15  C   UNL     1       9.882  12.113  19.858  0.00  0.00    +0.000 A 
ATOM     16  C   UNL     1       9.378  12.416  18.595  0.00  0.00    +0.000 A 
ATOM     17  C   UNL     1       8.761  11.421  17.834  0.00  0.00    +0.000 A 
ATOM     18  C   UNL     1       8.646  10.110  18.331  0.00  0.00    +0.000 A 
ATOM     19  C   UNL     1       9.147   9.828  19.610  0.00  0.00    +0.000 A 
ATOM     20  C   UNL     1       9.771  10.822  20.368  0.00  0.00    +0.000 A 
ENDBRANCH  12  18
ENDBRANCH   1  13
TORSDOF 3
ENDMDL
MODEL 6
REMARK VINA RESULT:      -7.0      1.268      2.105
REMARK  Name = 
REMARK  3 active torsions:
REMARK  status: ('A' for Active; 'I' for Inactive)
REMARK    1  A    between atoms: C_5  and  C_6
REMARK    2  A    between atoms: C_7  and  C_8
REMARK    3  A    between atoms: C_8  and  N_9
REMARK                            x       y       z     vdW  Elec       q    Type
REMARK                         _______ _______ _______ _____ _____    ______ ____
ROOT
ATOM      1  C   UNL     1       7.948   7.000  18.418  0.00  0.00    +0.000 C 
ENDROOT
BRANCH   1   2
ATOM      2  N   UNL     1       7.137   6.284  17.420  0.00  0.00    +0.000 NA
ATOM      3  C   UNL     1       7.068   4.831  17.621  0.00  0.00    +0.000 C 
ATOM      4  C   UNL     1       5.881   4.286  18.451  0.00  0.00    +0.000 C 
ATOM      5  N   UNL     1       4.524   4.913  18.043  0.00  0.00    +0.000 N 
ATOM      6  C   UNL     1       3.442   4.489  19.060  0.00  0.00    +0.000 C 
ATOM      7  C   UNL     1       2.244   4.107  18.214  0.00  0.00    +0.000 C 
ATOM      8  C   UNL     1       2.880   3.470  16.999  0.00  0.00    +0.000 C 
ATOM      9  C   UNL     1       4.028   4.404  16.678  0.00  0.00    +0.000 C 
ATOM     10  C   UNL     1       4.678   6.446  18.039  0.00  0.00    +0.000 C 
ATOM     11  C   UNL     1       5.837   6.888  17.124  0.00  0.00    +0.000 C 
ENDBRANCH   1   2
BRANCH   1  13
ATOM     12  C   UNL     1       8.961   9.244  18.875  0.00  0.00    +0.000 C 
ATOM     13  C   UNL     1       8.227   8.436  18.093  0.00  0.00    +0.000 C 
BRANCH  12  18
ATOM     14 CL   UNL     1      10.039  14.975  17.493  0.00  0.00    +0.000 Cl
ATOM     15  C   UNL     1       9.731  13.336  17.912  0.00  0.00    +0.000 A 
ATOM     16  C   UNL     1      10.661  12.633  18.674  0.00  0.00    +0.000 A 
ATOM     17  C   UNL     1      10.420  11.300  19.013  0.00  0.00    +0.000 A 
ATOM     18  C   UNL     1       9.240  10.659  18.593  0.00  0.00    +0.000 A 
ATOM     19  C   UNL     1       8.323  11.379  17.814  0.00  0.00    +0.000 A 
ATOM     20  C   UNL     1       8.561  12.715  17.481  0.00  0.00    +0.000 A 
ENDBRANCH  12  18
ENDBRANCH   1  13
TORSDOF 3
ENDMDL
MODEL 7
REMARK VINA RESULT:      -6.8      4.265      9.836
REMARK  Name = 
REMARK  3 active torsions:
REMARK  status: ('A' for Active; 'I' for Inactive)
REMARK    1  A    between atoms: C_5  and  C_6
REMARK    2  A    between atoms: C_7  and  C_8
REMARK    3  A    between atoms: C_8  and  N_9
REMARK                            x       y       z     vdW  Elec       q    Type
REMARK                         _______ _______ _______ _____ _____    ______ ____
ROOT
ATOM      1  C   UNL     1       9.296  10.512  18.884  0.00  0.00    +0.000 C 
ENDROOT
BRANCH   1   2
ATOM      2  N   UNL     1       9.773  11.456  17.861  0.00  0.00    +0.000 NA
ATOM      3  C   UNL     1       8.909  12.628  17.665  0.00  0.00    +0.000 C 
ATOM      4  C   UNL     1       9.245  13.900  18.481  0.00  0.00    +0.000 C 
ATOM      5  N   UNL     1      10.756  14.242  18.467  0.00  0.00    +0.000 N 
ATOM      6  C   UNL     1      11.030  15.377  19.478  0.00  0.00    +0.000 C 
ATOM      7  C   UNL     1      11.952  16.332  18.747  0.00  0.00    +0.000 C 
ATOM      8  C   UNL     1      11.446  16.265  17.324  0.00  0.00    +0.000 C 
ATOM      9  C   UNL     1      11.223  14.784  17.104  0.00  0.00    +0.000 C 
ATOM     10  C   UNL     1      11.545  12.978  18.858  0.00  0.00    +0.000 C 
ATOM     11  C   UNL     1      11.194  11.793  17.937  0.00  0.00    +0.000 C 
ENDBRANCH   1   2
BRANCH   1  13
ATOM     12  C   UNL     1       8.558   8.137  18.588  0.00  0.00    +0.000 C 
ATOM     13  C   UNL     1       8.366   9.451  18.380  0.00  0.00    +0.000 C 
BRANCH  12  18
ATOM     14 CL   UNL     1       4.767   3.942  16.601  0.00  0.00    +0.000 Cl
ATOM     15  C   UNL     1       5.872   5.133  17.164  0.00  0.00    +0.000 A 
ATOM     16  C   UNL     1       6.813   4.796  18.135  0.00  0.00    +0.000 A 
ATOM     17  C   UNL     1       7.710   5.760  18.600  0.00  0.00    +0.000 A 
ATOM     18  C   UNL     1       7.675   7.072  18.094  0.00  0.00    +0.000 A 
ATOM     19  C   UNL     1       6.710   7.395  17.129  0.00  0.00    +0.000 A 
ATOM     20  C   UNL     1       5.818   6.429  16.658  0.00  0.00    +0.000 A 
ENDBRANCH  12  18
ENDBRANCH   1  13
TORSDOF 3
ENDMDL
MODEL 8
REMARK VINA RESULT:      -6.7      4.353      9.811
REMARK  Name = 
REMARK  3 active torsions:
REMARK  status: ('A' for Active; 'I' for Inactive)
REMARK    1  A    between atoms: C_5  and  C_6
REMARK    2  A    between atoms: C_7  and  C_8
REMARK    3  A    between atoms: C_8  and  N_9
REMARK                            x       y       z     vdW  Elec       q    Type
REMARK                         _______ _______ _______ _____ _____    ______ ____
ROOT
ATOM      1  C   UNL     1       9.303  10.407  18.804  0.00  0.00    +0.000 C 
ENDROOT
BRANCH   1   2
ATOM      2  N   UNL     1       9.748  11.478  17.898  0.00  0.00    +0.000 NA
ATOM      3  C   UNL     1       8.943  12.705  17.964  0.00  0.00    +0.000 C 
ATOM      4  C   UNL     1       9.422  13.815  18.931  0.00  0.00    +0.000 C 
ATOM      5  N   UNL     1      10.945  14.084  18.830  0.00  0.00    +0.000 N 
ATOM      6  C   UNL     1      11.370  15.032  19.974  0.00  0.00    +0.000 C 
ATOM      7  C   UNL     1      12.283  16.046  19.316  0.00  0.00    +0.000 C 
ATOM      8  C   UNL     1      11.656  16.229  17.952  0.00  0.00    +0.000 C 
ATOM      9  C   UNL     1      11.327  14.812  17.529  0.00  0.00    +0.000 C 
ATOM     10  C   UNL     1      11.686  12.739  18.949  0.00  0.00    +0.000 C 
ATOM     11  C   UNL     1      11.189  11.732  17.894  0.00  0.00    +0.000 C 
ENDBRANCH   1   2
BRANCH   1  13
ATOM     12  C   UNL     1       8.356   8.094  18.640  0.00  0.00    +0.000 C 
ATOM     13  C   UNL     1       8.464   9.345  18.162  0.00  0.00    +0.000 C 
BRANCH  12  18
ATOM     14 CL   UNL     1       5.294   3.617  16.093  0.00  0.00    +0.000 Cl
ATOM     15  C   UNL     1       6.153   4.910  16.831  0.00  0.00    +0.000 A 
ATOM     16  C   UNL     1       5.867   6.224  16.467  0.00  0.00    +0.000 A 
ATOM     17  C   UNL     1       6.565   7.279  17.060  0.00  0.00    +0.000 A 
ATOM     18  C   UNL     1       7.555   7.026  18.027  0.00  0.00    +0.000 A 
ATOM     19  C   UNL     1       7.839   5.696  18.368  0.00  0.00    +0.000 A 
ATOM     20  C   UNL     1       7.135   4.641  17.781  0.00  0.00    +0.000 A 
ENDBRANCH  12  18
ENDBRANCH   1  13
TORSDOF 3
ENDMDL
MODEL 9
REMARK VINA RESULT:      -6.7      4.711      5.740
REMARK  Name = 
REMARK  3 active torsions:
REMARK  status: ('A' for Active; 'I' for Inactive)
REMARK    1  A    between atoms: C_5  and  C_6
REMARK    2  A    between atoms: C_7  and  C_8
REMARK    3  A    between atoms: C_8  and  N_9
REMARK                            x       y       z     vdW  Elec       q    Type
REMARK                         _______ _______ _______ _____ _____    ______ ____
ROOT
ATOM      1  C   UNL     1       4.345   6.354  16.839  0.00  0.00    +0.000 C 
ENDROOT
BRANCH   1   2
ATOM      2  N   UNL     1       4.553   5.098  17.580  0.00  0.00    +0.000 NA
ATOM      3  C   UNL     1       4.888   5.277  18.999  0.00  0.00    +0.000 C 
ATOM      4  C   UNL     1       3.716   5.261  20.010  0.00  0.00    +0.000 C 
ATOM      5  N   UNL     1       2.718   4.103  19.756  0.00  0.00    +0.000 N 
ATOM      6  C   UNL     1       1.477   4.294  20.656  0.00  0.00    +0.000 C 
ATOM      7  C   UNL     1       1.195   2.919  21.224  0.00  0.00    +0.000 C 
ATOM      8  C   UNL     1       2.581   2.345  21.419  0.00  0.00    +0.000 C 
ATOM      9  C   UNL     1       3.299   2.732  20.144  0.00  0.00    +0.000 C 
ATOM     10  C   UNL     1       2.309   4.130  18.271  0.00  0.00    +0.000 C 
ATOM     11  C   UNL     1       3.543   4.065  17.350  0.00  0.00    +0.000 C 
ENDBRANCH   1   2
BRANCH   1  13
ATOM     12  C   UNL     1       2.458   7.721  17.756  0.00  0.00    +0.000 C 
ATOM     13  C   UNL     1       3.774   7.477  17.649  0.00  0.00    +0.000 C 
BRANCH  12  18
ATOM     14 CL   UNL     1      -0.129  12.061  20.979  0.00  0.00    +0.000 Cl
ATOM     15  C   UNL     1       0.631  10.829  20.051  0.00  0.00    +0.000 A 
ATOM     16  C   UNL     1       1.030  11.097  18.744  0.00  0.00    +0.000 A 
ATOM     17  C   UNL     1       1.643  10.099  17.984  0.00  0.00    +0.000 A 
ATOM     18  C   UNL     1       1.867   8.822  18.529  0.00  0.00    +0.000 A 
ATOM     19  C   UNL     1       1.445   8.567  19.842  0.00  0.00    +0.000 A 
ATOM     20  C   UNL     1       0.838   9.568  20.605  0.00  0.00    +0.000 A 
ENDBRANCH  12  18
ENDBRANCH   1  13
TORSDOF 3
ENDMDL
