MODEL 1
REMARK VINA RESULT:      -7.7      0.000      0.000
REMARK  Name = 
REMARK  6 active torsions:
REMARK  status: ('A' for Active; 'I' for Inactive)
REMARK    1  A    between atoms: C_1  and  N_2
REMARK    2  A    between atoms: N_2  and  C_3
REMARK    3  A    between atoms: N_2  and  C_19
REMARK    4  A    between atoms: C_3  and  C_4
REMARK    5  A    between atoms: C_7  and  C_8
REMARK    6  A    between atoms: C_19  and  C_20
REMARK                            x       y       z     vdW  Elec       q    Type
REMARK                         _______ _______ _______ _____ _____    ______ ____
ROOT
ATOM      1  C   UNL     1       1.556   9.166  19.078  0.00  0.00    +0.000 A 
ATOM      2  C   UNL     1       1.833   9.578  17.796  0.00  0.00    +0.000 A 
ATOM      3  O   UNL     1       2.578   8.612  17.188  0.00  0.00    +0.000 OA
ATOM      4  C   UNL     1       2.728   7.640  18.149  0.00  0.00    +0.000 A 
ATOM      5  N   UNL     1       2.102   7.915  19.277  0.00  0.00    +0.000 NA
ENDROOT
BRANCH   4   6
ATOM      6  C   UNL     1       3.537   6.473  17.784  0.00  0.00    +0.000 A 
ATOM      7  C   UNL     1       4.836   6.690  17.285  0.00  0.00    +0.000 A 
ATOM      8  C   UNL     1       5.637   5.628  16.881  0.00  0.00    +0.000 A 
ATOM      9  C   UNL     1       5.155   4.327  16.969  0.00  0.00    +0.000 A 
ATOM     10  C   UNL     1       3.873   4.065  17.472  0.00  0.00    +0.000 A 
ATOM     11  C   UNL     1       3.421   2.736  17.556  0.00  0.00    +0.000 A 
ATOM     12  C   UNL     1       2.159   2.434  18.064  0.00  0.00    +0.000 A 
ATOM     13  C   UNL     1       1.334   3.458  18.499  0.00  0.00    +0.000 A 
ATOM     14  C   UNL     1       1.769   4.784  18.417  0.00  0.00    +0.000 A 
ATOM     15  C   UNL     1       3.041   5.135  17.896  0.00  0.00    +0.000 A 
ENDBRANCH   4   6
BRANCH   1  16
ATOM     16  C   UNL     1       0.805   9.856  20.167  0.00  0.00    +0.000 C 
BRANCH  16  18
ATOM     17  C   UNL     1       0.848  12.249  20.601  0.00  0.00    +0.000 C 
ATOM     18  N   UNL     1       0.306  11.183  19.741  0.00  0.00    +0.000 NA
BRANCH  18  19
ATOM     19  C   UNL     1      -1.173  11.170  19.825  0.00  0.00    +0.000 C 
BRANCH  19  20
ATOM     20  C   UNL     1      -1.830  10.841  18.527  0.00  0.00    +0.000 A 
ATOM     21  C   UNL     1      -2.450   9.711  18.032  0.00  0.00    +0.000 A 
ATOM     22  C   UNL     1      -2.837  10.017  16.705  0.00  0.00    +0.000 A 
ATOM     23  C   UNL     1      -2.435  11.312  16.477  0.00  0.00    +0.000 A 
ATOM     24  O   UNL     1      -1.827  11.822  17.578  0.00  0.00    +0.000 OA
ENDBRANCH  19  20
ENDBRANCH  18  19
ENDBRANCH  16  18
ENDBRANCH   1  16
TORSDOF 5
ENDMDL
MODEL 2
REMARK VINA RESULT:      -7.6      1.642      2.677
REMARK  Name = 
REMARK  6 active torsions:
REMARK  status: ('A' for Active; 'I' for Inactive)
REMARK    1  A    between atoms: C_1  and  N_2
REMARK    2  A    between atoms: N_2  and  C_3
REMARK    3  A    between atoms: N_2  and  C_19
REMARK    4  A    between atoms: C_3  and  C_4
REMARK    5  A    between atoms: C_7  and  C_8
REMARK    6  A    between atoms: C_19  and  C_20
REMARK                            x       y       z     vdW  Elec       q    Type
REMARK                         _______ _______ _______ _____ _____    ______ ____
ROOT
ATOM      1  C   UNL     1       1.435   9.228  18.793  0.00  0.00    +0.000 A 
ATOM      2  C   UNL     1       1.562   8.564  19.989  0.00  0.00    +0.000 A 
ATOM      3  O   UNL     1       2.270   7.420  19.770  0.00  0.00    +0.000 OA
ATOM      4  C   UNL     1       2.541   7.438  18.422  0.00  0.00    +0.000 A 
ATOM      5  N   UNL     1       2.092   8.516  17.811  0.00  0.00    +0.000 NA
ENDROOT
BRANCH   4   6
ATOM      6  C   UNL     1       3.270   6.286  17.882  0.00  0.00    +0.000 A 
ATOM      7  C   UNL     1       4.463   6.523  17.173  0.00  0.00    +0.000 A 
ATOM      8  C   UNL     1       5.178   5.478  16.599  0.00  0.00    +0.000 A 
ATOM      9  C   UNL     1       4.714   4.174  16.723  0.00  0.00    +0.000 A 
ATOM     10  C   UNL     1       3.537   3.891  17.431  0.00  0.00    +0.000 A 
ATOM     11  C   UNL     1       3.100   2.559  17.546  0.00  0.00    +0.000 A 
ATOM     12  C   UNL     1       1.945   2.237  18.254  0.00  0.00    +0.000 A 
ATOM     13  C   UNL     1       1.212   3.243  18.861  0.00  0.00    +0.000 A 
ATOM     14  C   UNL     1       1.631   4.572  18.752  0.00  0.00    +0.000 A 
ATOM     15  C   UNL     1       2.795   4.944  18.031  0.00  0.00    +0.000 A 
ENDBRANCH   4   6
BRANCH   1  16
ATOM     16  C   UNL     1       0.733  10.505  18.472  0.00  0.00    +0.000 C 
BRANCH  16  18
ATOM     17  C   UNL     1      -1.557  10.227  17.700  0.00  0.00    +0.000 C 
ATOM     18  N   UNL     1      -0.694  10.467  18.868  0.00  0.00    +0.000 NA
BRANCH  18  19
ATOM     19  C   UNL     1      -1.036  11.767  19.490  0.00  0.00    +0.000 C 
BRANCH  19  20
ATOM     20  C   UNL     1      -1.271  11.669  20.960  0.00  0.00    +0.000 A 
ATOM     21  C   UNL     1      -0.617  11.021  21.988  0.00  0.00    +0.000 A 
ATOM     22  C   UNL     1      -1.361  11.285  23.163  0.00  0.00    +0.000 A 
ATOM     23  C   UNL     1      -2.415  12.079  22.780  0.00  0.00    +0.000 A 
ATOM     24  O   UNL     1      -2.367  12.322  21.445  0.00  0.00    +0.000 OA
ENDBRANCH  19  20
ENDBRANCH  18  19
ENDBRANCH  16  18
ENDBRANCH   1  16
TORSDOF 5
ENDMDL
MODEL 3
REMARK VINA RESULT:      -7.5      1.438      1.765
REMARK  Name = 
REMARK  6 active torsions:
REMARK  status: ('A' for Active; 'I' for Inactive)
REMARK    1  A    between atoms: C_1  and  N_2
REMARK    2  A    between atoms: N_2  and  C_3
REMARK    3  A    between atoms: N_2  and  C_19
REMARK    4  A    between atoms: C_3  and  C_4
REMARK    5  A    between atoms: C_7  and  C_8
REMARK    6  A    between atoms: C_19  and  C_20
REMARK                            x       y       z     vdW  Elec       q    Type
REMARK                         _______ _______ _______ _____ _____    ______ ____
ROOT
ATOM      1  C   UNL     1       1.029   9.472  20.140  0.00  0.00    +0.000 A 
ATOM      2  C   UNL     1       1.013   8.590  21.195  0.00  0.00    +0.000 A 
ATOM      3  O   UNL     1       1.621   7.437  20.796  0.00  0.00    +0.000 OA
ATOM      4  C   UNL     1       1.980   7.672  19.490  0.00  0.00    +0.000 A 
ATOM      5  N   UNL     1       1.678   8.886  19.073  0.00  0.00    +0.000 NA
ENDROOT
BRANCH   4   6
ATOM      6  C   UNL     1       2.629   6.567  18.777  0.00  0.00    +0.000 A 
ATOM      7  C   UNL     1       3.630   6.876  17.836  0.00  0.00    +0.000 A 
ATOM      8  C   UNL     1       4.253   5.878  17.095  0.00  0.00    +0.000 A 
ATOM      9  C   UNL     1       3.888   4.550  17.283  0.00  0.00    +0.000 A 
ATOM     10  C   UNL     1       2.905   4.196  18.218  0.00  0.00    +0.000 A 
ATOM     11  C   UNL     1       2.567   2.842  18.389  0.00  0.00    +0.000 A 
ATOM     12  C   UNL     1       1.607   2.450  19.320  0.00  0.00    +0.000 A 
ATOM     13  C   UNL     1       0.975   3.409  20.095  0.00  0.00    +0.000 A 
ATOM     14  C   UNL     1       1.298   4.759  19.933  0.00  0.00    +0.000 A 
ATOM     15  C   UNL     1       2.261   5.200  18.989  0.00  0.00    +0.000 A 
ENDBRANCH   4   6
BRANCH   1  16
ATOM     16  C   UNL     1       0.475  10.853  20.033  0.00  0.00    +0.000 C 
BRANCH  16  18
ATOM     17  C   UNL     1      -0.453  12.492  18.495  0.00  0.00    +0.000 C 
ATOM     18  N   UNL     1      -0.261  11.058  18.764  0.00  0.00    +0.000 NA
BRANCH  18  19
ATOM     19  C   UNL     1      -1.575  10.385  18.879  0.00  0.00    +0.000 C 
BRANCH  19  20
ATOM     20  C   UNL     1      -2.406  10.508  17.646  0.00  0.00    +0.000 A 
ATOM     21  C   UNL     1      -2.291  10.005  16.365  0.00  0.00    +0.000 A 
ATOM     22  C   UNL     1      -3.388  10.521  15.635  0.00  0.00    +0.000 A 
ATOM     23  C   UNL     1      -4.103  11.298  16.514  0.00  0.00    +0.000 A 
ATOM     24  O   UNL     1      -3.519  11.293  17.739  0.00  0.00    +0.000 OA
ENDBRANCH  19  20
ENDBRANCH  18  19
ENDBRANCH  16  18
ENDBRANCH   1  16
TORSDOF 5
ENDMDL
MODEL 4
REMARK VINA RESULT:      -7.5      0.787      2.409
REMARK  Name = 
REMARK  6 active torsions:
REMARK  status: ('A' for Active; 'I' for Inactive)
REMARK    1  A    between atoms: C_1  and  N_2
REMARK    2  A    between atoms: N_2  and  C_3
REMARK    3  A    between atoms: N_2  and  C_19
REMARK    4  A    between atoms: C_3  and  C_4
REMARK    5  A    between atoms: C_7  and  C_8
REMARK    6  A    between atoms: C_19  and  C_20
REMARK                            x       y       z     vdW  Elec       q    Type
REMARK                         _______ _______ _______ _____ _____    ______ ____
ROOT
ATOM      1  C   UNL     1       1.596   9.227  19.112  0.00  0.00    +0.000 A 
ATOM      2  C   UNL     1       1.918   9.531  17.811  0.00  0.00    +0.000 A 
ATOM      3  O   UNL     1       2.431   8.413  17.225  0.00  0.00    +0.000 OA
ATOM      4  C   UNL     1       2.402   7.462  18.217  0.00  0.00    +0.000 A 
ATOM      5  N   UNL     1       1.878   7.897  19.346  0.00  0.00    +0.000 NA
ENDROOT
BRANCH   4   6
ATOM      6  C   UNL     1       2.943   6.141  17.879  0.00  0.00    +0.000 A 
ATOM      7  C   UNL     1       2.073   5.035  17.911  0.00  0.00    +0.000 A 
ATOM      8  C   UNL     1       2.534   3.751  17.644  0.00  0.00    +0.000 A 
ATOM      9  C   UNL     1       3.874   3.548  17.338  0.00  0.00    +0.000 A 
ATOM     10  C   UNL     1       4.773   4.623  17.283  0.00  0.00    +0.000 A 
ATOM     11  C   UNL     1       6.121   4.383  16.961  0.00  0.00    +0.000 A 
ATOM     12  C   UNL     1       7.040   5.427  16.881  0.00  0.00    +0.000 A 
ATOM     13  C   UNL     1       6.622   6.726  17.118  0.00  0.00    +0.000 A 
ATOM     14  C   UNL     1       5.286   6.979  17.444  0.00  0.00    +0.000 A 
ATOM     15  C   UNL     1       4.321   5.943  17.547  0.00  0.00    +0.000 A 
ENDBRANCH   4   6
BRANCH   1  16
ATOM     16  C   UNL     1       1.034  10.091  20.191  0.00  0.00    +0.000 C 
BRANCH  16  18
ATOM     17  C   UNL     1       0.390  12.427  20.400  0.00  0.00    +0.000 C 
ATOM     18  N   UNL     1       0.191  11.180  19.644  0.00  0.00    +0.000 NA
BRANCH  18  19
ATOM     19  C   UNL     1      -1.225  10.756  19.733  0.00  0.00    +0.000 C 
BRANCH  19  20
ATOM     20  C   UNL     1      -1.896  10.673  18.403  0.00  0.00    +0.000 A 
ATOM     21  C   UNL     1      -1.685   9.904  17.275  0.00  0.00    +0.000 A 
ATOM     22  C   UNL     1      -2.639  10.328  16.320  0.00  0.00    +0.000 A 
ATOM     23  C   UNL     1      -3.373  11.320  16.924  0.00  0.00    +0.000 A 
ATOM     24  O   UNL     1      -2.934  11.534  18.190  0.00  0.00    +0.000 OA
ENDBRANCH  19  20
ENDBRANCH  18  19
ENDBRANCH  16  18
ENDBRANCH   1  16
TORSDOF 5
ENDMDL
MODEL 5
REMARK VINA RESULT:      -7.3      1.757      3.529
REMARK  Name = 
REMARK  6 active torsions:
REMARK  status: ('A' for Active; 'I' for Inactive)
REMARK    1  A    between atoms: C_1  and  N_2
REMARK    2  A    between atoms: N_2  and  C_3
REMARK    3  A    between atoms: N_2  and  C_19
REMARK    4  A    between atoms: C_3  and  C_4
REMARK    5  A    between atoms: C_7  and  C_8
REMARK    6  A    between atoms: C_19  and  C_20
REMARK                            x       y       z     vdW  Elec       q    Type
REMARK                         _______ _______ _______ _____ _____    ______ ____
ROOT
ATOM      1  C   UNL     1       1.527   9.013  18.956  0.00  0.00    +0.000 A 
ATOM      2  C   UNL     1       1.697   8.359  20.153  0.00  0.00    +0.000 A 
ATOM      3  O   UNL     1       2.244   7.136  19.897  0.00  0.00    +0.000 OA
ATOM      4  C   UNL     1       2.378   7.100  18.530  0.00  0.00    +0.000 A 
ATOM      5  N   UNL     1       1.997   8.213  17.935  0.00  0.00    +0.000 NA
ENDROOT
BRANCH   4   6
ATOM      6  C   UNL     1       2.913   5.862  17.954  0.00  0.00    +0.000 A 
ATOM      7  C   UNL     1       2.065   4.741  17.873  0.00  0.00    +0.000 A 
ATOM      8  C   UNL     1       2.524   3.526  17.377  0.00  0.00    +0.000 A 
ATOM      9  C   UNL     1       3.842   3.408  16.951  0.00  0.00    +0.000 A 
ATOM     10  C   UNL     1       4.718   4.502  17.002  0.00  0.00    +0.000 A 
ATOM     11  C   UNL     1       6.042   4.351  16.555  0.00  0.00    +0.000 A 
ATOM     12  C   UNL     1       6.937   5.418  16.575  0.00  0.00    +0.000 A 
ATOM     13  C   UNL     1       6.517   6.654  17.041  0.00  0.00    +0.000 A 
ATOM     14  C   UNL     1       5.205   6.818  17.493  0.00  0.00    +0.000 A 
ATOM     15  C   UNL     1       4.266   5.754  17.499  0.00  0.00    +0.000 A 
ENDBRANCH   4   6
BRANCH   1  16
ATOM     16  C   UNL     1       0.946  10.357  18.670  0.00  0.00    +0.000 C 
BRANCH  16  18
ATOM     17  C   UNL     1      -1.455  10.333  18.279  0.00  0.00    +0.000 C 
ATOM     18  N   UNL     1      -0.393  10.523  19.281  0.00  0.00    +0.000 NA
BRANCH  18  19
ATOM     19  C   UNL     1      -0.474  11.888  19.851  0.00  0.00    +0.000 C 
BRANCH  19  20
ATOM     20  C   UNL     1      -1.237  11.943  21.132  0.00  0.00    +0.000 A 
ATOM     21  C   UNL     1      -1.013  11.437  22.397  0.00  0.00    +0.000 A 
ATOM     22  C   UNL     1      -2.137  11.799  23.176  0.00  0.00    +0.000 A 
ATOM     23  C   UNL     1      -2.971  12.505  22.342  0.00  0.00    +0.000 A 
ATOM     24  O   UNL     1      -2.432  12.602  21.100  0.00  0.00    +0.000 OA
ENDBRANCH  19  20
ENDBRANCH  18  19
ENDBRANCH  16  18
ENDBRANCH   1  16
TORSDOF 5
ENDMDL
MODEL 6
REMARK VINA RESULT:      -7.3      1.730      7.970
REMARK  Name = 
REMARK  6 active torsions:
REMARK  status: ('A' for Active; 'I' for Inactive)
REMARK    1  A    between atoms: C_1  and  N_2
REMARK    2  A    between atoms: N_2  and  C_3
REMARK    3  A    between atoms: N_2  and  C_19
REMARK    4  A    between atoms: C_3  and  C_4
REMARK    5  A    between atoms: C_7  and  C_8
REMARK    6  A    between atoms: C_19  and  C_20
REMARK                            x       y       z     vdW  Elec       q    Type
REMARK                         _______ _______ _______ _____ _____    ______ ____
ROOT
ATOM      1  C   UNL     1       2.576   7.284  18.808  0.00  0.00    +0.000 A 
ATOM      2  C   UNL     1       2.829   8.140  17.763  0.00  0.00    +0.000 A 
ATOM      3  O   UNL     1       2.103   9.278  17.957  0.00  0.00    +0.000 OA
ATOM      4  C   UNL     1       1.425   9.055  19.131  0.00  0.00    +0.000 A 
ATOM      5  N   UNL     1       1.707   7.895  19.690  0.00  0.00    +0.000 NA
ENDROOT
BRANCH   4   6
ATOM      6  C   UNL     1       0.515  10.115  19.577  0.00  0.00    +0.000 A 
ATOM      7  C   UNL     1       0.832  10.816  20.756  0.00  0.00    +0.000 A 
ATOM      8  C   UNL     1      -0.012  11.802  21.255  0.00  0.00    +0.000 A 
ATOM      9  C   UNL     1      -1.190  12.108  20.583  0.00  0.00    +0.000 A 
ATOM     10  C   UNL     1      -1.538  11.443  19.398  0.00  0.00    +0.000 A 
ATOM     11  C   UNL     1      -2.732  11.783  18.738  0.00  0.00    +0.000 A 
ATOM     12  C   UNL     1      -3.105  11.157  17.551  0.00  0.00    +0.000 A 
ATOM     13  C   UNL     1      -2.284  10.183  17.006  0.00  0.00    +0.000 A 
ATOM     14  C   UNL     1      -1.097   9.831  17.652  0.00  0.00    +0.000 A 
ATOM     15  C   UNL     1      -0.687  10.437  18.869  0.00  0.00    +0.000 A 
ENDBRANCH   4   6
BRANCH   1  16
ATOM     16  C   UNL     1       3.086   5.906  19.068  0.00  0.00    +0.000 C 
BRANCH  16  18
ATOM     17  C   UNL     1       1.686   4.306  17.885  0.00  0.00    +0.000 C 
ATOM     18  N   UNL     1       2.964   5.038  17.874  0.00  0.00    +0.000 NA
BRANCH  18  19
ATOM     19  C   UNL     1       4.094   4.080  17.882  0.00  0.00    +0.000 C 
BRANCH  19  20
ATOM     20  C   UNL     1       5.413   4.729  17.626  0.00  0.00    +0.000 A 
ATOM     21  C   UNL     1       5.863   5.634  16.684  0.00  0.00    +0.000 A 
ATOM     22  C   UNL     1       7.240   5.830  16.947  0.00  0.00    +0.000 A 
ATOM     23  C   UNL     1       7.540   5.041  18.031  0.00  0.00    +0.000 A 
ATOM     24  O   UNL     1       6.438   4.372  18.454  0.00  0.00    +0.000 OA
ENDBRANCH  19  20
ENDBRANCH  18  19
ENDBRANCH  16  18
ENDBRANCH   1  16
TORSDOF 5
ENDMDL
MODEL 7
REMARK VINA RESULT:      -7.2      1.277      2.730
REMARK  Name = 
REMARK  6 active torsions:
REMARK  status: ('A' for Active; 'I' for Inactive)
REMARK    1  A    between atoms: C_1  and  N_2
REMARK    2  A    between atoms: N_2  and  C_3
REMARK    3  A    between atoms: N_2  and  C_19
REMARK    4  A    between atoms: C_3  and  C_4
REMARK    5  A    between atoms: C_7  and  C_8
REMARK    6  A    between atoms: C_19  and  C_20
REMARK                            x       y       z     vdW  Elec       q    Type
REMARK                         _______ _______ _______ _____ _____    ______ ____
ROOT
ATOM      1  C   UNL     1       1.547   9.272  18.799  0.00  0.00    +0.000 A 
ATOM      2  C   UNL     1       1.586   8.634  20.016  0.00  0.00    +0.000 A 
ATOM      3  O   UNL     1       2.054   7.368  19.820  0.00  0.00    +0.000 OA
ATOM      4  C   UNL     1       2.277   7.291  18.466  0.00  0.00    +0.000 A 
ATOM      5  N   UNL     1       2.023   8.416  17.827  0.00  0.00    +0.000 NA
ENDROOT
BRANCH   4   6
ATOM      6  C   UNL     1       2.754   6.004  17.950  0.00  0.00    +0.000 A 
ATOM      7  C   UNL     1       1.865   4.913  17.952  0.00  0.00    +0.000 A 
ATOM      8  C   UNL     1       2.269   3.655  17.517  0.00  0.00    +0.000 A 
ATOM      9  C   UNL     1       3.571   3.466  17.069  0.00  0.00    +0.000 A 
ATOM     10  C   UNL     1       4.486   4.528  17.038  0.00  0.00    +0.000 A 
ATOM     11  C   UNL     1       5.793   4.303  16.571  0.00  0.00    +0.000 A 
ATOM     12  C   UNL     1       6.725   5.337  16.510  0.00  0.00    +0.000 A 
ATOM     13  C   UNL     1       6.361   6.611  16.913  0.00  0.00    +0.000 A 
ATOM     14  C   UNL     1       5.067   6.848  17.384  0.00  0.00    +0.000 A 
ATOM     15  C   UNL     1       4.091   5.821  17.473  0.00  0.00    +0.000 A 
ENDBRANCH   4   6
BRANCH   1  16
ATOM     16  C   UNL     1       1.092  10.649  18.450  0.00  0.00    +0.000 C 
BRANCH  16  18
ATOM     17  C   UNL     1      -0.721  10.741  20.069  0.00  0.00    +0.000 C 
ATOM     18  N   UNL     1      -0.368  10.814  18.641  0.00  0.00    +0.000 NA
BRANCH  18  19
ATOM     19  C   UNL     1      -1.056   9.736  17.895  0.00  0.00    +0.000 C 
BRANCH  19  20
ATOM     20  C   UNL     1      -2.209  10.228  17.085  0.00  0.00    +0.000 A 
ATOM     21  C   UNL     1      -2.573  10.085  15.761  0.00  0.00    +0.000 A 
ATOM     22  C   UNL     1      -3.763  10.831  15.592  0.00  0.00    +0.000 A 
ATOM     23  C   UNL     1      -4.052  11.376  16.820  0.00  0.00    +0.000 A 
ATOM     24  O   UNL     1      -3.118  11.012  17.735  0.00  0.00    +0.000 OA
ENDBRANCH  19  20
ENDBRANCH  18  19
ENDBRANCH  16  18
ENDBRANCH   1  16
TORSDOF 5
ENDMDL
MODEL 8
REMARK VINA RESULT:      -7.2      2.083      2.968
REMARK  Name = 
REMARK  6 active torsions:
REMARK  status: ('A' for Active; 'I' for Inactive)
REMARK    1  A    between atoms: C_1  and  N_2
REMARK    2  A    between atoms: N_2  and  C_3
REMARK    3  A    between atoms: N_2  and  C_19
REMARK    4  A    between atoms: C_3  and  C_4
REMARK    5  A    between atoms: C_7  and  C_8
REMARK    6  A    between atoms: C_19  and  C_20
REMARK                            x       y       z     vdW  Elec       q    Type
REMARK                         _______ _______ _______ _____ _____    ______ ____
ROOT
ATOM      1  C   UNL     1       1.293   9.031  19.018  0.00  0.00    +0.000 A 
ATOM      2  C   UNL     1       1.734   9.582  17.839  0.00  0.00    +0.000 A 
ATOM      3  O   UNL     1       2.611   8.712  17.262  0.00  0.00    +0.000 OA
ATOM      4  C   UNL     1       2.667   7.653  18.136  0.00  0.00    +0.000 A 
ATOM      5  N   UNL     1       1.869   7.787  19.177  0.00  0.00    +0.000 NA
ENDROOT
BRANCH   4   6
ATOM      6  C   UNL     1       3.582   6.560  17.788  0.00  0.00    +0.000 A 
ATOM      7  C   UNL     1       4.895   6.887  17.401  0.00  0.00    +0.000 A 
ATOM      8  C   UNL     1       5.798   5.901  17.017  0.00  0.00    +0.000 A 
ATOM      9  C   UNL     1       5.403   4.568  17.014  0.00  0.00    +0.000 A 
ATOM     10  C   UNL     1       4.109   4.197  17.405  0.00  0.00    +0.000 A 
ATOM     11  C   UNL     1       3.746   2.839  17.400  0.00  0.00    +0.000 A 
ATOM     12  C   UNL     1       2.475   2.430  17.797  0.00  0.00    +0.000 A 
ATOM     13  C   UNL     1       1.549   3.375  18.207  0.00  0.00    +0.000 A 
ATOM     14  C   UNL     1       1.894   4.730  18.213  0.00  0.00    +0.000 A 
ATOM     15  C   UNL     1       3.174   5.188  17.807  0.00  0.00    +0.000 A 
ENDBRANCH   4   6
BRANCH   1  16
ATOM     16  C   UNL     1       0.354   9.575  20.042  0.00  0.00    +0.000 C 
BRANCH  16  18
ATOM     17  C   UNL     1       0.828   9.570  22.428  0.00  0.00    +0.000 C 
ATOM     18  N   UNL     1       1.073  10.253  21.147  0.00  0.00    +0.000 NA
BRANCH  18  19
ATOM     19  C   UNL     1       0.593  11.652  21.220  0.00  0.00    +0.000 C 
BRANCH  19  20
ATOM     20  C   UNL     1       1.509  12.620  20.550  0.00  0.00    +0.000 A 
ATOM     21  C   UNL     1       1.642  13.062  19.249  0.00  0.00    +0.000 A 
ATOM     22  C   UNL     1       2.735  13.962  19.243  0.00  0.00    +0.000 A 
ATOM     23  C   UNL     1       3.193  14.017  20.538  0.00  0.00    +0.000 A 
ATOM     24  O   UNL     1       2.454  13.210  21.340  0.00  0.00    +0.000 OA
ENDBRANCH  19  20
ENDBRANCH  18  19
ENDBRANCH  16  18
ENDBRANCH   1  16
TORSDOF 5
ENDMDL
MODEL 9
REMARK VINA RESULT:      -7.2      2.359      7.920
REMARK  Name = 
REMARK  6 active torsions:
REMARK  status: ('A' for Active; 'I' for Inactive)
REMARK    1  A    between atoms: C_1  and  N_2
REMARK    2  A    between atoms: N_2  and  C_3
REMARK    3  A    between atoms: N_2  and  C_19
REMARK    4  A    between atoms: C_3  and  C_4
REMARK    5  A    between atoms: C_7  and  C_8
REMARK    6  A    between atoms: C_19  and  C_20
REMARK                            x       y       z     vdW  Elec       q    Type
REMARK                         _______ _______ _______ _____ _____    ______ ____
ROOT
ATOM      1  C   UNL     1       2.880   6.703  18.696  0.00  0.00    +0.000 A 
ATOM      2  C   UNL     1       2.487   5.852  19.701  0.00  0.00    +0.000 A 
ATOM      3  O   UNL     1       1.717   6.555  20.579  0.00  0.00    +0.000 OA
ATOM      4  C   UNL     1       1.680   7.828  20.060  0.00  0.00    +0.000 A 
ATOM      5  N   UNL     1       2.330   7.949  18.919  0.00  0.00    +0.000 NA
ENDROOT
BRANCH   4   6
ATOM      6  C   UNL     1       0.941   8.832  20.832  0.00  0.00    +0.000 A 
ATOM      7  C   UNL     1       1.015   8.782  22.237  0.00  0.00    +0.000 A 
ATOM      8  C   UNL     1       0.303   9.678  23.027  0.00  0.00    +0.000 A 
ATOM      9  C   UNL     1      -0.495  10.644  22.426  0.00  0.00    +0.000 A 
ATOM     10  C   UNL     1      -0.587  10.738  21.030  0.00  0.00    +0.000 A 
ATOM     11  C   UNL     1      -1.397  11.733  20.454  0.00  0.00    +0.000 A 
ATOM     12  C   UNL     1      -1.502  11.869  19.072  0.00  0.00    +0.000 A 
ATOM     13  C   UNL     1      -0.794  11.011  18.245  0.00  0.00    +0.000 A 
ATOM     14  C   UNL     1       0.011  10.014  18.803  0.00  0.00    +0.000 A 
ATOM     15  C   UNL     1       0.136   9.836  20.205  0.00  0.00    +0.000 A 
ENDBRANCH   4   6
BRANCH   1  16
ATOM     16  C   UNL     1       3.750   6.453  17.509  0.00  0.00    +0.000 C 
BRANCH  16  18
ATOM     17  C   UNL     1       6.121   6.986  17.403  0.00  0.00    +0.000 C 
ATOM     18  N   UNL     1       5.115   6.033  17.903  0.00  0.00    +0.000 NA
BRANCH  18  19
ATOM     19  C   UNL     1       5.367   4.689  17.334  0.00  0.00    +0.000 C 
BRANCH  19  20
ATOM     20  C   UNL     1       4.689   3.597  18.092  0.00  0.00    +0.000 A 
ATOM     21  C   UNL     1       3.679   2.708  17.782  0.00  0.00    +0.000 A 
ATOM     22  C   UNL     1       3.453   1.939  18.949  0.00  0.00    +0.000 A 
ATOM     23  C   UNL     1       4.340   2.403  19.892  0.00  0.00    +0.000 A 
ATOM     24  O   UNL     1       5.097   3.406  19.380  0.00  0.00    +0.000 OA
ENDBRANCH  19  20
ENDBRANCH  18  19
ENDBRANCH  16  18
ENDBRANCH   1  16
TORSDOF 5
ENDMDL
