MODEL 1
REMARK VINA RESULT:      -7.1      0.000      0.000
REMARK  Name = 
REMARK  7 active torsions:
REMARK  status: ('A' for Active; 'I' for Inactive)
REMARK    1  A    between atoms: C_1  and  C_2
REMARK    2  A    between atoms: C_2  and  C_3
REMARK    3  A    between atoms: C_3  and  O_4
REMARK    4  A    between atoms: C_3  and  C_5
REMARK    5  A    between atoms: C_5  and  N_6
REMARK    6  A    between atoms: C_10  and  C_12
REMARK    7  A    between atoms: N_15  and  C_16
REMARK                            x       y       z     vdW  Elec       q    Type
REMARK                         _______ _______ _______ _____ _____    ______ ____
ROOT
ATOM      1  N   UNL     1       4.734   4.000  17.713  0.00  0.00    +0.000 NA
ATOM      2  C   UNL     1       3.667   3.607  18.661  0.00  0.00    +0.000 C 
ATOM      3  C   UNL     1       3.181   4.693  19.645  0.00  0.00    +0.000 C 
ATOM      4  N   UNL     1       2.970   5.994  19.007  0.00  0.00    +0.000 N 
ATOM      5  C   UNL     1       2.158   6.900  19.697  0.00  0.00    +0.000 C 
ATOM      6  O   UNL     1       1.657   6.620  20.781  0.00  0.00    +0.000 OA
ATOM      7  C   UNL     1       4.048   6.402  18.105  0.00  0.00    +0.000 C 
ATOM      8  C   UNL     1       4.360   5.289  17.089  0.00  0.00    +0.000 C 
ENDROOT
BRANCH   5   9
ATOM      9  C   UNL     1       1.902   8.197  19.091  0.00  0.00    +0.000 A 
ATOM     10  C   UNL     1       2.030   8.667  17.766  0.00  0.00    +0.000 A 
ATOM     11  N   UNL     1       1.585   9.915  17.606  0.00  0.00    +0.000 NA
ATOM     12  N   UNL     1       1.174  10.285  18.845  0.00  0.00    +0.000 N 
ATOM     13  C   UNL     1       1.331   9.263  19.750  0.00  0.00    +0.000 A 
BRANCH  12  14
ATOM     14  C   UNL     1       0.576  11.539  19.080  0.00  0.00    +0.000 A 
ATOM     15  C   UNL     1       1.380  12.680  19.191  0.00  0.00    +0.000 A 
ATOM     16  C   UNL     1       0.782  13.938  19.281  0.00  0.00    +0.000 A 
ATOM     17  C   UNL     1      -0.609  14.055  19.310  0.00  0.00    +0.000 A 
ATOM     18  C   UNL     1      -1.407  12.915  19.260  0.00  0.00    +0.000 A 
ATOM     19  C   UNL     1      -0.814  11.663  19.138  0.00  0.00    +0.000 A 
ATOM     20  F   UNL     1      -1.614  10.587  19.132  0.00  0.00    +0.000 F 
ENDBRANCH  12  14
ENDBRANCH   5   9
BRANCH   1  21
ATOM     21  C   UNL     1       6.074   4.097  18.314  0.00  0.00    +0.000 C 
BRANCH  21  22
ATOM     22  C   UNL     1       7.120   4.965  17.581  0.00  0.00    +0.000 C 
BRANCH  22  24
ATOM     23  C   UNL     1       7.689   7.422  17.682  0.00  0.00    +0.000 C 
ATOM     24  C   UNL     1       7.699   6.097  18.437  0.00  0.00    +0.000 C 
ENDBRANCH  22  24
BRANCH  22  25
ATOM     25  O   UNL     1       8.187   4.104  17.158  0.00  0.00    +0.000 OA
ATOM     26  H   UNL     1       8.837   4.060  17.881  0.00  0.00    +0.000 HD
ENDBRANCH  22  25
ENDBRANCH  21  22
ENDBRANCH   1  21
TORSDOF 6
ENDMDL
MODEL 2
REMARK VINA RESULT:      -7.0      3.458      9.184
REMARK  Name = 
REMARK  7 active torsions:
REMARK  status: ('A' for Active; 'I' for Inactive)
REMARK    1  A    between atoms: C_1  and  C_2
REMARK    2  A    between atoms: C_2  and  C_3
REMARK    3  A    between atoms: C_3  and  O_4
REMARK    4  A    between atoms: C_3  and  C_5
REMARK    5  A    between atoms: C_5  and  N_6
REMARK    6  A    between atoms: C_10  and  C_12
REMARK    7  A    between atoms: N_15  and  C_16
REMARK                            x       y       z     vdW  Elec       q    Type
REMARK                         _______ _______ _______ _____ _____    ______ ____
ROOT
ATOM      1  N   UNL     1      -2.709  11.811  17.970  0.00  0.00    +0.000 NA
ATOM      2  C   UNL     1      -1.975  12.380  19.124  0.00  0.00    +0.000 C 
ATOM      3  C   UNL     1      -1.145  11.391  19.972  0.00  0.00    +0.000 C 
ATOM      4  N   UNL     1      -0.362  10.456  19.162  0.00  0.00    +0.000 N 
ATOM      5  C   UNL     1       0.707   9.823  19.804  0.00  0.00    +0.000 C 
ATOM      6  O   UNL     1       0.967  10.036  20.984  0.00  0.00    +0.000 OA
ATOM      7  C   UNL     1      -1.103   9.859  18.050  0.00  0.00    +0.000 C 
ATOM      8  C   UNL     1      -1.785  10.948  17.201  0.00  0.00    +0.000 C 
ENDROOT
BRANCH   5   9
ATOM      9  C   UNL     1       1.527   8.902  19.033  0.00  0.00    +0.000 A 
ATOM     10  C   UNL     1       2.327   9.078  17.884  0.00  0.00    +0.000 A 
ATOM     11  N   UNL     1       3.011   7.983  17.547  0.00  0.00    +0.000 NA
ATOM     12  N   UNL     1       2.647   7.062  18.475  0.00  0.00    +0.000 N 
ATOM     13  C   UNL     1       1.775   7.595  19.393  0.00  0.00    +0.000 A 
BRANCH  12  14
ATOM     14  C   UNL     1       3.211   5.771  18.493  0.00  0.00    +0.000 A 
ATOM     15  C   UNL     1       4.480   5.578  19.054  0.00  0.00    +0.000 A 
ATOM     16  C   UNL     1       4.977   4.283  19.200  0.00  0.00    +0.000 A 
ATOM     17  C   UNL     1       4.237   3.189  18.748  0.00  0.00    +0.000 A 
ATOM     18  C   UNL     1       3.001   3.387  18.136  0.00  0.00    +0.000 A 
ATOM     19  C   UNL     1       2.490   4.674  18.018  0.00  0.00    +0.000 A 
ATOM     20  F   UNL     1       1.315   4.827  17.389  0.00  0.00    +0.000 F 
ENDBRANCH  12  14
ENDBRANCH   5   9
BRANCH   1  21
ATOM     21  C   UNL     1      -3.922  11.059  18.334  0.00  0.00    +0.000 C 
BRANCH  21  22
ATOM     22  C   UNL     1      -5.183  11.287  17.472  0.00  0.00    +0.000 C 
BRANCH  22  24
ATOM     23  C   UNL     1      -7.281  12.631  17.876  0.00  0.00    +0.000 C 
ATOM     24  C   UNL     1      -6.479  11.399  18.283  0.00  0.00    +0.000 C 
ENDBRANCH  22  24
BRANCH  22  25
ATOM     25  O   UNL     1      -4.990  12.497  16.725  0.00  0.00    +0.000 OA
ATOM     26  H   UNL     1      -5.569  12.457  15.942  0.00  0.00    +0.000 HD
ENDBRANCH  22  25
ENDBRANCH  21  22
ENDBRANCH   1  21
TORSDOF 6
ENDMDL
MODEL 3
REMARK VINA RESULT:      -6.9      2.309      3.618
REMARK  Name = 
REMARK  7 active torsions:
REMARK  status: ('A' for Active; 'I' for Inactive)
REMARK    1  A    between atoms: C_1  and  C_2
REMARK    2  A    between atoms: C_2  and  C_3
REMARK    3  A    between atoms: C_3  and  O_4
REMARK    4  A    between atoms: C_3  and  C_5
REMARK    5  A    between atoms: C_5  and  N_6
REMARK    6  A    between atoms: C_10  and  C_12
REMARK    7  A    between atoms: N_15  and  C_16
REMARK                            x       y       z     vdW  Elec       q    Type
REMARK                         _______ _______ _______ _____ _____    ______ ____
ROOT
ATOM      1  N   UNL     1       4.488   4.675  18.592  0.00  0.00    +0.000 NA
ATOM      2  C   UNL     1       4.914   5.822  17.757  0.00  0.00    +0.000 C 
ATOM      3  C   UNL     1       3.825   6.850  17.386  0.00  0.00    +0.000 C 
ATOM      4  N   UNL     1       2.968   7.215  18.516  0.00  0.00    +0.000 N 
ATOM      5  C   UNL     1       2.250   8.407  18.391  0.00  0.00    +0.000 C 
ATOM      6  O   UNL     1       2.328   9.105  17.386  0.00  0.00    +0.000 OA
ATOM      7  C   UNL     1       2.510   6.076  19.313  0.00  0.00    +0.000 C 
ATOM      8  C   UNL     1       3.696   5.189  19.732  0.00  0.00    +0.000 C 
ENDROOT
BRANCH   5   9
ATOM      9  C   UNL     1       1.402   8.821  19.499  0.00  0.00    +0.000 A 
ATOM     10  C   UNL     1       1.224   8.306  20.801  0.00  0.00    +0.000 A 
ATOM     11  N   UNL     1       0.415   9.053  21.555  0.00  0.00    +0.000 NA
ATOM     12  N   UNL     1       0.037  10.067  20.737  0.00  0.00    +0.000 N 
ATOM     13  C   UNL     1       0.635   9.965  19.505  0.00  0.00    +0.000 A 
BRANCH  12  14
ATOM     14  C   UNL     1      -0.786  11.115  21.195  0.00  0.00    +0.000 A 
ATOM     15  C   UNL     1      -0.633  11.597  22.501  0.00  0.00    +0.000 A 
ATOM     16  C   UNL     1      -1.347  12.725  22.907  0.00  0.00    +0.000 A 
ATOM     17  C   UNL     1      -2.245  13.341  22.034  0.00  0.00    +0.000 A 
ATOM     18  C   UNL     1      -2.441  12.825  20.755  0.00  0.00    +0.000 A 
ATOM     19  C   UNL     1      -1.707  11.721  20.338  0.00  0.00    +0.000 A 
ATOM     20  F   UNL     1      -1.952  11.231  19.114  0.00  0.00    +0.000 F 
ENDBRANCH  12  14
ENDBRANCH   5   9
BRANCH   1  21
ATOM     21  C   UNL     1       3.724   3.647  17.866  0.00  0.00    +0.000 C 
BRANCH  21  22
ATOM     22  C   UNL     1       3.165   2.465  18.689  0.00  0.00    +0.000 C 
BRANCH  22  24
ATOM     23  C   UNL     1       0.850   2.784  19.639  0.00  0.00    +0.000 C 
ATOM     24  C   UNL     1       1.667   2.217  18.483  0.00  0.00    +0.000 C 
ENDBRANCH  22  24
BRANCH  22  25
ATOM     25  O   UNL     1       3.893   1.287  18.312  0.00  0.00    +0.000 OA
ATOM     26  H   UNL     1       3.973   0.722  19.102  0.00  0.00    +0.000 HD
ENDBRANCH  22  25
ENDBRANCH  21  22
ENDBRANCH   1  21
TORSDOF 6
ENDMDL
MODEL 4
REMARK VINA RESULT:      -6.9      3.313      8.879
REMARK  Name = 
REMARK  7 active torsions:
REMARK  status: ('A' for Active; 'I' for Inactive)
REMARK    1  A    between atoms: C_1  and  C_2
REMARK    2  A    between atoms: C_2  and  C_3
REMARK    3  A    between atoms: C_3  and  O_4
REMARK    4  A    between atoms: C_3  and  C_5
REMARK    5  A    between atoms: C_5  and  N_6
REMARK    6  A    between atoms: C_10  and  C_12
REMARK    7  A    between atoms: N_15  and  C_16
REMARK                            x       y       z     vdW  Elec       q    Type
REMARK                         _______ _______ _______ _____ _____    ______ ____
ROOT
ATOM      1  N   UNL     1      -2.095  11.662  17.619  0.00  0.00    +0.000 NA
ATOM      2  C   UNL     1      -1.185  12.535  18.396  0.00  0.00    +0.000 C 
ATOM      3  C   UNL     1      -0.580  11.933  19.682  0.00  0.00    +0.000 C 
ATOM      4  N   UNL     1      -0.094  10.564  19.504  0.00  0.00    +0.000 N 
ATOM      5  C   UNL     1       0.819  10.100  20.456  0.00  0.00    +0.000 C 
ATOM      6  O   UNL     1       1.184  10.801  21.394  0.00  0.00    +0.000 OA
ATOM      7  C   UNL     1      -1.015   9.690  18.776  0.00  0.00    +0.000 C 
ATOM      8  C   UNL     1      -1.452  10.339  17.451  0.00  0.00    +0.000 C 
ENDROOT
BRANCH   5   9
ATOM      9  C   UNL     1       1.347   8.753  20.307  0.00  0.00    +0.000 A 
ATOM     10  C   UNL     1       1.252   7.601  21.118  0.00  0.00    +0.000 A 
ATOM     11  N   UNL     1       1.800   6.520  20.562  0.00  0.00    +0.000 NA
ATOM     12  N   UNL     1       2.282   6.963  19.373  0.00  0.00    +0.000 N 
ATOM     13  C   UNL     1       2.001   8.295  19.185  0.00  0.00    +0.000 A 
BRANCH  12  14
ATOM     14  C   UNL     1       2.891   6.088  18.452  0.00  0.00    +0.000 A 
ATOM     15  C   UNL     1       4.084   6.466  17.822  0.00  0.00    +0.000 A 
ATOM     16  C   UNL     1       4.761   5.547  17.021  0.00  0.00    +0.000 A 
ATOM     17  C   UNL     1       4.228   4.273  16.807  0.00  0.00    +0.000 A 
ATOM     18  C   UNL     1       3.012   3.919  17.385  0.00  0.00    +0.000 A 
ATOM     19  C   UNL     1       2.352   4.824  18.210  0.00  0.00    +0.000 A 
ATOM     20  F   UNL     1       1.165   4.459  18.716  0.00  0.00    +0.000 F 
ENDBRANCH  12  14
ENDBRANCH   5   9
BRANCH   1  21
ATOM     21  C   UNL     1      -3.435  11.503  18.210  0.00  0.00    +0.000 C 
BRANCH  21  22
ATOM     22  C   UNL     1      -4.616  11.278  17.240  0.00  0.00    +0.000 C 
BRANCH  22  24
ATOM     23  C   UNL     1      -6.822  11.076  18.449  0.00  0.00    +0.000 C 
ATOM     24  C   UNL     1      -5.905  11.998  17.651  0.00  0.00    +0.000 C 
ENDBRANCH  22  24
BRANCH  22  25
ATOM     25  O   UNL     1      -4.212  11.741  15.943  0.00  0.00    +0.000 OA
ATOM     26  H   UNL     1      -4.150  12.712  15.981  0.00  0.00    +0.000 HD
ENDBRANCH  22  25
ENDBRANCH  21  22
ENDBRANCH   1  21
TORSDOF 6
ENDMDL
MODEL 5
REMARK VINA RESULT:      -6.8      1.073      1.402
REMARK  Name = 
REMARK  7 active torsions:
REMARK  status: ('A' for Active; 'I' for Inactive)
REMARK    1  A    between atoms: C_1  and  C_2
REMARK    2  A    between atoms: C_2  and  C_3
REMARK    3  A    between atoms: C_3  and  O_4
REMARK    4  A    between atoms: C_3  and  C_5
REMARK    5  A    between atoms: C_5  and  N_6
REMARK    6  A    between atoms: C_10  and  C_12
REMARK    7  A    between atoms: N_15  and  C_16
REMARK                            x       y       z     vdW  Elec       q    Type
REMARK                         _______ _______ _______ _____ _____    ______ ____
ROOT
ATOM      1  N   UNL     1       4.723   4.129  17.558  0.00  0.00    +0.000 NA
ATOM      2  C   UNL     1       3.725   3.622  18.528  0.00  0.00    +0.000 C 
ATOM      3  C   UNL     1       3.249   4.612  19.612  0.00  0.00    +0.000 C 
ATOM      4  N   UNL     1       2.952   5.945  19.084  0.00  0.00    +0.000 N 
ATOM      5  C   UNL     1       2.142   6.762  19.879  0.00  0.00    +0.000 C 
ATOM      6  O   UNL     1       1.711   6.383  20.963  0.00  0.00    +0.000 OA
ATOM      7  C   UNL     1       3.963   6.464  18.161  0.00  0.00    +0.000 C 
ATOM      8  C   UNL     1       4.265   5.442  17.051  0.00  0.00    +0.000 C 
ENDROOT
BRANCH   5   9
ATOM      9  C   UNL     1       1.801   8.087  19.384  0.00  0.00    +0.000 A 
ATOM     10  C   UNL     1       2.014   8.718  18.140  0.00  0.00    +0.000 A 
ATOM     11  N   UNL     1       1.445   9.922  18.057  0.00  0.00    +0.000 NA
ATOM     12  N   UNL     1       0.863  10.101  19.270  0.00  0.00    +0.000 N 
ATOM     13  C   UNL     1       1.042   9.003  20.077  0.00  0.00    +0.000 A 
BRANCH  12  14
ATOM     14  C   UNL     1       0.100  11.249  19.560  0.00  0.00    +0.000 A 
ATOM     15  C   UNL     1      -1.224  11.333  19.108  0.00  0.00    +0.000 A 
ATOM     16  C   UNL     1      -2.022  12.403  19.514  0.00  0.00    +0.000 A 
ATOM     17  C   UNL     1      -1.493  13.409  20.325  0.00  0.00    +0.000 A 
ATOM     18  C   UNL     1      -0.160  13.355  20.724  0.00  0.00    +0.000 A 
ATOM     19  C   UNL     1       0.629  12.273  20.347  0.00  0.00    +0.000 A 
ATOM     20  F   UNL     1       1.917  12.277  20.718  0.00  0.00    +0.000 F 
ENDBRANCH  12  14
ENDBRANCH   5   9
BRANCH   1  21
ATOM     21  C   UNL     1       6.089   4.241  18.097  0.00  0.00    +0.000 C 
BRANCH  21  22
ATOM     22  C   UNL     1       7.052   5.221  17.390  0.00  0.00    +0.000 C 
BRANCH  22  24
ATOM     23  C   UNL     1       7.697   7.651  17.606  0.00  0.00    +0.000 C 
ATOM     24  C   UNL     1       7.629   6.300  18.312  0.00  0.00    +0.000 C 
ENDBRANCH  22  24
BRANCH  22  25
ATOM     25  O   UNL     1       8.130   4.452  16.835  0.00  0.00    +0.000 OA
ATOM     26  H   UNL     1       8.534   4.979  16.123  0.00  0.00    +0.000 HD
ENDBRANCH  22  25
ENDBRANCH  21  22
ENDBRANCH   1  21
TORSDOF 6
ENDMDL
MODEL 6
REMARK VINA RESULT:      -6.8      2.574      3.853
REMARK  Name = 
REMARK  7 active torsions:
REMARK  status: ('A' for Active; 'I' for Inactive)
REMARK    1  A    between atoms: C_1  and  C_2
REMARK    2  A    between atoms: C_2  and  C_3
REMARK    3  A    between atoms: C_3  and  O_4
REMARK    4  A    between atoms: C_3  and  C_5
REMARK    5  A    between atoms: C_5  and  N_6
REMARK    6  A    between atoms: C_10  and  C_12
REMARK    7  A    between atoms: N_15  and  C_16
REMARK                            x       y       z     vdW  Elec       q    Type
REMARK                         _______ _______ _______ _____ _____    ______ ____
ROOT
ATOM      1  N   UNL     1       4.299   4.644  18.667  0.00  0.00    +0.000 NA
ATOM      2  C   UNL     1       4.638   5.739  17.730  0.00  0.00    +0.000 C 
ATOM      3  C   UNL     1       3.524   6.766  17.434  0.00  0.00    +0.000 C 
ATOM      4  N   UNL     1       2.809   7.202  18.635  0.00  0.00    +0.000 N 
ATOM      5  C   UNL     1       2.094   8.399  18.532  0.00  0.00    +0.000 C 
ATOM      6  O   UNL     1       2.063   9.043  17.489  0.00  0.00    +0.000 OA
ATOM      7  C   UNL     1       2.434   6.113  19.538  0.00  0.00    +0.000 C 
ATOM      8  C   UNL     1       3.651   5.228  19.863  0.00  0.00    +0.000 C 
ENDROOT
BRANCH   5   9
ATOM      9  C   UNL     1       1.386   8.883  19.707  0.00  0.00    +0.000 A 
ATOM     10  C   UNL     1       1.508   8.578  21.080  0.00  0.00    +0.000 A 
ATOM     11  N   UNL     1       0.727   9.332  21.857  0.00  0.00    +0.000 NA
ATOM     12  N   UNL     1       0.064  10.135  20.986  0.00  0.00    +0.000 N 
ATOM     13  C   UNL     1       0.460   9.901  19.691  0.00  0.00    +0.000 A 
BRANCH  12  14
ATOM     14  C   UNL     1      -0.827  11.130  21.433  0.00  0.00    +0.000 A 
ATOM     15  C   UNL     1      -1.251  12.129  20.547  0.00  0.00    +0.000 A 
ATOM     16  C   UNL     1      -2.240  13.028  20.946  0.00  0.00    +0.000 A 
ATOM     17  C   UNL     1      -2.769  12.966  22.237  0.00  0.00    +0.000 A 
ATOM     18  C   UNL     1      -2.303  12.010  23.137  0.00  0.00    +0.000 A 
ATOM     19  C   UNL     1      -1.340  11.093  22.731  0.00  0.00    +0.000 A 
ATOM     20  F   UNL     1      -0.890  10.214  23.638  0.00  0.00    +0.000 F 
ENDBRANCH  12  14
ENDBRANCH   5   9
BRANCH   1  21
ATOM     21  C   UNL     1       3.444   3.594  18.089  0.00  0.00    +0.000 C 
BRANCH  21  22
ATOM     22  C   UNL     1       3.270   2.292  18.902  0.00  0.00    +0.000 C 
BRANCH  22  24
ATOM     23  C   UNL     1       0.772   2.567  18.666  0.00  0.00    +0.000 C 
ATOM     24  C   UNL     1       1.911   2.172  19.601  0.00  0.00    +0.000 C 
ENDBRANCH  22  24
BRANCH  22  25
ATOM     25  O   UNL     1       3.434   1.187  18.001  0.00  0.00    +0.000 OA
ATOM     26  H   UNL     1       2.723   0.547  18.185  0.00  0.00    +0.000 HD
ENDBRANCH  22  25
ENDBRANCH  21  22
ENDBRANCH   1  21
TORSDOF 6
ENDMDL
MODEL 7
REMARK VINA RESULT:      -6.7      3.544      9.205
REMARK  Name = 
REMARK  7 active torsions:
REMARK  status: ('A' for Active; 'I' for Inactive)
REMARK    1  A    between atoms: C_1  and  C_2
REMARK    2  A    between atoms: C_2  and  C_3
REMARK    3  A    between atoms: C_3  and  O_4
REMARK    4  A    between atoms: C_3  and  C_5
REMARK    5  A    between atoms: C_5  and  N_6
REMARK    6  A    between atoms: C_10  and  C_12
REMARK    7  A    between atoms: N_15  and  C_16
REMARK                            x       y       z     vdW  Elec       q    Type
REMARK                         _______ _______ _______ _____ _____    ______ ____
ROOT
ATOM      1  N   UNL     1      -2.347  12.158  18.395  0.00  0.00    +0.000 NA
ATOM      2  C   UNL     1      -1.481  12.779  19.423  0.00  0.00    +0.000 C 
ATOM      3  C   UNL     1      -0.801  11.822  20.426  0.00  0.00    +0.000 C 
ATOM      4  N   UNL     1      -0.225  10.636  19.790  0.00  0.00    +0.000 N 
ATOM      5  C   UNL     1       0.742   9.945  20.526  0.00  0.00    +0.000 C 
ATOM      6  O   UNL     1       1.082  10.310  21.646  0.00  0.00    +0.000 OA
ATOM      7  C   UNL     1      -1.102   9.996  18.808  0.00  0.00    +0.000 C 
ATOM      8  C   UNL     1      -1.618  11.024  17.785  0.00  0.00    +0.000 C 
ENDROOT
BRANCH   5   9
ATOM      9  C   UNL     1       1.358   8.772  19.925  0.00  0.00    +0.000 A 
ATOM     10  C   UNL     1       2.002   8.569  18.685  0.00  0.00    +0.000 A 
ATOM     11  N   UNL     1       2.530   7.350  18.560  0.00  0.00    +0.000 NA
ATOM     12  N   UNL     1       2.216   6.729  19.725  0.00  0.00    +0.000 N 
ATOM     13  C   UNL     1       1.533   7.569  20.571  0.00  0.00    +0.000 A 
BRANCH  12  14
ATOM     14  C   UNL     1       2.656   5.420  20.005  0.00  0.00    +0.000 A 
ATOM     15  C   UNL     1       1.867   4.579  20.800  0.00  0.00    +0.000 A 
ATOM     16  C   UNL     1       2.231   3.242  20.960  0.00  0.00    +0.000 A 
ATOM     17  C   UNL     1       3.402   2.757  20.373  0.00  0.00    +0.000 A 
ATOM     18  C   UNL     1       4.217   3.609  19.633  0.00  0.00    +0.000 A 
ATOM     19  C   UNL     1       3.839   4.934  19.446  0.00  0.00    +0.000 A 
ATOM     20  F   UNL     1       4.670   5.733  18.761  0.00  0.00    +0.000 F 
ENDBRANCH  12  14
ENDBRANCH   5   9
BRANCH   1  21
ATOM     21  C   UNL     1      -3.656  11.709  18.898  0.00  0.00    +0.000 C 
BRANCH  21  22
ATOM     22  C   UNL     1      -4.714  11.293  17.851  0.00  0.00    +0.000 C 
BRANCH  22  24
ATOM     23  C   UNL     1      -6.261  11.717  19.799  0.00  0.00    +0.000 C 
ATOM     24  C   UNL     1      -6.107  11.045  18.439  0.00  0.00    +0.000 C 
ENDBRANCH  22  24
BRANCH  22  25
ATOM     25  O   UNL     1      -4.796  12.338  16.871  0.00  0.00    +0.000 OA
ATOM     26  H   UNL     1      -4.144  13.021  17.111  0.00  0.00    +0.000 HD
ENDBRANCH  22  25
ENDBRANCH  21  22
ENDBRANCH   1  21
TORSDOF 6
ENDMDL
MODEL 8
REMARK VINA RESULT:      -6.7      3.334      8.770
REMARK  Name = 
REMARK  7 active torsions:
REMARK  status: ('A' for Active; 'I' for Inactive)
REMARK    1  A    between atoms: C_1  and  C_2
REMARK    2  A    between atoms: C_2  and  C_3
REMARK    3  A    between atoms: C_3  and  O_4
REMARK    4  A    between atoms: C_3  and  C_5
REMARK    5  A    between atoms: C_5  and  N_6
REMARK    6  A    between atoms: C_10  and  C_12
REMARK    7  A    between atoms: N_15  and  C_16
REMARK                            x       y       z     vdW  Elec       q    Type
REMARK                         _______ _______ _______ _____ _____    ______ ____
ROOT
ATOM      1  N   UNL     1       1.169  14.562  19.674  0.00  0.00    +0.000 NA
ATOM      2  C   UNL     1      -0.227  14.114  19.468  0.00  0.00    +0.000 C 
ATOM      3  C   UNL     1      -0.430  12.860  18.592  0.00  0.00    +0.000 C 
ATOM      4  N   UNL     1       0.508  11.780  18.906  0.00  0.00    +0.000 N 
ATOM      5  C   UNL     1       0.147  10.499  18.476  0.00  0.00    +0.000 C 
ATOM      6  O   UNL     1      -0.894  10.295  17.862  0.00  0.00    +0.000 OA
ATOM      7  C   UNL     1       1.896  12.218  19.063  0.00  0.00    +0.000 C 
ATOM      8  C   UNL     1       1.990  13.391  20.056  0.00  0.00    +0.000 C 
ENDROOT
BRANCH   5   9
ATOM      9  C   UNL     1       1.038   9.392  18.786  0.00  0.00    +0.000 A 
ATOM     10  C   UNL     1       1.319   8.707  19.988  0.00  0.00    +0.000 A 
ATOM     11  N   UNL     1       2.133   7.664  19.821  0.00  0.00    +0.000 NA
ATOM     12  N   UNL     1       2.412   7.667  18.493  0.00  0.00    +0.000 N 
ATOM     13  C   UNL     1       1.748   8.680  17.844  0.00  0.00    +0.000 A 
BRANCH  12  14
ATOM     14  C   UNL     1       3.209   6.665  17.904  0.00  0.00    +0.000 A 
ATOM     15  C   UNL     1       4.472   6.994  17.395  0.00  0.00    +0.000 A 
ATOM     16  C   UNL     1       5.317   5.981  16.942  0.00  0.00    +0.000 A 
ATOM     17  C   UNL     1       4.890   4.652  16.951  0.00  0.00    +0.000 A 
ATOM     18  C   UNL     1       3.612   4.332  17.402  0.00  0.00    +0.000 A 
ATOM     19  C   UNL     1       2.780   5.337  17.883  0.00  0.00    +0.000 A 
ATOM     20  F   UNL     1       1.543   4.995  18.272  0.00  0.00    +0.000 F 
ENDBRANCH  12  14
ENDBRANCH   5   9
BRANCH   1  21
ATOM     21  C   UNL     1       1.765  15.242  18.512  0.00  0.00    +0.000 C 
BRANCH  21  22
ATOM     22  C   UNL     1       2.009  16.763  18.628  0.00  0.00    +0.000 C 
BRANCH  22  24
ATOM     23  C   UNL     1       1.138  18.262  16.794  0.00  0.00    +0.000 C 
ATOM     24  C   UNL     1       0.834  17.620  18.144  0.00  0.00    +0.000 C 
ENDBRANCH  22  24
BRANCH  22  25
ATOM     25  O   UNL     1       2.272  17.061  20.007  0.00  0.00    +0.000 OA
ATOM     26  H   UNL     1       2.678  16.272  20.408  0.00  0.00    +0.000 HD
ENDBRANCH  22  25
ENDBRANCH  21  22
ENDBRANCH   1  21
TORSDOF 6
ENDMDL
MODEL 9
REMARK VINA RESULT:      -6.7      2.112      2.899
REMARK  Name = 
REMARK  7 active torsions:
REMARK  status: ('A' for Active; 'I' for Inactive)
REMARK    1  A    between atoms: C_1  and  C_2
REMARK    2  A    between atoms: C_2  and  C_3
REMARK    3  A    between atoms: C_3  and  O_4
REMARK    4  A    between atoms: C_3  and  C_5
REMARK    5  A    between atoms: C_5  and  N_6
REMARK    6  A    between atoms: C_10  and  C_12
REMARK    7  A    between atoms: N_15  and  C_16
REMARK                            x       y       z     vdW  Elec       q    Type
REMARK                         _______ _______ _______ _____ _____    ______ ____
ROOT
ATOM      1  N   UNL     1       3.324   5.538  18.318  0.00  0.00    +0.000 NA
ATOM      2  C   UNL     1       2.788   5.319  19.681  0.00  0.00    +0.000 C 
ATOM      3  C   UNL     1       2.534   6.579  20.536  0.00  0.00    +0.000 C 
ATOM      4  N   UNL     1       1.871   7.653  19.794  0.00  0.00    +0.000 N 
ATOM      5  C   UNL     1       1.240   8.639  20.559  0.00  0.00    +0.000 C 
ATOM      6  O   UNL     1       1.249   8.608  21.785  0.00  0.00    +0.000 OA
ATOM      7  C   UNL     1       2.432   7.900  18.465  0.00  0.00    +0.000 C 
ATOM      8  C   UNL     1       2.521   6.592  17.658  0.00  0.00    +0.000 C 
ENDROOT
BRANCH   5   9
ATOM      9  C   UNL     1       0.549   9.715  19.865  0.00  0.00    +0.000 A 
ATOM     10  C   UNL     1       0.979  10.980  19.409  0.00  0.00    +0.000 A 
ATOM     11  N   UNL     1       0.046  11.633  18.715  0.00  0.00    +0.000 NA
ATOM     12  N   UNL     1      -1.025  10.799  18.726  0.00  0.00    +0.000 N 
ATOM     13  C   UNL     1      -0.741   9.630  19.389  0.00  0.00    +0.000 A 
BRANCH  12  14
ATOM     14  C   UNL     1      -2.212  11.113  18.035  0.00  0.00    +0.000 A 
ATOM     15  C   UNL     1      -2.346  10.753  16.688  0.00  0.00    +0.000 A 
ATOM     16  C   UNL     1      -3.570  10.936  16.045  0.00  0.00    +0.000 A 
ATOM     17  C   UNL     1      -4.642  11.520  16.725  0.00  0.00    +0.000 A 
ATOM     18  C   UNL     1      -4.489  11.933  18.046  0.00  0.00    +0.000 A 
ATOM     19  C   UNL     1      -3.279  11.722  18.698  0.00  0.00    +0.000 A 
ATOM     20  F   UNL     1      -3.159  12.168  19.957  0.00  0.00    +0.000 F 
ENDBRANCH  12  14
ENDBRANCH   5   9
BRANCH   1  21
ATOM     21  C   UNL     1       4.754   5.889  18.278  0.00  0.00    +0.000 C 
BRANCH  21  22
ATOM     22  C   UNL     1       5.703   4.918  17.543  0.00  0.00    +0.000 C 
BRANCH  22  24
ATOM     23  C   UNL     1       7.325   6.850  17.602  0.00  0.00    +0.000 C 
ATOM     24  C   UNL     1       6.877   5.607  16.839  0.00  0.00    +0.000 C 
ENDBRANCH  22  24
BRANCH  22  25
ATOM     25  O   UNL     1       6.215   3.989  18.511  0.00  0.00    +0.000 OA
ATOM     26  H   UNL     1       6.367   3.141  18.056  0.00  0.00    +0.000 HD
ENDBRANCH  22  25
ENDBRANCH  21  22
ENDBRANCH   1  21
TORSDOF 6
ENDMDL
