MODEL 1
REMARK VINA RESULT:      -6.9      0.000      0.000
REMARK  Name = 
REMARK  2 active torsions:
REMARK  status: ('A' for Active; 'I' for Inactive)
REMARK    1  A    between atoms: C_2  and  C_3
REMARK    2  A    between atoms: C_6  and  C_7
REMARK                            x       y       z     vdW  Elec       q    Type
REMARK                         _______ _______ _______ _____ _____    ______ ____
ROOT
ATOM      1  C   UNL     1       6.466   4.802  15.530  0.00  0.00    +0.000 A 
ATOM      2  C   UNL     1       5.247   4.133  15.628  0.00  0.00    +0.000 A 
ATOM      3  C   UNL     1       4.666   3.924  16.880  0.00  0.00    +0.000 A 
ATOM      4  C   UNL     1       5.298   4.364  18.061  0.00  0.00    +0.000 A 
ATOM      5  C   UNL     1       6.531   5.033  17.939  0.00  0.00    +0.000 A 
ATOM      6 CL   UNL     1       7.412   5.608  19.309  0.00  0.00    +0.000 Cl
ATOM      7  C   UNL     1       7.104   5.254  16.684  0.00  0.00    +0.000 A 
ENDROOT
BRANCH   4   8
ATOM      8  C   UNL     1       4.656   4.080  19.410  0.00  0.00    +0.000 C 
ATOM      9  C   UNL     1       4.278   2.587  19.536  0.00  0.00    +0.000 C 
ATOM     10  C   UNL     1       3.518   2.340  20.839  0.00  0.00    +0.000 C 
ATOM     11  C   UNL     1       2.205   3.126  20.858  0.00  0.00    +0.000 C 
ATOM     12  C   UNL     1       2.388   4.525  20.386  0.00  0.00    +0.000 A 
ATOM     13  C   UNL     1       1.602   5.651  20.488  0.00  0.00    +0.000 A 
ATOM     14  N   UNL     1       2.211   6.724  19.890  0.00  0.00    +0.000 NA
ATOM     15  C   UNL     1       3.356   6.270  19.433  0.00  0.00    +0.000 A 
ATOM     16  N   UNL     1       3.494   4.934  19.676  0.00  0.00    +0.000 N 
ENDBRANCH   4   8
BRANCH   1  18
ATOM     17  N   UNL     1       7.538   5.206  13.202  0.00  0.00    +0.000 NA
ATOM     18  C   UNL     1       7.061   5.026  14.243  0.00  0.00    +0.000 C 
ENDBRANCH   1  18
TORSDOF 2
ENDMDL
MODEL 2
REMARK VINA RESULT:      -6.8      1.368      1.773
REMARK  Name = 
REMARK  2 active torsions:
REMARK  status: ('A' for Active; 'I' for Inactive)
REMARK    1  A    between atoms: C_2  and  C_3
REMARK    2  A    between atoms: C_6  and  C_7
REMARK                            x       y       z     vdW  Elec       q    Type
REMARK                         _______ _______ _______ _____ _____    ______ ____
ROOT
ATOM      1  C   UNL     1       6.420   4.731  15.913  0.00  0.00    +0.000 A 
ATOM      2  C   UNL     1       7.071   4.970  17.122  0.00  0.00    +0.000 A 
ATOM      3  C   UNL     1       6.417   4.714  18.328  0.00  0.00    +0.000 A 
ATOM      4  C   UNL     1       5.093   4.229  18.352  0.00  0.00    +0.000 A 
ATOM      5  C   UNL     1       4.452   4.000  17.119  0.00  0.00    +0.000 A 
ATOM      6 CL   UNL     1       2.828   3.420  17.013  0.00  0.00    +0.000 Cl
ATOM      7  C   UNL     1       5.114   4.244  15.913  0.00  0.00    +0.000 A 
ENDROOT
BRANCH   4   8
ATOM      8  C   UNL     1       4.397   4.002  19.685  0.00  0.00    +0.000 C 
ATOM      9  C   UNL     1       3.942   2.532  19.825  0.00  0.00    +0.000 C 
ATOM     10  C   UNL     1       3.131   2.347  21.107  0.00  0.00    +0.000 C 
ATOM     11  C   UNL     1       1.859   3.197  21.072  0.00  0.00    +0.000 C 
ATOM     12  C   UNL     1       2.126   4.576  20.583  0.00  0.00    +0.000 A 
ATOM     13  C   UNL     1       1.396   5.742  20.641  0.00  0.00    +0.000 A 
ATOM     14  N   UNL     1       2.075   6.773  20.044  0.00  0.00    +0.000 NA
ATOM     15  C   UNL     1       3.210   6.254  19.630  0.00  0.00    +0.000 A 
ATOM     16  N   UNL     1       3.272   4.917  19.900  0.00  0.00    +0.000 N 
ENDBRANCH   4   8
BRANCH   1  18
ATOM     17  N   UNL     1       7.638   5.186  13.668  0.00  0.00    +0.000 NA
ATOM     18  C   UNL     1       7.094   4.986  14.671  0.00  0.00    +0.000 C 
ENDBRANCH   1  18
TORSDOF 2
ENDMDL
MODEL 3
REMARK VINA RESULT:      -6.2      2.336      5.909
REMARK  Name = 
REMARK  2 active torsions:
REMARK  status: ('A' for Active; 'I' for Inactive)
REMARK    1  A    between atoms: C_2  and  C_3
REMARK    2  A    between atoms: C_6  and  C_7
REMARK                            x       y       z     vdW  Elec       q    Type
REMARK                         _______ _______ _______ _____ _____    ______ ____
ROOT
ATOM      1  C   UNL     1       2.455   3.380  20.294  0.00  0.00    +0.000 A 
ATOM      2  C   UNL     1       3.446   2.627  19.664  0.00  0.00    +0.000 A 
ATOM      3  C   UNL     1       4.105   3.141  18.546  0.00  0.00    +0.000 A 
ATOM      4  C   UNL     1       3.778   4.409  18.024  0.00  0.00    +0.000 A 
ATOM      5  C   UNL     1       2.771   5.150  18.673  0.00  0.00    +0.000 A 
ATOM      6 CL   UNL     1       2.270   6.709  18.124  0.00  0.00    +0.000 Cl
ATOM      7  C   UNL     1       2.122   4.640  19.800  0.00  0.00    +0.000 A 
ENDROOT
BRANCH   4   8
ATOM      8  C   UNL     1       4.488   4.917  16.779  0.00  0.00    +0.000 C 
ATOM      9  C   UNL     1       4.798   3.755  15.809  0.00  0.00    +0.000 C 
ATOM     10  C   UNL     1       5.624   4.256  14.625  0.00  0.00    +0.000 C 
ATOM     11  C   UNL     1       6.973   4.802  15.098  0.00  0.00    +0.000 C 
ATOM     12  C   UNL     1       6.832   5.672  16.296  0.00  0.00    +0.000 A 
ATOM     13  C   UNL     1       7.677   6.582  16.891  0.00  0.00    +0.000 A 
ATOM     14  N   UNL     1       7.087   7.147  17.992  0.00  0.00    +0.000 NA
ATOM     15  C   UNL     1       5.894   6.601  18.072  0.00  0.00    +0.000 A 
ATOM     16  N   UNL     1       5.705   5.673  17.088  0.00  0.00    +0.000 N 
ENDBRANCH   4   8
BRANCH   1  18
ATOM     17  N   UNL     1       1.238   2.433  22.380  0.00  0.00    +0.000 NA
ATOM     18  C   UNL     1       1.782   2.858  21.450  0.00  0.00    +0.000 C 
ENDBRANCH   1  18
TORSDOF 2
ENDMDL
MODEL 4
REMARK VINA RESULT:      -6.2      2.877      5.999
REMARK  Name = 
REMARK  2 active torsions:
REMARK  status: ('A' for Active; 'I' for Inactive)
REMARK    1  A    between atoms: C_2  and  C_3
REMARK    2  A    between atoms: C_6  and  C_7
REMARK                            x       y       z     vdW  Elec       q    Type
REMARK                         _______ _______ _______ _____ _____    ______ ____
ROOT
ATOM      1  C   UNL     1       1.332   9.027  20.183  0.00  0.00    +0.000 A 
ATOM      2  C   UNL     1       1.554   9.191  18.817  0.00  0.00    +0.000 A 
ATOM      3  C   UNL     1       1.994   8.112  18.048  0.00  0.00    +0.000 A 
ATOM      4  C   UNL     1       2.238   6.852  18.630  0.00  0.00    +0.000 A 
ATOM      5  C   UNL     1       2.013   6.709  20.014  0.00  0.00    +0.000 A 
ATOM      6 CL   UNL     1       2.287   5.222  20.848  0.00  0.00    +0.000 Cl
ATOM      7  C   UNL     1       1.559   7.787  20.779  0.00  0.00    +0.000 A 
ENDROOT
BRANCH   4   8
ATOM      8  C   UNL     1       2.759   5.711  17.770  0.00  0.00    +0.000 C 
ATOM      9  C   UNL     1       1.900   4.441  17.960  0.00  0.00    +0.000 C 
ATOM     10  C   UNL     1       2.508   3.268  17.193  0.00  0.00    +0.000 C 
ATOM     11  C   UNL     1       3.903   2.936  17.726  0.00  0.00    +0.000 C 
ATOM     12  C   UNL     1       4.723   4.159  17.938  0.00  0.00    +0.000 A 
ATOM     13  C   UNL     1       6.073   4.354  18.123  0.00  0.00    +0.000 A 
ATOM     14  N   UNL     1       6.357   5.687  18.274  0.00  0.00    +0.000 NA
ATOM     15  C   UNL     1       5.201   6.306  18.176  0.00  0.00    +0.000 A 
ATOM     16  N   UNL     1       4.175   5.421  18.009  0.00  0.00    +0.000 N 
ENDBRANCH   4   8
BRANCH   1  18
ATOM     17  N   UNL     1       0.499  11.027  21.609  0.00  0.00    +0.000 NA
ATOM     18  C   UNL     1       0.871  10.132  20.974  0.00  0.00    +0.000 C 
ENDBRANCH   1  18
TORSDOF 2
ENDMDL
MODEL 5
REMARK VINA RESULT:      -6.1      3.167      5.962
REMARK  Name = 
REMARK  2 active torsions:
REMARK  status: ('A' for Active; 'I' for Inactive)
REMARK    1  A    between atoms: C_2  and  C_3
REMARK    2  A    between atoms: C_6  and  C_7
REMARK                            x       y       z     vdW  Elec       q    Type
REMARK                         _______ _______ _______ _____ _____    ______ ____
ROOT
ATOM      1  C   UNL     1       1.143   9.606  18.947  0.00  0.00    +0.000 A 
ATOM      2  C   UNL     1       1.898   9.390  17.795  0.00  0.00    +0.000 A 
ATOM      3  C   UNL     1       2.678   8.238  17.679  0.00  0.00    +0.000 A 
ATOM      4  C   UNL     1       2.733   7.286  18.718  0.00  0.00    +0.000 A 
ATOM      5  C   UNL     1       1.966   7.526  19.875  0.00  0.00    +0.000 A 
ATOM      6 CL   UNL     1       1.957   6.445  21.222  0.00  0.00    +0.000 Cl
ATOM      7  C   UNL     1       1.175   8.673  19.983  0.00  0.00    +0.000 A 
ENDROOT
BRANCH   4   8
ATOM      8  C   UNL     1       3.627   6.064  18.574  0.00  0.00    +0.000 C 
ATOM      9  C   UNL     1       4.849   6.379  17.683  0.00  0.00    +0.000 C 
ATOM     10  C   UNL     1       5.669   5.113  17.439  0.00  0.00    +0.000 C 
ATOM     11  C   UNL     1       4.841   4.065  16.691  0.00  0.00    +0.000 C 
ATOM     12  C   UNL     1       3.470   3.937  17.253  0.00  0.00    +0.000 A 
ATOM     13  C   UNL     1       2.494   2.976  17.115  0.00  0.00    +0.000 A 
ATOM     14  N   UNL     1       1.380   3.304  17.844  0.00  0.00    +0.000 NA
ATOM     15  C   UNL     1       1.666   4.446  18.428  0.00  0.00    +0.000 A 
ATOM     16  N   UNL     1       2.907   4.890  18.072  0.00  0.00    +0.000 N 
ENDBRANCH   4   8
BRANCH   1  18
ATOM     17  N   UNL     1      -0.324  11.735  19.161  0.00  0.00    +0.000 NA
ATOM     18  C   UNL     1       0.333  10.785  19.064  0.00  0.00    +0.000 C 
ENDBRANCH   1  18
TORSDOF 2
ENDMDL
MODEL 6
REMARK VINA RESULT:      -6.1      2.260      6.034
REMARK  Name = 
REMARK  2 active torsions:
REMARK  status: ('A' for Active; 'I' for Inactive)
REMARK    1  A    between atoms: C_2  and  C_3
REMARK    2  A    between atoms: C_6  and  C_7
REMARK                            x       y       z     vdW  Elec       q    Type
REMARK                         _______ _______ _______ _____ _____    ______ ____
ROOT
ATOM      1  C   UNL     1       2.146   3.183  20.919  0.00  0.00    +0.000 A 
ATOM      2  C   UNL     1       3.036   2.388  20.199  0.00  0.00    +0.000 A 
ATOM      3  C   UNL     1       3.837   2.960  19.208  0.00  0.00    +0.000 A 
ATOM      4  C   UNL     1       3.753   4.334  18.906  0.00  0.00    +0.000 A 
ATOM      5  C   UNL     1       2.843   5.118  19.642  0.00  0.00    +0.000 A 
ATOM      6 CL   UNL     1       2.637   6.809  19.358  0.00  0.00    +0.000 Cl
ATOM      7  C   UNL     1       2.053   4.546  20.642  0.00  0.00    +0.000 A 
ENDROOT
BRANCH   4   8
ATOM      8  C   UNL     1       4.609   4.914  17.791  0.00  0.00    +0.000 C 
ATOM      9  C   UNL     1       4.427   4.112  16.483  0.00  0.00    +0.000 C 
ATOM     10  C   UNL     1       5.387   4.621  15.409  0.00  0.00    +0.000 C 
ATOM     11  C   UNL     1       6.841   4.422  15.843  0.00  0.00    +0.000 C 
ATOM     12  C   UNL     1       7.060   4.832  17.256  0.00  0.00    +0.000 A 
ATOM     13  C   UNL     1       8.198   5.100  17.982  0.00  0.00    +0.000 A 
ATOM     14  N   UNL     1       7.884   5.450  19.270  0.00  0.00    +0.000 NA
ATOM     15  C   UNL     1       6.572   5.406  19.337  0.00  0.00    +0.000 A 
ATOM     16  N   UNL     1       6.028   5.001  18.152  0.00  0.00    +0.000 N 
ENDBRANCH   4   8
BRANCH   1  18
ATOM     17  N   UNL     1       0.670   2.130  22.775  0.00  0.00    +0.000 NA
ATOM     18  C   UNL     1       1.328   2.599  21.944  0.00  0.00    +0.000 C 
ENDBRANCH   1  18
TORSDOF 2
ENDMDL
MODEL 7
REMARK VINA RESULT:      -6.1      2.151      2.724
REMARK  Name = 
REMARK  2 active torsions:
REMARK  status: ('A' for Active; 'I' for Inactive)
REMARK    1  A    between atoms: C_2  and  C_3
REMARK    2  A    between atoms: C_6  and  C_7
REMARK                            x       y       z     vdW  Elec       q    Type
REMARK                         _______ _______ _______ _____ _____    ______ ____
ROOT
ATOM      1  C   UNL     1       5.869   5.242  15.721  0.00  0.00    +0.000 A 
ATOM      2  C   UNL     1       5.488   4.040  16.315  0.00  0.00    +0.000 A 
ATOM      3  C   UNL     1       4.458   4.024  17.258  0.00  0.00    +0.000 A 
ATOM      4  C   UNL     1       3.798   5.210  17.637  0.00  0.00    +0.000 A 
ATOM      5  C   UNL     1       4.202   6.415  17.029  0.00  0.00    +0.000 A 
ATOM      6 CL   UNL     1       3.482   7.936  17.418  0.00  0.00    +0.000 Cl
ATOM      7  C   UNL     1       5.224   6.426  16.076  0.00  0.00    +0.000 A 
ENDROOT
BRANCH   4   8
ATOM      8  C   UNL     1       2.710   5.161  18.699  0.00  0.00    +0.000 C 
ATOM      9  C   UNL     1       3.281   5.515  20.090  0.00  0.00    +0.000 C 
ATOM     10  C   UNL     1       2.211   5.335  21.166  0.00  0.00    +0.000 C 
ATOM     11  C   UNL     1       1.756   3.876  21.239  0.00  0.00    +0.000 C 
ATOM     12  C   UNL     1       1.523   3.298  19.889  0.00  0.00    +0.000 A 
ATOM     13  C   UNL     1       0.863   2.167  19.461  0.00  0.00    +0.000 A 
ATOM     14  N   UNL     1       0.916   2.059  18.096  0.00  0.00    +0.000 NA
ATOM     15  C   UNL     1       1.592   3.109  17.685  0.00  0.00    +0.000 A 
ATOM     16  N   UNL     1       2.014   3.871  18.737  0.00  0.00    +0.000 N 
ENDBRANCH   4   8
BRANCH   1  18
ATOM     17  N   UNL     1       7.772   5.279  13.959  0.00  0.00    +0.000 NA
ATOM     18  C   UNL     1       6.922   5.260  14.745  0.00  0.00    +0.000 C 
ENDBRANCH   1  18
TORSDOF 2
ENDMDL
MODEL 8
REMARK VINA RESULT:      -5.9      2.777      6.230
REMARK  Name = 
REMARK  2 active torsions:
REMARK  status: ('A' for Active; 'I' for Inactive)
REMARK    1  A    between atoms: C_2  and  C_3
REMARK    2  A    between atoms: C_6  and  C_7
REMARK                            x       y       z     vdW  Elec       q    Type
REMARK                         _______ _______ _______ _____ _____    ______ ____
ROOT
ATOM      1  C   UNL     1       1.228   8.332  21.175  0.00  0.00    +0.000 A 
ATOM      2  C   UNL     1       1.340   6.966  21.429  0.00  0.00    +0.000 A 
ATOM      3  C   UNL     1       1.814   6.109  20.434  0.00  0.00    +0.000 A 
ATOM      4  C   UNL     1       2.171   6.596  19.160  0.00  0.00    +0.000 A 
ATOM      5  C   UNL     1       2.045   7.979  18.923  0.00  0.00    +0.000 A 
ATOM      6 CL   UNL     1       2.436   8.697  17.401  0.00  0.00    +0.000 Cl
ATOM      7  C   UNL     1       1.584   8.837  19.924  0.00  0.00    +0.000 A 
ENDROOT
BRANCH   4   8
ATOM      8  C   UNL     1       2.643   5.627  18.088  0.00  0.00    +0.000 C 
ATOM      9  C   UNL     1       1.876   4.288  18.180  0.00  0.00    +0.000 C 
ATOM     10  C   UNL     1       2.447   3.279  17.185  0.00  0.00    +0.000 C 
ATOM     11  C   UNL     1       3.910   2.967  17.508  0.00  0.00    +0.000 C 
ATOM     12  C   UNL     1       4.687   4.199  17.809  0.00  0.00    +0.000 A 
ATOM     13  C   UNL     1       6.039   4.455  17.873  0.00  0.00    +0.000 A 
ATOM     14  N   UNL     1       6.272   5.768  18.188  0.00  0.00    +0.000 NA
ATOM     15  C   UNL     1       5.084   6.317  18.310  0.00  0.00    +0.000 A 
ATOM     16  N   UNL     1       4.090   5.399  18.126  0.00  0.00    +0.000 N 
ENDBRANCH   4   8
BRANCH   1  18
ATOM     17  N   UNL     1       0.359   9.929  23.025  0.00  0.00    +0.000 NA
ATOM     18  C   UNL     1       0.749   9.217  22.199  0.00  0.00    +0.000 C 
ENDBRANCH   1  18
TORSDOF 2
ENDMDL
MODEL 9
REMARK VINA RESULT:      -5.9      1.486      1.869
REMARK  Name = 
REMARK  2 active torsions:
REMARK  status: ('A' for Active; 'I' for Inactive)
REMARK    1  A    between atoms: C_2  and  C_3
REMARK    2  A    between atoms: C_6  and  C_7
REMARK                            x       y       z     vdW  Elec       q    Type
REMARK                         _______ _______ _______ _____ _____    ______ ____
ROOT
ATOM      1  C   UNL     1       6.220   4.272  14.309  0.00  0.00    +0.000 A 
ATOM      2  C   UNL     1       4.980   3.789  14.726  0.00  0.00    +0.000 A 
ATOM      3  C   UNL     1       4.496   4.114  15.994  0.00  0.00    +0.000 A 
ATOM      4  C   UNL     1       5.247   4.915  16.879  0.00  0.00    +0.000 A 
ATOM      5  C   UNL     1       6.499   5.389  16.440  0.00  0.00    +0.000 A 
ATOM      6 CL   UNL     1       7.519   6.366  17.433  0.00  0.00    +0.000 Cl
ATOM      7  C   UNL     1       6.975   5.074  15.164  0.00  0.00    +0.000 A 
ENDROOT
BRANCH   4   8
ATOM      8  C   UNL     1       4.706   5.213  18.268  0.00  0.00    +0.000 C 
ATOM      9  C   UNL     1       4.092   3.945  18.903  0.00  0.00    +0.000 C 
ATOM     10  C   UNL     1       3.438   4.284  20.242  0.00  0.00    +0.000 C 
ATOM     11  C   UNL     1       2.288   5.276  20.047  0.00  0.00    +0.000 C 
ATOM     12  C   UNL     1       2.660   6.384  19.127  0.00  0.00    +0.000 A 
ATOM     13  C   UNL     1       2.094   7.614  18.874  0.00  0.00    +0.000 A 
ATOM     14  N   UNL     1       2.814   8.296  17.928  0.00  0.00    +0.000 NA
ATOM     15  C   UNL     1       3.812   7.503  17.605  0.00  0.00    +0.000 A 
ATOM     16  N   UNL     1       3.742   6.317  18.277  0.00  0.00    +0.000 N 
ENDBRANCH   4   8
BRANCH   1  18
ATOM     17  N   UNL     1       7.121   3.685  11.948  0.00  0.00    +0.000 NA
ATOM     18  C   UNL     1       6.716   3.947  13.002  0.00  0.00    +0.000 C 
ENDBRANCH   1  18
TORSDOF 2
ENDMDL
