MODEL 1
REMARK VINA RESULT:      -8.3      0.000      0.000
REMARK  Name = 
REMARK  6 active torsions:
REMARK  status: ('A' for Active; 'I' for Inactive)
REMARK    1  A    between atoms: C_1  and  O_2
REMARK    2  A    between atoms: O_2  and  C_3
REMARK    3  A    between atoms: C_3  and  C_4
REMARK    4  A    between atoms: N_6  and  C_7
REMARK    5  A    between atoms: N_10  and  C_11
REMARK    6  A    between atoms: C_16  and  C_17
REMARK                            x       y       z     vdW  Elec       q    Type
REMARK                         _______ _______ _______ _____ _____    ______ ____
ROOT
ATOM      1  C   UNL     1       3.683   4.910  17.637  0.00  0.00    +0.000 A 
ATOM      2  N   UNL     1       3.488   3.724  17.007  0.00  0.00    +0.000 NA
ATOM      3  C   UNL     1       2.418   2.992  17.391  0.00  0.00    +0.000 A 
ATOM      4  C   UNL     1       1.567   3.392  18.397  0.00  0.00    +0.000 A 
ATOM      5  N   UNL     1       1.755   4.542  19.067  0.00  0.00    +0.000 NA
ATOM      6  C   UNL     1       2.804   5.325  18.665  0.00  0.00    +0.000 A 
ENDROOT
BRANCH   6   7
ATOM      7  C   UNL     1       2.881   6.701  19.413  0.00  0.00    +0.000 C 
ATOM      8  C   UNL     1       2.127   7.909  18.827  0.00  0.00    +0.000 C 
ATOM      9  N   UNL     1       1.250   7.888  19.956  0.00  0.00    +0.000 N 
ATOM     10  C   UNL     1       0.698   9.021  20.588  0.00  0.00    +0.000 A 
ATOM     11  C   UNL     1      -0.103   8.822  21.711  0.00  0.00    +0.000 A 
ATOM     12  C   UNL     1      -0.593   9.920  22.404  0.00  0.00    +0.000 A 
ATOM     13  C   UNL     1      -0.282  11.202  21.957  0.00  0.00    +0.000 A 
ATOM     14  C   UNL     1      -0.727  12.347  22.639  0.00  0.00    +0.000 A 
ATOM     15  C   UNL     1      -0.415  13.615  22.160  0.00  0.00    +0.000 A 
ATOM     16  C   UNL     1       0.337  13.744  20.999  0.00  0.00    +0.000 A 
ATOM     17  C   UNL     1       0.787  12.601  20.330  0.00  0.00    +0.000 A 
ATOM     18  C   UNL     1       0.497  11.323  20.786  0.00  0.00    +0.000 A 
ATOM     19  N   UNL     1       0.968  10.256  20.119  0.00  0.00    +0.000 NA
ATOM     20  C   UNL     1       2.013   6.901  20.664  0.00  0.00    +0.000 C 
ENDBRANCH   6   7
BRANCH   1  24
ATOM     21  C   UNL     1       7.107   5.948  17.038  0.00  0.00    +0.000 C 
ATOM     22  C   UNL     1       6.568   5.452  15.704  0.00  0.00    +0.000 C 
ATOM     23  C   UNL     1       5.066   5.710  15.794  0.00  0.00    +0.000 C 
ATOM     24  N   UNL     1       4.741   5.743  17.232  0.00  0.00    +0.000 N 
ATOM     25  C   UNL     1       5.980   5.543  18.007  0.00  0.00    +0.000 C 
BRANCH  21  28
ATOM     26  C   UNL     1       8.086   8.001  18.021  0.00  0.00    +0.000 C 
ATOM     27  O   UNL     1       8.587   7.396  18.965  0.00  0.00    +0.000 OA
ATOM     28  N   UNL     1       7.364   7.384  17.021  0.00  0.00    +0.000 N 
ATOM     29  H   UNL     1       7.096   7.929  16.205  0.00  0.00    +0.000 HD
BRANCH  26  30
ATOM     30  C   UNL     1       8.188   9.524  17.876  0.00  0.00    +0.000 C 
BRANCH  30  32
ATOM     31  C   UNL     1       9.814  11.156  18.396  0.00  0.00    +0.000 C 
ATOM     32  O   UNL     1       8.927  10.166  18.909  0.00  0.00    +0.000 OA
ENDBRANCH  30  32
ENDBRANCH  26  30
ENDBRANCH  21  28
ENDBRANCH   1  24
TORSDOF 5
ENDMDL
MODEL 2
REMARK VINA RESULT:      -8.3      1.400      1.778
REMARK  Name = 
REMARK  6 active torsions:
REMARK  status: ('A' for Active; 'I' for Inactive)
REMARK    1  A    between atoms: C_1  and  O_2
REMARK    2  A    between atoms: O_2  and  C_3
REMARK    3  A    between atoms: C_3  and  C_4
REMARK    4  A    between atoms: N_6  and  C_7
REMARK    5  A    between atoms: N_10  and  C_11
REMARK    6  A    between atoms: C_16  and  C_17
REMARK                            x       y       z     vdW  Elec       q    Type
REMARK                         _______ _______ _______ _____ _____    ______ ____
ROOT
ATOM      1  C   UNL     1       3.002   4.407  18.873  0.00  0.00    +0.000 A 
ATOM      2  N   UNL     1       2.652   3.116  18.646  0.00  0.00    +0.000 NA
ATOM      3  C   UNL     1       1.558   2.652  19.292  0.00  0.00    +0.000 A 
ATOM      4  C   UNL     1       0.833   3.424  20.172  0.00  0.00    +0.000 A 
ATOM      5  N   UNL     1       1.175   4.694  20.448  0.00  0.00    +0.000 NA
ATOM      6  C   UNL     1       2.251   5.203  19.771  0.00  0.00    +0.000 A 
ENDROOT
BRANCH   6   7
ATOM      7  C   UNL     1       2.509   6.723  20.058  0.00  0.00    +0.000 C 
ATOM      8  C   UNL     1       2.328   7.737  18.914  0.00  0.00    +0.000 C 
ATOM      9  N   UNL     1       1.205   8.290  19.605  0.00  0.00    +0.000 N 
ATOM     10  C   UNL     1       0.848   9.654  19.634  0.00  0.00    +0.000 A 
ATOM     11  C   UNL     1      -0.254  10.029  20.399  0.00  0.00    +0.000 A 
ATOM     12  C   UNL     1      -0.580  11.373  20.515  0.00  0.00    +0.000 A 
ATOM     13  C   UNL     1       0.198  12.322  19.855  0.00  0.00    +0.000 A 
ATOM     14  C   UNL     1      -0.071  13.696  19.964  0.00  0.00    +0.000 A 
ATOM     15  C   UNL     1       0.713  14.621  19.281  0.00  0.00    +0.000 A 
ATOM     16  C   UNL     1       1.762  14.176  18.485  0.00  0.00    +0.000 A 
ATOM     17  C   UNL     1       2.031  12.807  18.389  0.00  0.00    +0.000 A 
ATOM     18  C   UNL     1       1.272  11.861  19.063  0.00  0.00    +0.000 A 
ATOM     19  N   UNL     1       1.582  10.558  18.954  0.00  0.00    +0.000 NA
ATOM     20  C   UNL     1       1.424   7.521  20.795  0.00  0.00    +0.000 C 
ENDBRANCH   6   7
BRANCH   1  24
ATOM     21  C   UNL     1       6.396   4.714  17.630  0.00  0.00    +0.000 C 
ATOM     22  C   UNL     1       5.578   4.104  16.501  0.00  0.00    +0.000 C 
ATOM     23  C   UNL     1       4.166   4.633  16.742  0.00  0.00    +0.000 C 
ATOM     24  N   UNL     1       4.090   4.963  18.177  0.00  0.00    +0.000 N 
ATOM     25  C   UNL     1       5.396   4.680  18.802  0.00  0.00    +0.000 C 
BRANCH  21  28
ATOM     26  C   UNL     1       7.694   6.760  18.146  0.00  0.00    +0.000 C 
ATOM     27  O   UNL     1       8.134   6.302  19.196  0.00  0.00    +0.000 OA
ATOM     28  N   UNL     1       6.856   6.059  17.304  0.00  0.00    +0.000 N 
ATOM     29  H   UNL     1       6.642   6.452  16.391  0.00  0.00    +0.000 HD
BRANCH  26  30
ATOM     30  C   UNL     1       8.009   8.185  17.676  0.00  0.00    +0.000 C 
BRANCH  30  32
ATOM     31  C   UNL     1       8.820  10.339  18.209  0.00  0.00    +0.000 C 
ATOM     32  O   UNL     1       8.689   8.986  18.637  0.00  0.00    +0.000 OA
ENDBRANCH  30  32
ENDBRANCH  26  30
ENDBRANCH  21  28
ENDBRANCH   1  24
TORSDOF 5
ENDMDL
MODEL 3
REMARK VINA RESULT:      -7.5      1.153      1.290
REMARK  Name = 
REMARK  6 active torsions:
REMARK  status: ('A' for Active; 'I' for Inactive)
REMARK    1  A    between atoms: C_1  and  O_2
REMARK    2  A    between atoms: O_2  and  C_3
REMARK    3  A    between atoms: C_3  and  C_4
REMARK    4  A    between atoms: N_6  and  C_7
REMARK    5  A    between atoms: N_10  and  C_11
REMARK    6  A    between atoms: C_16  and  C_17
REMARK                            x       y       z     vdW  Elec       q    Type
REMARK                         _______ _______ _______ _____ _____    ______ ____
ROOT
ATOM      1  C   UNL     1       3.427   5.401  18.912  0.00  0.00    +0.000 A 
ATOM      2  N   UNL     1       3.396   4.070  18.655  0.00  0.00    +0.000 NA
ATOM      3  C   UNL     1       2.441   3.344  19.279  0.00  0.00    +0.000 A 
ATOM      4  C   UNL     1       1.547   3.901  20.167  0.00  0.00    +0.000 A 
ATOM      5  N   UNL     1       1.576   5.209  20.472  0.00  0.00    +0.000 NA
ATOM      6  C   UNL     1       2.502   5.974  19.817  0.00  0.00    +0.000 A 
ENDROOT
BRANCH   6   7
ATOM      7  C   UNL     1       2.389   7.505  20.138  0.00  0.00    +0.000 C 
ATOM      8  C   UNL     1       1.242   8.315  19.507  0.00  0.00    +0.000 C 
ATOM      9  N   UNL     1       0.673   8.490  20.807  0.00  0.00    +0.000 N 
ATOM     10  C   UNL     1       0.003   9.644  21.263  0.00  0.00    +0.000 A 
ATOM     11  C   UNL     1      -0.450   9.664  22.580  0.00  0.00    +0.000 A 
ATOM     12  C   UNL     1      -1.038  10.816  23.083  0.00  0.00    +0.000 A 
ATOM     13  C   UNL     1      -1.172  11.929  22.255  0.00  0.00    +0.000 A 
ATOM     14  C   UNL     1      -1.732  13.130  22.724  0.00  0.00    +0.000 A 
ATOM     15  C   UNL     1      -1.868  14.220  21.871  0.00  0.00    +0.000 A 
ATOM     16  C   UNL     1      -1.450  14.114  20.549  0.00  0.00    +0.000 A 
ATOM     17  C   UNL     1      -0.884  12.920  20.092  0.00  0.00    +0.000 A 
ATOM     18  C   UNL     1      -0.729  11.817  20.920  0.00  0.00    +0.000 A 
ATOM     19  N   UNL     1      -0.161  10.698  20.439  0.00  0.00    +0.000 NA
ATOM     20  C   UNL     1       1.799   7.926  21.492  0.00  0.00    +0.000 C 
ENDBRANCH   6   7
BRANCH   1  24
ATOM     21  C   UNL     1       6.380   6.249  16.984  0.00  0.00    +0.000 C 
ATOM     22  C   UNL     1       5.219   6.216  16.000  0.00  0.00    +0.000 C 
ATOM     23  C   UNL     1       4.004   6.574  16.853  0.00  0.00    +0.000 C 
ATOM     24  N   UNL     1       4.355   6.216  18.239  0.00  0.00    +0.000 N 
ATOM     25  C   UNL     1       5.731   5.684  18.262  0.00  0.00    +0.000 C 
BRANCH  21  28
ATOM     26  C   UNL     1       7.910   7.872  18.065  0.00  0.00    +0.000 C 
ATOM     27  O   UNL     1       8.442   7.013  18.762  0.00  0.00    +0.000 OA
ATOM     28  N   UNL     1       6.910   7.598  17.154  0.00  0.00    +0.000 N 
ATOM     29  H   UNL     1       6.613   8.335  16.520  0.00  0.00    +0.000 HD
BRANCH  26  30
ATOM     30  C   UNL     1       8.285   9.355  18.161  0.00  0.00    +0.000 C 
BRANCH  30  32
ATOM     31  C   UNL     1       9.478  11.060  19.278  0.00  0.00    +0.000 C 
ATOM     32  O   UNL     1       9.224   9.661  19.185  0.00  0.00    +0.000 OA
ENDBRANCH  30  32
ENDBRANCH  26  30
ENDBRANCH  21  28
ENDBRANCH   1  24
TORSDOF 5
ENDMDL
MODEL 4
REMARK VINA RESULT:      -7.2      4.551      9.316
REMARK  Name = 
REMARK  6 active torsions:
REMARK  status: ('A' for Active; 'I' for Inactive)
REMARK    1  A    between atoms: C_1  and  O_2
REMARK    2  A    between atoms: O_2  and  C_3
REMARK    3  A    between atoms: C_3  and  C_4
REMARK    4  A    between atoms: N_6  and  C_7
REMARK    5  A    between atoms: N_10  and  C_11
REMARK    6  A    between atoms: C_16  and  C_17
REMARK                            x       y       z     vdW  Elec       q    Type
REMARK                         _______ _______ _______ _____ _____    ______ ____
ROOT
ATOM      1  C   UNL     1      -0.243  10.194  20.528  0.00  0.00    +0.000 A 
ATOM      2  N   UNL     1      -0.546  11.016  21.563  0.00  0.00    +0.000 NA
ATOM      3  C   UNL     1      -0.146  10.628  22.795  0.00  0.00    +0.000 A 
ATOM      4  C   UNL     1       0.513   9.440  23.022  0.00  0.00    +0.000 A 
ATOM      5  N   UNL     1       0.794   8.586  22.023  0.00  0.00    +0.000 NA
ATOM      6  C   UNL     1       0.442   8.978  20.760  0.00  0.00    +0.000 A 
ENDROOT
BRANCH   6   7
ATOM      7  C   UNL     1       0.913   7.983  19.642  0.00  0.00    +0.000 C 
ATOM      8  C   UNL     1       2.108   8.374  18.754  0.00  0.00    +0.000 C 
ATOM      9  N   UNL     1       2.870   7.318  19.345  0.00  0.00    +0.000 N 
ATOM     10  C   UNL     1       3.820   6.517  18.678  0.00  0.00    +0.000 A 
ATOM     11  C   UNL     1       4.439   5.496  19.395  0.00  0.00    +0.000 A 
ATOM     12  C   UNL     1       5.316   4.639  18.746  0.00  0.00    +0.000 A 
ATOM     13  C   UNL     1       5.567   4.822  17.387  0.00  0.00    +0.000 A 
ATOM     14  C   UNL     1       6.421   3.964  16.675  0.00  0.00    +0.000 A 
ATOM     15  C   UNL     1       6.666   4.181  15.323  0.00  0.00    +0.000 A 
ATOM     16  C   UNL     1       6.062   5.255  14.680  0.00  0.00    +0.000 A 
ATOM     17  C   UNL     1       5.204   6.099  15.391  0.00  0.00    +0.000 A 
ATOM     18  C   UNL     1       4.935   5.906  16.739  0.00  0.00    +0.000 A 
ATOM     19  N   UNL     1       4.088   6.733  17.374  0.00  0.00    +0.000 NA
ATOM     20  C   UNL     1       1.753   6.766  20.055  0.00  0.00    +0.000 C 
ENDBRANCH   6   7
BRANCH   1  24
ATOM     21  C   UNL     1      -2.032  11.905  17.876  0.00  0.00    +0.000 C 
ATOM     22  C   UNL     1      -0.766  12.711  18.130  0.00  0.00    +0.000 C 
ATOM     23  C   UNL     1       0.230  11.676  18.650  0.00  0.00    +0.000 C 
ATOM     24  N   UNL     1      -0.575  10.579  19.217  0.00  0.00    +0.000 N 
ATOM     25  C   UNL     1      -2.005  10.894  19.039  0.00  0.00    +0.000 C 
BRANCH  21  28
ATOM     26  C   UNL     1      -3.190  10.973  15.894  0.00  0.00    +0.000 C 
ATOM     27  O   UNL     1      -4.305  11.242  16.330  0.00  0.00    +0.000 OA
ATOM     28  N   UNL     1      -2.020  11.273  16.562  0.00  0.00    +0.000 N 
ATOM     29  H   UNL     1      -1.135  11.141  16.079  0.00  0.00    +0.000 HD
BRANCH  26  30
ATOM     30  C   UNL     1      -2.983  10.241  14.562  0.00  0.00    +0.000 C 
BRANCH  30  32
ATOM     31  C   UNL     1      -4.081   9.615  12.567  0.00  0.00    +0.000 C 
ATOM     32  O   UNL     1      -3.864  10.650  13.522  0.00  0.00    +0.000 OA
ENDBRANCH  30  32
ENDBRANCH  26  30
ENDBRANCH  21  28
ENDBRANCH   1  24
TORSDOF 5
ENDMDL
MODEL 5
REMARK VINA RESULT:      -7.0      3.468      8.915
REMARK  Name = 
REMARK  6 active torsions:
REMARK  status: ('A' for Active; 'I' for Inactive)
REMARK    1  A    between atoms: C_1  and  O_2
REMARK    2  A    between atoms: O_2  and  C_3
REMARK    3  A    between atoms: C_3  and  C_4
REMARK    4  A    between atoms: N_6  and  C_7
REMARK    5  A    between atoms: N_10  and  C_11
REMARK    6  A    between atoms: C_16  and  C_17
REMARK                            x       y       z     vdW  Elec       q    Type
REMARK                         _______ _______ _______ _____ _____    ______ ____
ROOT
ATOM      1  C   UNL     1      -1.137  13.474  21.867  0.00  0.00    +0.000 A 
ATOM      2  N   UNL     1      -2.239  14.185  22.216  0.00  0.00    +0.000 NA
ATOM      3  C   UNL     1      -3.153  13.561  22.993  0.00  0.00    +0.000 A 
ATOM      4  C   UNL     1      -3.014  12.252  23.397  0.00  0.00    +0.000 A 
ATOM      5  N   UNL     1      -1.954  11.509  23.037  0.00  0.00    +0.000 NA
ATOM      6  C   UNL     1      -0.990  12.132  22.291  0.00  0.00    +0.000 A 
ENDROOT
BRANCH   6   7
ATOM      7  C   UNL     1       0.266  11.235  22.016  0.00  0.00    +0.000 C 
ATOM      8  C   UNL     1       0.068   9.724  21.794  0.00  0.00    +0.000 C 
ATOM      9  N   UNL     1       0.482   9.887  20.435  0.00  0.00    +0.000 N 
ATOM     10  C   UNL     1       1.240   8.959  19.691  0.00  0.00    +0.000 A 
ATOM     11  C   UNL     1       1.600   9.299  18.388  0.00  0.00    +0.000 A 
ATOM     12  C   UNL     1       2.415   8.445  17.660  0.00  0.00    +0.000 A 
ATOM     13  C   UNL     1       2.852   7.257  18.244  0.00  0.00    +0.000 A 
ATOM     14  C   UNL     1       3.703   6.373  17.561  0.00  0.00    +0.000 A 
ATOM     15  C   UNL     1       4.111   5.187  18.162  0.00  0.00    +0.000 A 
ATOM     16  C   UNL     1       3.667   4.879  19.443  0.00  0.00    +0.000 A 
ATOM     17  C   UNL     1       2.828   5.768  20.122  0.00  0.00    +0.000 A 
ATOM     18  C   UNL     1       2.410   6.962  19.551  0.00  0.00    +0.000 A 
ATOM     19  N   UNL     1       1.619   7.793  20.251  0.00  0.00    +0.000 NA
ATOM     20  C   UNL     1       0.882  11.252  20.609  0.00  0.00    +0.000 C 
ENDBRANCH   6   7
BRANCH   1  24
ATOM     21  C   UNL     1       0.449  15.982  19.780  0.00  0.00    +0.000 C 
ATOM     22  C   UNL     1       0.893  16.267  21.208  0.00  0.00    +0.000 C 
ATOM     23  C   UNL     1       0.840  14.902  21.889  0.00  0.00    +0.000 C 
ATOM     24  N   UNL     1      -0.122  14.094  21.117  0.00  0.00    +0.000 N 
ATOM     25  C   UNL     1      -0.628  14.901  19.991  0.00  0.00    +0.000 C 
BRANCH  21  28
ATOM     26  C   UNL     1       2.425  16.430  18.353  0.00  0.00    +0.000 C 
ATOM     27  O   UNL     1       2.351  17.646  18.509  0.00  0.00    +0.000 OA
ATOM     28  N   UNL     1       1.559  15.534  18.945  0.00  0.00    +0.000 N 
ATOM     29  H   UNL     1       1.764  14.541  18.878  0.00  0.00    +0.000 HD
BRANCH  26  30
ATOM     30  C   UNL     1       3.481  15.782  17.450  0.00  0.00    +0.000 C 
BRANCH  30  32
ATOM     31  C   UNL     1       5.604  14.862  17.922  0.00  0.00    +0.000 C 
ATOM     32  O   UNL     1       4.193  14.708  18.053  0.00  0.00    +0.000 OA
ENDBRANCH  30  32
ENDBRANCH  26  30
ENDBRANCH  21  28
ENDBRANCH   1  24
TORSDOF 5
ENDMDL
MODEL 6
REMARK VINA RESULT:      -7.0      5.023      9.913
REMARK  Name = 
REMARK  6 active torsions:
REMARK  status: ('A' for Active; 'I' for Inactive)
REMARK    1  A    between atoms: C_1  and  O_2
REMARK    2  A    between atoms: O_2  and  C_3
REMARK    3  A    between atoms: C_3  and  C_4
REMARK    4  A    between atoms: N_6  and  C_7
REMARK    5  A    between atoms: N_10  and  C_11
REMARK    6  A    between atoms: C_16  and  C_17
REMARK                            x       y       z     vdW  Elec       q    Type
REMARK                         _______ _______ _______ _____ _____    ______ ____
ROOT
ATOM      1  C   UNL     1      10.309  13.421  19.360  0.00  0.00    +0.000 A 
ATOM      2  N   UNL     1      11.404  14.193  19.143  0.00  0.00    +0.000 NA
ATOM      3  C   UNL     1      12.227  13.825  18.135  0.00  0.00    +0.000 A 
ATOM      4  C   UNL     1      12.005  12.703  17.368  0.00  0.00    +0.000 A 
ATOM      5  N   UNL     1      10.952  11.897  17.582  0.00  0.00    +0.000 NA
ATOM      6  C   UNL     1      10.077  12.273  18.565  0.00  0.00    +0.000 A 
ENDROOT
BRANCH   6   7
ATOM      7  C   UNL     1       8.815  11.348  18.669  0.00  0.00    +0.000 C 
ATOM      8  C   UNL     1       8.426  10.482  17.457  0.00  0.00    +0.000 C 
ATOM      9  N   UNL     1       8.753   9.311  18.210  0.00  0.00    +0.000 N 
ATOM     10  C   UNL     1       8.077   8.075  18.142  0.00  0.00    +0.000 A 
ATOM     11  C   UNL     1       8.499   7.048  18.984  0.00  0.00    +0.000 A 
ATOM     12  C   UNL     1       7.803   5.849  19.000  0.00  0.00    +0.000 A 
ATOM     13  C   UNL     1       6.698   5.691  18.167  0.00  0.00    +0.000 A 
ATOM     14  C   UNL     1       5.939   4.509  18.167  0.00  0.00    +0.000 A 
ATOM     15  C   UNL     1       4.850   4.373  17.312  0.00  0.00    +0.000 A 
ATOM     16  C   UNL     1       4.519   5.414  16.452  0.00  0.00    +0.000 A 
ATOM     17  C   UNL     1       5.271   6.593  16.464  0.00  0.00    +0.000 A 
ATOM     18  C   UNL     1       6.358   6.761  17.310  0.00  0.00    +0.000 A 
ATOM     19  N   UNL     1       7.038   7.920  17.298  0.00  0.00    +0.000 NA
ATOM     20  C   UNL     1       8.941  10.025  19.439  0.00  0.00    +0.000 C 
ENDBRANCH   6   7
BRANCH   1  24
ATOM     21  C   UNL     1       9.092  14.334  22.653  0.00  0.00    +0.000 C 
ATOM     22  C   UNL     1       9.274  15.636  21.885  0.00  0.00    +0.000 C 
ATOM     23  C   UNL     1       9.074  15.233  20.426  0.00  0.00    +0.000 C 
ATOM     24  N   UNL     1       9.383  13.794  20.350  0.00  0.00    +0.000 N 
ATOM     25  C   UNL     1       9.734  13.309  21.698  0.00  0.00    +0.000 C 
BRANCH  21  28
ATOM     26  C   UNL     1       7.192  14.062  24.221  0.00  0.00    +0.000 C 
ATOM     27  O   UNL     1       7.876  14.325  25.206  0.00  0.00    +0.000 OA
ATOM     28  N   UNL     1       7.687  14.059  22.933  0.00  0.00    +0.000 N 
ATOM     29  H   UNL     1       7.033  13.964  22.160  0.00  0.00    +0.000 HD
BRANCH  26  30
ATOM     30  C   UNL     1       5.712  13.676  24.328  0.00  0.00    +0.000 C 
BRANCH  30  32
ATOM     31  C   UNL     1       6.014  11.396  24.867  0.00  0.00    +0.000 C 
ATOM     32  O   UNL     1       5.427  12.330  23.964  0.00  0.00    +0.000 OA
ENDBRANCH  30  32
ENDBRANCH  26  30
ENDBRANCH  21  28
ENDBRANCH   1  24
TORSDOF 5
ENDMDL
MODEL 7
REMARK VINA RESULT:      -7.0      1.174      1.318
REMARK  Name = 
REMARK  6 active torsions:
REMARK  status: ('A' for Active; 'I' for Inactive)
REMARK    1  A    between atoms: C_1  and  O_2
REMARK    2  A    between atoms: O_2  and  C_3
REMARK    3  A    between atoms: C_3  and  C_4
REMARK    4  A    between atoms: N_6  and  C_7
REMARK    5  A    between atoms: N_10  and  C_11
REMARK    6  A    between atoms: C_16  and  C_17
REMARK                            x       y       z     vdW  Elec       q    Type
REMARK                         _______ _______ _______ _____ _____    ______ ____
ROOT
ATOM      1  C   UNL     1       3.037   4.586  18.921  0.00  0.00    +0.000 A 
ATOM      2  N   UNL     1       2.750   3.373  18.386  0.00  0.00    +0.000 NA
ATOM      3  C   UNL     1       1.564   2.817  18.724  0.00  0.00    +0.000 A 
ATOM      4  C   UNL     1       0.684   3.417  19.596  0.00  0.00    +0.000 A 
ATOM      5  N   UNL     1       0.957   4.600  20.173  0.00  0.00    +0.000 NA
ATOM      6  C   UNL     1       2.129   5.207  19.810  0.00  0.00    +0.000 A 
ENDROOT
BRANCH   6   7
ATOM      7  C   UNL     1       2.313   6.635  20.432  0.00  0.00    +0.000 C 
ATOM      8  C   UNL     1       1.773   7.856  19.666  0.00  0.00    +0.000 C 
ATOM      9  N   UNL     1       0.805   8.055  20.700  0.00  0.00    +0.000 N 
ATOM     10  C   UNL     1       0.346   9.304  21.166  0.00  0.00    +0.000 A 
ATOM     11  C   UNL     1      -0.568   9.317  22.218  0.00  0.00    +0.000 A 
ATOM     12  C   UNL     1      -0.975  10.530  22.754  0.00  0.00    +0.000 A 
ATOM     13  C   UNL     1      -0.466  11.714  22.224  0.00  0.00    +0.000 A 
ATOM     14  C   UNL     1      -0.821  12.968  22.750  0.00  0.00    +0.000 A 
ATOM     15  C   UNL     1      -0.310  14.134  22.191  0.00  0.00    +0.000 A 
ATOM     16  C   UNL     1       0.551  14.053  21.103  0.00  0.00    +0.000 A 
ATOM     17  C   UNL     1       0.910  12.802  20.590  0.00  0.00    +0.000 A 
ATOM     18  C   UNL     1       0.422  11.621  21.131  0.00  0.00    +0.000 A 
ATOM     19  N   UNL     1       0.811  10.443  20.615  0.00  0.00    +0.000 NA
ATOM     20  C   UNL     1       1.371   7.064  21.567  0.00  0.00    +0.000 C 
ENDBRANCH   6   7
BRANCH   1  24
ATOM     21  C   UNL     1       6.595   5.053  18.386  0.00  0.00    +0.000 C 
ATOM     22  C   UNL     1       6.000   4.693  17.032  0.00  0.00    +0.000 C 
ATOM     23  C   UNL     1       4.561   5.196  17.117  0.00  0.00    +0.000 C 
ATOM     24  N   UNL     1       4.225   5.242  18.552  0.00  0.00    +0.000 N 
ATOM     25  C   UNL     1       5.402   4.814  19.332  0.00  0.00    +0.000 C 
BRANCH  21  28
ATOM     26  C   UNL     1       7.566   7.046  17.280  0.00  0.00    +0.000 C 
ATOM     27  O   UNL     1       7.579   6.515  16.174  0.00  0.00    +0.000 OA
ATOM     28  N   UNL     1       7.088   6.425  18.416  0.00  0.00    +0.000 N 
ATOM     29  H   UNL     1       6.986   6.974  19.266  0.00  0.00    +0.000 HD
BRANCH  26  30
ATOM     30  C   UNL     1       8.113   8.459  17.518  0.00  0.00    +0.000 C 
BRANCH  30  32
ATOM     31  C   UNL     1       9.120  10.004  18.994  0.00  0.00    +0.000 C 
ATOM     32  O   UNL     1       8.677   8.662  18.809  0.00  0.00    +0.000 OA
ENDBRANCH  30  32
ENDBRANCH  26  30
ENDBRANCH  21  28
ENDBRANCH   1  24
TORSDOF 5
ENDMDL
MODEL 8
REMARK VINA RESULT:      -6.8      5.136     10.078
REMARK  Name = 
REMARK  6 active torsions:
REMARK  status: ('A' for Active; 'I' for Inactive)
REMARK    1  A    between atoms: C_1  and  O_2
REMARK    2  A    between atoms: O_2  and  C_3
REMARK    3  A    between atoms: C_3  and  C_4
REMARK    4  A    between atoms: N_6  and  C_7
REMARK    5  A    between atoms: N_10  and  C_11
REMARK    6  A    between atoms: C_16  and  C_17
REMARK                            x       y       z     vdW  Elec       q    Type
REMARK                         _______ _______ _______ _____ _____    ______ ____
ROOT
ATOM      1  C   UNL     1       9.981  13.790  18.633  0.00  0.00    +0.000 A 
ATOM      2  N   UNL     1      11.122  14.513  18.505  0.00  0.00    +0.000 NA
ATOM      3  C   UNL     1      12.279  13.823  18.387  0.00  0.00    +0.000 A 
ATOM      4  C   UNL     1      12.329  12.447  18.426  0.00  0.00    +0.000 A 
ATOM      5  N   UNL     1      11.222  11.703  18.591  0.00  0.00    +0.000 NA
ATOM      6  C   UNL     1      10.033  12.376  18.664  0.00  0.00    +0.000 A 
ENDROOT
BRANCH   6   7
ATOM      7  C   UNL     1       8.782  11.432  18.733  0.00  0.00    +0.000 C 
ATOM      8  C   UNL     1       8.429  10.575  17.504  0.00  0.00    +0.000 C 
ATOM      9  N   UNL     1       8.758   9.400  18.250  0.00  0.00    +0.000 N 
ATOM     10  C   UNL     1       8.101   8.156  18.155  0.00  0.00    +0.000 A 
ATOM     11  C   UNL     1       8.522   7.125  18.993  0.00  0.00    +0.000 A 
ATOM     12  C   UNL     1       7.843   5.916  18.983  0.00  0.00    +0.000 A 
ATOM     13  C   UNL     1       6.756   5.753  18.126  0.00  0.00    +0.000 A 
ATOM     14  C   UNL     1       6.014   4.560  18.098  0.00  0.00    +0.000 A 
ATOM     15  C   UNL     1       4.944   4.418  17.221  0.00  0.00    +0.000 A 
ATOM     16  C   UNL     1       4.614   5.465  16.368  0.00  0.00    +0.000 A 
ATOM     17  C   UNL     1       5.349   6.654  16.407  0.00  0.00    +0.000 A 
ATOM     18  C   UNL     1       6.417   6.827  17.275  0.00  0.00    +0.000 A 
ATOM     19  N   UNL     1       7.080   7.996  17.289  0.00  0.00    +0.000 NA
ATOM     20  C   UNL     1       8.912  10.102  19.490  0.00  0.00    +0.000 C 
ENDBRANCH   6   7
BRANCH   1  24
ATOM     21  C   UNL     1       7.504  16.196  19.744  0.00  0.00    +0.000 C 
ATOM     22  C   UNL     1       8.101  16.755  18.460  0.00  0.00    +0.000 C 
ATOM     23  C   UNL     1       8.538  15.513  17.687  0.00  0.00    +0.000 C 
ATOM     24  N   UNL     1       8.743  14.454  18.692  0.00  0.00    +0.000 N 
ATOM     25  C   UNL     1       8.425  14.994  20.027  0.00  0.00    +0.000 C 
BRANCH  21  28
ATOM     26  C   UNL     1       5.103  16.771  19.528  0.00  0.00    +0.000 C 
ATOM     27  O   UNL     1       5.314  17.979  19.588  0.00  0.00    +0.000 OA
ATOM     28  N   UNL     1       6.104  15.822  19.575  0.00  0.00    +0.000 N 
ATOM     29  H   UNL     1       5.866  14.852  19.385  0.00  0.00    +0.000 HD
BRANCH  26  30
ATOM     30  C   UNL     1       3.689  16.188  19.425  0.00  0.00    +0.000 C 
BRANCH  30  32
ATOM     31  C   UNL     1       2.506  17.030  17.562  0.00  0.00    +0.000 C 
ATOM     32  O   UNL     1       3.250  15.938  18.094  0.00  0.00    +0.000 OA
ENDBRANCH  30  32
ENDBRANCH  26  30
ENDBRANCH  21  28
ENDBRANCH   1  24
TORSDOF 5
ENDMDL
MODEL 9
REMARK VINA RESULT:      -6.8      5.346     10.810
REMARK  Name = 
REMARK  6 active torsions:
REMARK  status: ('A' for Active; 'I' for Inactive)
REMARK    1  A    between atoms: C_1  and  O_2
REMARK    2  A    between atoms: O_2  and  C_3
REMARK    3  A    between atoms: C_3  and  C_4
REMARK    4  A    between atoms: N_6  and  C_7
REMARK    5  A    between atoms: N_10  and  C_11
REMARK    6  A    between atoms: C_16  and  C_17
REMARK                            x       y       z     vdW  Elec       q    Type
REMARK                         _______ _______ _______ _____ _____    ______ ____
ROOT
ATOM      1  C   UNL     1      -3.460  14.489  22.994  0.00  0.00    +0.000 A 
ATOM      2  N   UNL     1      -4.432  15.262  23.539  0.00  0.00    +0.000 NA
ATOM      3  C   UNL     1      -4.153  15.861  24.719  0.00  0.00    +0.000 A 
ATOM      4  C   UNL     1      -2.956  15.685  25.377  0.00  0.00    +0.000 A 
ATOM      5  N   UNL     1      -1.988  14.895  24.882  0.00  0.00    +0.000 NA
ATOM      6  C   UNL     1      -2.226  14.315  23.666  0.00  0.00    +0.000 A 
ENDROOT
BRANCH   6   7
ATOM      7  C   UNL     1      -1.003  13.510  23.105  0.00  0.00    +0.000 C 
ATOM      8  C   UNL     1      -1.134  11.987  22.925  0.00  0.00    +0.000 C 
ATOM      9  N   UNL     1      -1.055  12.164  21.508  0.00  0.00    +0.000 N 
ATOM     10  C   UNL     1      -0.420  11.288  20.605  0.00  0.00    +0.000 A 
ATOM     11  C   UNL     1      -0.395  11.638  19.256  0.00  0.00    +0.000 A 
ATOM     12  C   UNL     1       0.293  10.839  18.355  0.00  0.00    +0.000 A 
ATOM     13  C   UNL     1       0.939   9.694  18.816  0.00  0.00    +0.000 A 
ATOM     14  C   UNL     1       1.676   8.867  17.951  0.00  0.00    +0.000 A 
ATOM     15  C   UNL     1       2.298   7.721  18.435  0.00  0.00    +0.000 A 
ATOM     16  C   UNL     1       2.183   7.395  19.782  0.00  0.00    +0.000 A 
ATOM     17  C   UNL     1       1.458   8.228  20.640  0.00  0.00    +0.000 A 
ATOM     18  C   UNL     1       0.832   9.381  20.188  0.00  0.00    +0.000 A 
ATOM     19  N   UNL     1       0.163  10.159  21.056  0.00  0.00    +0.000 NA
ATOM     20  C   UNL     1      -0.728  13.558  21.594  0.00  0.00    +0.000 C 
ENDBRANCH   6   7
BRANCH   1  24
ATOM     21  C   UNL     1      -5.190  12.652  20.388  0.00  0.00    +0.000 C 
ATOM     22  C   UNL     1      -5.389  14.129  20.078  0.00  0.00    +0.000 C 
ATOM     23  C   UNL     1      -4.156  14.800  20.678  0.00  0.00    +0.000 C 
ATOM     24  N   UNL     1      -3.670  13.896  21.736  0.00  0.00    +0.000 N 
ATOM     25  C   UNL     1      -4.537  12.704  21.783  0.00  0.00    +0.000 C 
BRANCH  21  28
ATOM     26  C   UNL     1      -4.911  11.247  18.366  0.00  0.00    +0.000 C 
ATOM     27  O   UNL     1      -6.121  11.113  18.206  0.00  0.00    +0.000 OA
ATOM     28  N   UNL     1      -4.359  11.993  19.387  0.00  0.00    +0.000 N 
ATOM     29  H   UNL     1      -3.357  12.168  19.377  0.00  0.00    +0.000 HD
BRANCH  26  30
ATOM     30  C   UNL     1      -3.882  10.566  17.456  0.00  0.00    +0.000 C 
BRANCH  30  32
ATOM     31  C   UNL     1      -3.084  10.643  15.235  0.00  0.00    +0.000 C 
ATOM     32  O   UNL     1      -3.383  11.392  16.410  0.00  0.00    +0.000 OA
ENDBRANCH  30  32
ENDBRANCH  26  30
ENDBRANCH  21  28
ENDBRANCH   1  24
TORSDOF 5
ENDMDL
