MODEL 1
REMARK VINA RESULT:      -8.5      0.000      0.000
REMARK  Name = 
REMARK  7 active torsions:
REMARK  status: ('A' for Active; 'I' for Inactive)
REMARK    1  A    between atoms: C_1  and  C_2
REMARK    2  A    between atoms: C_2  and  C_3
REMARK    3  A    between atoms: C_4  and  C_5
REMARK    4  A    between atoms: C_5  and  C_6
REMARK    5  A    between atoms: C_8  and  C_9
REMARK    6  A    between atoms: C_16  and  O_17
REMARK    7  A    between atoms: C_23  and  O_24
REMARK                            x       y       z     vdW  Elec       q    Type
REMARK                         _______ _______ _______ _____ _____    ______ ____
ROOT
ATOM      1  C   UNL     1       2.938   4.696  17.661  0.00  0.00    +0.000 A 
ATOM      2  C   UNL     1       2.349   5.819  18.273  0.00  0.00    +0.000 A 
ATOM      3  C   UNL     1       2.922   7.096  18.156  0.00  0.00    +0.000 A 
ATOM      4  C   UNL     1       4.122   7.225  17.437  0.00  0.00    +0.000 A 
ATOM      5  C   UNL     1       4.727   6.117  16.842  0.00  0.00    +0.000 A 
ATOM      6  C   UNL     1       4.137   4.863  16.962  0.00  0.00    +0.000 A 
ENDROOT
BRANCH   3   7
ATOM      7  C   UNL     1       2.241   8.307  18.777  0.00  0.00    +0.000 C 
ATOM      8  C   UNL     1       1.180   8.897  17.856  0.00  0.00    +0.000 C 
ATOM      9  C   UNL     1       0.495  10.044  18.557  0.00  0.00    +0.000 C 
ATOM     10  O   UNL     1      -0.018  10.974  17.947  0.00  0.00    +0.000 OA
ATOM     11  C   UNL     1       0.410   9.966  20.030  0.00  0.00    +0.000 A 
ATOM     12  C   UNL     1      -0.273  10.941  20.768  0.00  0.00    +0.000 A 
ATOM     13  C   UNL     1      -0.356  10.825  22.160  0.00  0.00    +0.000 A 
ATOM     14  C   UNL     1       0.230   9.730  22.793  0.00  0.00    +0.000 A 
ATOM     15  C   UNL     1       0.893   8.752  22.061  0.00  0.00    +0.000 A 
ATOM     16  C   UNL     1       0.999   8.883  20.678  0.00  0.00    +0.000 A 
ATOM     17  O   UNL     1       1.669   7.889  20.027  0.00  0.00    +0.000 OA
BRANCH  14  18
ATOM     18  O   UNL     1       0.181   9.577  24.146  0.00  0.00    +0.000 OA
ATOM     19  H   UNL     1      -0.161   8.692  24.354  0.00  0.00    +0.000 HD
ENDBRANCH  14  18
ENDBRANCH   3   7
BRANCH   6  20
ATOM     20  O   UNL     1       4.724   3.774  16.382  0.00  0.00    +0.000 OA
ATOM     21  H   UNL     1       4.032   3.136  16.147  0.00  0.00    +0.000 HD
ENDBRANCH   6  20
BRANCH   1  22
ATOM     22  C   UNL     1       2.270   3.346  17.760  0.00  0.00    +0.000 C 
BRANCH  22  26
ATOM     23  C   UNL     1       1.498   2.595  21.517  0.00  0.00    +0.000 C 
ATOM     24  C   UNL     1       2.267   2.767  20.236  0.00  0.00    +0.000 C 
ATOM     25  C   UNL     1       3.753   2.555  20.286  0.00  0.00    +0.000 C 
ATOM     26  C   UNL     1       1.626   3.105  19.099  0.00  0.00    +0.000 C 
ENDBRANCH  22  26
ENDBRANCH   1  22
TORSDOF 5
ENDMDL
MODEL 2
REMARK VINA RESULT:      -8.3      1.482      3.381
REMARK  Name = 
REMARK  7 active torsions:
REMARK  status: ('A' for Active; 'I' for Inactive)
REMARK    1  A    between atoms: C_1  and  C_2
REMARK    2  A    between atoms: C_2  and  C_3
REMARK    3  A    between atoms: C_4  and  C_5
REMARK    4  A    between atoms: C_5  and  C_6
REMARK    5  A    between atoms: C_8  and  C_9
REMARK    6  A    between atoms: C_16  and  O_17
REMARK    7  A    between atoms: C_23  and  O_24
REMARK                            x       y       z     vdW  Elec       q    Type
REMARK                         _______ _______ _______ _____ _____    ______ ____
ROOT
ATOM      1  C   UNL     1       4.680   5.741  17.079  0.00  0.00    +0.000 A 
ATOM      2  C   UNL     1       4.090   6.904  17.608  0.00  0.00    +0.000 A 
ATOM      3  C   UNL     1       2.832   6.863  18.232  0.00  0.00    +0.000 A 
ATOM      4  C   UNL     1       2.157   5.632  18.292  0.00  0.00    +0.000 A 
ATOM      5  C   UNL     1       2.722   4.475  17.755  0.00  0.00    +0.000 A 
ATOM      6  C   UNL     1       3.973   4.536  17.149  0.00  0.00    +0.000 A 
ENDROOT
BRANCH   3   7
ATOM      7  C   UNL     1       2.234   8.121  18.846  0.00  0.00    +0.000 C 
ATOM      8  C   UNL     1       1.276   8.821  17.890  0.00  0.00    +0.000 C 
ATOM      9  C   UNL     1       0.665  10.014  18.583  0.00  0.00    +0.000 C 
ATOM     10  O   UNL     1       0.267  10.997  17.970  0.00  0.00    +0.000 OA
ATOM     11  C   UNL     1       0.505   9.919  20.049  0.00  0.00    +0.000 A 
ATOM     12  C   UNL     1      -0.121  10.940  20.776  0.00  0.00    +0.000 A 
ATOM     13  C   UNL     1      -0.280  10.809  22.160  0.00  0.00    +0.000 A 
ATOM     14  C   UNL     1       0.174   9.655  22.795  0.00  0.00    +0.000 A 
ATOM     15  C   UNL     1       0.780   8.633  22.074  0.00  0.00    +0.000 A 
ATOM     16  C   UNL     1       0.962   8.777  20.701  0.00  0.00    +0.000 A 
ATOM     17  O   UNL     1       1.569   7.736  20.060  0.00  0.00    +0.000 OA
BRANCH  14  18
ATOM     18  O   UNL     1       0.048   9.485  24.142  0.00  0.00    +0.000 OA
ATOM     19  H   UNL     1      -0.653  10.070  24.472  0.00  0.00    +0.000 HD
ENDBRANCH  14  18
ENDBRANCH   3   7
BRANCH   6  20
ATOM     20  O   UNL     1       4.533   3.408  16.622  0.00  0.00    +0.000 OA
ATOM     21  H   UNL     1       4.093   3.206  15.780  0.00  0.00    +0.000 HD
ENDBRANCH   6  20
BRANCH   1  22
ATOM     22  C   UNL     1       6.057   5.807  16.461  0.00  0.00    +0.000 C 
BRANCH  22  26
ATOM     23  C   UNL     1       8.307   8.569  18.068  0.00  0.00    +0.000 C 
ATOM     24  C   UNL     1       7.602   7.256  17.868  0.00  0.00    +0.000 C 
ATOM     25  C   UNL     1       7.842   6.179  18.887  0.00  0.00    +0.000 C 
ATOM     26  C   UNL     1       6.793   7.074  16.804  0.00  0.00    +0.000 C 
ENDBRANCH  22  26
ENDBRANCH   1  22
TORSDOF 5
ENDMDL
MODEL 3
REMARK VINA RESULT:      -8.1      2.072      7.728
REMARK  Name = 
REMARK  7 active torsions:
REMARK  status: ('A' for Active; 'I' for Inactive)
REMARK    1  A    between atoms: C_1  and  C_2
REMARK    2  A    between atoms: C_2  and  C_3
REMARK    3  A    between atoms: C_4  and  C_5
REMARK    4  A    between atoms: C_5  and  C_6
REMARK    5  A    between atoms: C_8  and  C_9
REMARK    6  A    between atoms: C_16  and  O_17
REMARK    7  A    between atoms: C_23  and  O_24
REMARK                            x       y       z     vdW  Elec       q    Type
REMARK                         _______ _______ _______ _____ _____    ______ ____
ROOT
ATOM      1  C   UNL     1       0.982   9.352  19.255  0.00  0.00    +0.000 A 
ATOM      2  C   UNL     1       1.750   8.322  18.679  0.00  0.00    +0.000 A 
ATOM      3  C   UNL     1       2.232   7.254  19.452  0.00  0.00    +0.000 A 
ATOM      4  C   UNL     1       1.954   7.249  20.830  0.00  0.00    +0.000 A 
ATOM      5  C   UNL     1       1.210   8.273  21.417  0.00  0.00    +0.000 A 
ATOM      6  C   UNL     1       0.735   9.317  20.631  0.00  0.00    +0.000 A 
ENDROOT
BRANCH   3   7
ATOM      7  C   UNL     1       3.014   6.121  18.802  0.00  0.00    +0.000 C 
ATOM      8  C   UNL     1       2.093   5.055  18.221  0.00  0.00    +0.000 C 
ATOM      9  C   UNL     1       2.925   4.002  17.530  0.00  0.00    +0.000 C 
ATOM     10  O   UNL     1       2.546   2.844  17.406  0.00  0.00    +0.000 OA
ATOM     11  C   UNL     1       4.205   4.449  16.943  0.00  0.00    +0.000 A 
ATOM     12  C   UNL     1       5.013   3.567  16.214  0.00  0.00    +0.000 A 
ATOM     13  C   UNL     1       6.208   4.026  15.650  0.00  0.00    +0.000 A 
ATOM     14  C   UNL     1       6.571   5.363  15.807  0.00  0.00    +0.000 A 
ATOM     15  C   UNL     1       5.762   6.244  16.515  0.00  0.00    +0.000 A 
ATOM     16  C   UNL     1       4.587   5.779  17.100  0.00  0.00    +0.000 A 
ATOM     17  O   UNL     1       3.847   6.699  17.784  0.00  0.00    +0.000 OA
BRANCH  14  18
ATOM     18  O   UNL     1       7.728   5.855  15.282  0.00  0.00    +0.000 OA
ATOM     19  H   UNL     1       7.558   6.735  14.908  0.00  0.00    +0.000 HD
ENDBRANCH  14  18
ENDBRANCH   3   7
BRANCH   6  20
ATOM     20  O   UNL     1       0.006  10.323  21.199  0.00  0.00    +0.000 OA
ATOM     21  H   UNL     1       0.610  11.037  21.458  0.00  0.00    +0.000 HD
ENDBRANCH   6  20
BRANCH   1  22
ATOM     22  C   UNL     1       0.433  10.459  18.387  0.00  0.00    +0.000 C 
BRANCH  22  26
ATOM     23  C   UNL     1      -3.245  10.162  17.099  0.00  0.00    +0.000 C 
ATOM     24  C   UNL     1      -2.059  10.616  17.904  0.00  0.00    +0.000 C 
ATOM     25  C   UNL     1      -2.290  11.678  18.940  0.00  0.00    +0.000 C 
ATOM     26  C   UNL     1      -0.842  10.077  17.684  0.00  0.00    +0.000 C 
ENDBRANCH  22  26
ENDBRANCH   1  22
TORSDOF 5
ENDMDL
MODEL 4
REMARK VINA RESULT:      -8.1      1.748      4.209
REMARK  Name = 
REMARK  7 active torsions:
REMARK  status: ('A' for Active; 'I' for Inactive)
REMARK    1  A    between atoms: C_1  and  C_2
REMARK    2  A    between atoms: C_2  and  C_3
REMARK    3  A    between atoms: C_4  and  C_5
REMARK    4  A    between atoms: C_5  and  C_6
REMARK    5  A    between atoms: C_8  and  C_9
REMARK    6  A    between atoms: C_16  and  O_17
REMARK    7  A    between atoms: C_23  and  O_24
REMARK                            x       y       z     vdW  Elec       q    Type
REMARK                         _______ _______ _______ _____ _____    ______ ____
ROOT
ATOM      1  C   UNL     1       3.564   5.813  18.415  0.00  0.00    +0.000 A 
ATOM      2  C   UNL     1       2.713   6.872  18.786  0.00  0.00    +0.000 A 
ATOM      3  C   UNL     1       1.939   6.808  19.956  0.00  0.00    +0.000 A 
ATOM      4  C   UNL     1       2.010   5.644  20.740  0.00  0.00    +0.000 A 
ATOM      5  C   UNL     1       2.834   4.580  20.374  0.00  0.00    +0.000 A 
ATOM      6  C   UNL     1       3.599   4.668  19.215  0.00  0.00    +0.000 A 
ENDROOT
BRANCH   3   7
ATOM      7  C   UNL     1       1.067   7.985  20.370  0.00  0.00    +0.000 C 
ATOM      8  C   UNL     1       1.461   8.532  21.737  0.00  0.00    +0.000 C 
ATOM      9  C   UNL     1       0.610   9.737  22.054  0.00  0.00    +0.000 C 
ATOM     10  O   UNL     1       0.355  10.076  23.203  0.00  0.00    +0.000 OA
ATOM     11  C   UNL     1       0.144  10.541  20.906  0.00  0.00    +0.000 A 
ATOM     12  C   UNL     1      -0.586  11.721  21.097  0.00  0.00    +0.000 A 
ATOM     13  C   UNL     1      -0.991  12.474  19.989  0.00  0.00    +0.000 A 
ATOM     14  C   UNL     1      -0.649  12.046  18.708  0.00  0.00    +0.000 A 
ATOM     15  C   UNL     1       0.090  10.885  18.516  0.00  0.00    +0.000 A 
ATOM     16  C   UNL     1       0.469  10.122  19.618  0.00  0.00    +0.000 A 
ATOM     17  O   UNL     1       1.187   8.992  19.353  0.00  0.00    +0.000 OA
BRANCH  14  18
ATOM     18  O   UNL     1      -1.027  12.741  17.598  0.00  0.00    +0.000 OA
ATOM     19  H   UNL     1      -1.402  13.594  17.871  0.00  0.00    +0.000 HD
ENDBRANCH  14  18
ENDBRANCH   3   7
BRANCH   6  20
ATOM     20  O   UNL     1       4.409   3.630  18.851  0.00  0.00    +0.000 OA
ATOM     21  H   UNL     1       5.142   3.569  19.484  0.00  0.00    +0.000 HD
ENDBRANCH   6  20
BRANCH   1  22
ATOM     22  C   UNL     1       4.423   5.935  17.180  0.00  0.00    +0.000 C 
BRANCH  22  26
ATOM     23  C   UNL     1       7.769   7.912  17.592  0.00  0.00    +0.000 C 
ATOM     24  C   UNL     1       6.804   6.762  17.522  0.00  0.00    +0.000 C 
ATOM     25  C   UNL     1       7.361   5.378  17.694  0.00  0.00    +0.000 C 
ATOM     26  C   UNL     1       5.491   6.987  17.308  0.00  0.00    +0.000 C 
ENDBRANCH  22  26
ENDBRANCH   1  22
TORSDOF 5
ENDMDL
MODEL 5
REMARK VINA RESULT:      -8.1      1.646      3.259
REMARK  Name = 
REMARK  7 active torsions:
REMARK  status: ('A' for Active; 'I' for Inactive)
REMARK    1  A    between atoms: C_1  and  C_2
REMARK    2  A    between atoms: C_2  and  C_3
REMARK    3  A    between atoms: C_4  and  C_5
REMARK    4  A    between atoms: C_5  and  C_6
REMARK    5  A    between atoms: C_8  and  C_9
REMARK    6  A    between atoms: C_16  and  O_17
REMARK    7  A    between atoms: C_23  and  O_24
REMARK                            x       y       z     vdW  Elec       q    Type
REMARK                         _______ _______ _______ _____ _____    ______ ____
ROOT
ATOM      1  C   UNL     1       3.055   6.239  19.050  0.00  0.00    +0.000 A 
ATOM      2  C   UNL     1       2.181   6.902  19.933  0.00  0.00    +0.000 A 
ATOM      3  C   UNL     1       1.690   8.186  19.645  0.00  0.00    +0.000 A 
ATOM      4  C   UNL     1       2.116   8.812  18.462  0.00  0.00    +0.000 A 
ATOM      5  C   UNL     1       2.996   8.175  17.587  0.00  0.00    +0.000 A 
ATOM      6  C   UNL     1       3.463   6.900  17.887  0.00  0.00    +0.000 A 
ENDROOT
BRANCH   3   7
ATOM      7  C   UNL     1       0.703   8.863  20.585  0.00  0.00    +0.000 C 
ATOM      8  C   UNL     1       1.278   9.035  21.986  0.00  0.00    +0.000 C 
ATOM      9  C   UNL     1       0.282   9.775  22.845  0.00  0.00    +0.000 C 
ATOM     10  O   UNL     1       0.238   9.641  24.061  0.00  0.00    +0.000 OA
ATOM     11  C   UNL     1      -0.607  10.732  22.155  0.00  0.00    +0.000 A 
ATOM     12  C   UNL     1      -1.513  11.524  22.872  0.00  0.00    +0.000 A 
ATOM     13  C   UNL     1      -2.324  12.438  22.191  0.00  0.00    +0.000 A 
ATOM     14  C   UNL     1      -2.209  12.560  20.808  0.00  0.00    +0.000 A 
ATOM     15  C   UNL     1      -1.299  11.787  20.096  0.00  0.00    +0.000 A 
ATOM     16  C   UNL     1      -0.511  10.858  20.771  0.00  0.00    +0.000 A 
ATOM     17  O   UNL     1       0.355  10.131  20.007  0.00  0.00    +0.000 OA
BRANCH  14  18
ATOM     18  O   UNL     1      -2.982  13.431  20.100  0.00  0.00    +0.000 OA
ATOM     19  H   UNL     1      -2.481  13.748  19.331  0.00  0.00    +0.000 HD
ENDBRANCH  14  18
ENDBRANCH   3   7
BRANCH   6  20
ATOM     20  O   UNL     1       4.326   6.270  17.036  0.00  0.00    +0.000 OA
ATOM     21  H   UNL     1       4.270   6.696  16.165  0.00  0.00    +0.000 HD
ENDBRANCH   6  20
BRANCH   1  22
ATOM     22  C   UNL     1       3.523   4.838  19.362  0.00  0.00    +0.000 C 
BRANCH  22  26
ATOM     23  C   UNL     1       0.737   2.155  18.801  0.00  0.00    +0.000 C 
ATOM     24  C   UNL     1       1.602   3.175  19.487  0.00  0.00    +0.000 C 
ATOM     25  C   UNL     1       1.298   3.489  20.924  0.00  0.00    +0.000 C 
ATOM     26  C   UNL     1       2.605   3.777  18.815  0.00  0.00    +0.000 C 
ENDBRANCH  22  26
ENDBRANCH   1  22
TORSDOF 5
ENDMDL
MODEL 6
REMARK VINA RESULT:      -8.0      1.779      3.510
REMARK  Name = 
REMARK  7 active torsions:
REMARK  status: ('A' for Active; 'I' for Inactive)
REMARK    1  A    between atoms: C_1  and  C_2
REMARK    2  A    between atoms: C_2  and  C_3
REMARK    3  A    between atoms: C_4  and  C_5
REMARK    4  A    between atoms: C_5  and  C_6
REMARK    5  A    between atoms: C_8  and  C_9
REMARK    6  A    between atoms: C_16  and  O_17
REMARK    7  A    between atoms: C_23  and  O_24
REMARK                            x       y       z     vdW  Elec       q    Type
REMARK                         _______ _______ _______ _____ _____    ______ ____
ROOT
ATOM      1  C   UNL     1       3.918   3.851  17.851  0.00  0.00    +0.000 A 
ATOM      2  C   UNL     1       3.536   5.199  18.000  0.00  0.00    +0.000 A 
ATOM      3  C   UNL     1       3.018   5.678  19.214  0.00  0.00    +0.000 A 
ATOM      4  C   UNL     1       2.860   4.773  20.276  0.00  0.00    +0.000 A 
ATOM      5  C   UNL     1       3.217   3.431  20.136  0.00  0.00    +0.000 A 
ATOM      6  C   UNL     1       3.737   2.979  18.928  0.00  0.00    +0.000 A 
ENDROOT
BRANCH   3   7
ATOM      7  C   UNL     1       2.662   7.150  19.372  0.00  0.00    +0.000 C 
ATOM      8  C   UNL     1       2.189   7.765  18.061  0.00  0.00    +0.000 C 
ATOM      9  C   UNL     1       1.785   9.199  18.301  0.00  0.00    +0.000 C 
ATOM     10  O   UNL     1       1.831  10.050  17.422  0.00  0.00    +0.000 OA
ATOM     11  C   UNL     1       1.260   9.523  19.644  0.00  0.00    +0.000 A 
ATOM     12  C   UNL     1       0.786  10.807  19.945  0.00  0.00    +0.000 A 
ATOM     13  C   UNL     1       0.272  11.076  21.218  0.00  0.00    +0.000 A 
ATOM     14  C   UNL     1       0.226  10.056  22.167  0.00  0.00    +0.000 A 
ATOM     15  C   UNL     1       0.680   8.778  21.866  0.00  0.00    +0.000 A 
ATOM     16  C   UNL     1       1.216   8.519  20.607  0.00  0.00    +0.000 A 
ATOM     17  O   UNL     1       1.647   7.243  20.385  0.00  0.00    +0.000 OA
BRANCH  14  18
ATOM     18  O   UNL     1      -0.259  10.272  23.423  0.00  0.00    +0.000 OA
ATOM     19  H   UNL     1       0.295   9.797  24.063  0.00  0.00    +0.000 HD
ENDBRANCH  14  18
ENDBRANCH   3   7
BRANCH   6  20
ATOM     20  O   UNL     1       4.089   1.667  18.785  0.00  0.00    +0.000 OA
ATOM     21  H   UNL     1       4.032   1.430  17.845  0.00  0.00    +0.000 HD
ENDBRANCH   6  20
BRANCH   1  22
ATOM     22  C   UNL     1       4.522   3.378  16.551  0.00  0.00    +0.000 C 
BRANCH  22  26
ATOM     23  C   UNL     1       7.344   5.229  14.579  0.00  0.00    +0.000 C 
ATOM     24  C   UNL     1       6.154   4.354  14.862  0.00  0.00    +0.000 C 
ATOM     25  C   UNL     1       5.489   3.689  13.691  0.00  0.00    +0.000 C 
ATOM     26  C   UNL     1       5.716   4.191  16.127  0.00  0.00    +0.000 C 
ENDBRANCH  22  26
ENDBRANCH   1  22
TORSDOF 5
ENDMDL
MODEL 7
REMARK VINA RESULT:      -8.0      2.756      7.993
REMARK  Name = 
REMARK  7 active torsions:
REMARK  status: ('A' for Active; 'I' for Inactive)
REMARK    1  A    between atoms: C_1  and  C_2
REMARK    2  A    between atoms: C_2  and  C_3
REMARK    3  A    between atoms: C_4  and  C_5
REMARK    4  A    between atoms: C_5  and  C_6
REMARK    5  A    between atoms: C_8  and  C_9
REMARK    6  A    between atoms: C_16  and  O_17
REMARK    7  A    between atoms: C_23  and  O_24
REMARK                            x       y       z     vdW  Elec       q    Type
REMARK                         _______ _______ _______ _____ _____    ______ ____
ROOT
ATOM      1  C   UNL     1       2.034   5.259  19.745  0.00  0.00    +0.000 A 
ATOM      2  C   UNL     1       3.045   5.602  18.827  0.00  0.00    +0.000 A 
ATOM      3  C   UNL     1       3.364   4.761  17.748  0.00  0.00    +0.000 A 
ATOM      4  C   UNL     1       2.668   3.548  17.619  0.00  0.00    +0.000 A 
ATOM      5  C   UNL     1       1.676   3.188  18.532  0.00  0.00    +0.000 A 
ATOM      6  C   UNL     1       1.369   4.039  19.588  0.00  0.00    +0.000 A 
ENDROOT
BRANCH   3   7
ATOM      7  C   UNL     1       4.423   5.174  16.735  0.00  0.00    +0.000 C 
ATOM      8  C   UNL     1       5.715   5.615  17.412  0.00  0.00    +0.000 C 
ATOM      9  C   UNL     1       6.743   5.940  16.355  0.00  0.00    +0.000 C 
ATOM     10  O   UNL     1       7.651   6.740  16.547  0.00  0.00    +0.000 OA
ATOM     11  C   UNL     1       6.647   5.194  15.084  0.00  0.00    +0.000 A 
ATOM     12  C   UNL     1       7.598   5.366  14.070  0.00  0.00    +0.000 A 
ATOM     13  C   UNL     1       7.493   4.626  12.888  0.00  0.00    +0.000 A 
ATOM     14  C   UNL     1       6.449   3.714  12.741  0.00  0.00    +0.000 A 
ATOM     15  C   UNL     1       5.514   3.528  13.752  0.00  0.00    +0.000 A 
ATOM     16  C   UNL     1       5.604   4.286  14.917  0.00  0.00    +0.000 A 
ATOM     17  O   UNL     1       4.648   4.054  15.863  0.00  0.00    +0.000 OA
BRANCH  14  18
ATOM     18  O   UNL     1       6.301   2.975  11.605  0.00  0.00    +0.000 OA
ATOM     19  H   UNL     1       6.481   2.042  11.807  0.00  0.00    +0.000 HD
ENDBRANCH  14  18
ENDBRANCH   3   7
BRANCH   6  20
ATOM     20  O   UNL     1       0.399   3.693  20.486  0.00  0.00    +0.000 OA
ATOM     21  H   UNL     1      -0.162   4.467  20.652  0.00  0.00    +0.000 HD
ENDBRANCH   6  20
BRANCH   1  22
ATOM     22  C   UNL     1       1.677   6.209  20.863  0.00  0.00    +0.000 C 
BRANCH  22  26
ATOM     23  C   UNL     1       0.963  10.018  20.358  0.00  0.00    +0.000 C 
ATOM     24  C   UNL     1       0.817   8.602  20.842  0.00  0.00    +0.000 C 
ATOM     25  C   UNL     1      -0.312   8.306  21.786  0.00  0.00    +0.000 C 
ATOM     26  C   UNL     1       1.682   7.651  20.433  0.00  0.00    +0.000 C 
ENDBRANCH  22  26
ENDBRANCH   1  22
TORSDOF 5
ENDMDL
MODEL 8
REMARK VINA RESULT:      -8.0      1.595      3.165
REMARK  Name = 
REMARK  7 active torsions:
REMARK  status: ('A' for Active; 'I' for Inactive)
REMARK    1  A    between atoms: C_1  and  C_2
REMARK    2  A    between atoms: C_2  and  C_3
REMARK    3  A    between atoms: C_4  and  C_5
REMARK    4  A    between atoms: C_5  and  C_6
REMARK    5  A    between atoms: C_8  and  C_9
REMARK    6  A    between atoms: C_16  and  O_17
REMARK    7  A    between atoms: C_23  and  O_24
REMARK                            x       y       z     vdW  Elec       q    Type
REMARK                         _______ _______ _______ _____ _____    ______ ____
ROOT
ATOM      1  C   UNL     1       2.898   4.238  18.359  0.00  0.00    +0.000 A 
ATOM      2  C   UNL     1       2.689   5.621  18.523  0.00  0.00    +0.000 A 
ATOM      3  C   UNL     1       2.173   6.143  19.720  0.00  0.00    +0.000 A 
ATOM      4  C   UNL     1       1.839   5.246  20.749  0.00  0.00    +0.000 A 
ATOM      5  C   UNL     1       2.023   3.872  20.593  0.00  0.00    +0.000 A 
ATOM      6  C   UNL     1       2.544   3.377  19.402  0.00  0.00    +0.000 A 
ENDROOT
BRANCH   3   7
ATOM      7  C   UNL     1       2.006   7.645  19.899  0.00  0.00    +0.000 C 
ATOM      8  C   UNL     1       1.884   8.366  18.562  0.00  0.00    +0.000 C 
ATOM      9  C   UNL     1       1.649   9.837  18.810  0.00  0.00    +0.000 C 
ATOM     10  O   UNL     1       1.982  10.699  18.006  0.00  0.00    +0.000 OA
ATOM     11  C   UNL     1       0.931  10.193  20.051  0.00  0.00    +0.000 A 
ATOM     12  C   UNL     1       0.596  11.523  20.336  0.00  0.00    +0.000 A 
ATOM     13  C   UNL     1      -0.106  11.826  21.508  0.00  0.00    +0.000 A 
ATOM     14  C   UNL     1      -0.477  10.795  22.370  0.00  0.00    +0.000 A 
ATOM     15  C   UNL     1      -0.160   9.474  22.081  0.00  0.00    +0.000 A 
ATOM     16  C   UNL     1       0.562   9.177  20.928  0.00  0.00    +0.000 A 
ATOM     17  O   UNL     1       0.842   7.858  20.713  0.00  0.00    +0.000 OA
BRANCH  14  18
ATOM     18  O   UNL     1      -1.155  11.041  23.526  0.00  0.00    +0.000 OA
ATOM     19  H   UNL     1      -1.782  10.317  23.687  0.00  0.00    +0.000 HD
ENDBRANCH  14  18
ENDBRANCH   3   7
BRANCH   6  20
ATOM     20  O   UNL     1       2.726   2.033  19.243  0.00  0.00    +0.000 OA
ATOM     21  H   UNL     1       3.647   1.873  18.982  0.00  0.00    +0.000 HD
ENDBRANCH   6  20
BRANCH   1  22
ATOM     22  C   UNL     1       3.504   3.713  17.080  0.00  0.00    +0.000 C 
BRANCH  22  26
ATOM     23  C   UNL     1       7.281   4.622  16.654  0.00  0.00    +0.000 C 
ATOM     24  C   UNL     1       5.784   4.701  16.538  0.00  0.00    +0.000 C 
ATOM     25  C   UNL     1       5.207   5.876  15.802  0.00  0.00    +0.000 C 
ATOM     26  C   UNL     1       5.008   3.743  17.087  0.00  0.00    +0.000 C 
ENDBRANCH  22  26
ENDBRANCH   1  22
TORSDOF 5
ENDMDL
MODEL 9
REMARK VINA RESULT:      -7.9      1.821      3.551
REMARK  Name = 
REMARK  7 active torsions:
REMARK  status: ('A' for Active; 'I' for Inactive)
REMARK    1  A    between atoms: C_1  and  C_2
REMARK    2  A    between atoms: C_2  and  C_3
REMARK    3  A    between atoms: C_4  and  C_5
REMARK    4  A    between atoms: C_5  and  C_6
REMARK    5  A    between atoms: C_8  and  C_9
REMARK    6  A    between atoms: C_16  and  O_17
REMARK    7  A    between atoms: C_23  and  O_24
REMARK                            x       y       z     vdW  Elec       q    Type
REMARK                         _______ _______ _______ _____ _____    ______ ____
ROOT
ATOM      1  C   UNL     1       4.597   4.706  17.404  0.00  0.00    +0.000 A 
ATOM      2  C   UNL     1       4.126   5.980  17.777  0.00  0.00    +0.000 A 
ATOM      3  C   UNL     1       3.056   6.126  18.675  0.00  0.00    +0.000 A 
ATOM      4  C   UNL     1       2.441   4.966  19.174  0.00  0.00    +0.000 A 
ATOM      5  C   UNL     1       2.886   3.698  18.799  0.00  0.00    +0.000 A 
ATOM      6  C   UNL     1       3.953   3.575  17.915  0.00  0.00    +0.000 A 
ENDROOT
BRANCH   3   7
ATOM      7  C   UNL     1       2.597   7.511  19.108  0.00  0.00    +0.000 C 
ATOM      8  C   UNL     1       1.969   8.288  17.958  0.00  0.00    +0.000 C 
ATOM      9  C   UNL     1       1.471   9.618  18.469  0.00  0.00    +0.000 C 
ATOM     10  O   UNL     1       1.375  10.604  17.749  0.00  0.00    +0.000 OA
ATOM     11  C   UNL     1       1.036   9.665  19.880  0.00  0.00    +0.000 A 
ATOM     12  C   UNL     1       0.486  10.831  20.429  0.00  0.00    +0.000 A 
ATOM     13  C   UNL     1       0.060  10.836  21.762  0.00  0.00    +0.000 A 
ATOM     14  C   UNL     1       0.176   9.674  22.522  0.00  0.00    +0.000 A 
ATOM     15  C   UNL     1       0.705   8.511  21.975  0.00  0.00    +0.000 A 
ATOM     16  C   UNL     1       1.153   8.515  20.657  0.00  0.00    +0.000 A 
ATOM     17  O   UNL     1       1.666   7.340  20.190  0.00  0.00    +0.000 OA
BRANCH  14  18
ATOM     18  O   UNL     1      -0.219   9.632  23.826  0.00  0.00    +0.000 OA
ATOM     19  H   UNL     1       0.377  10.186  24.356  0.00  0.00    +0.000 HD
ENDBRANCH  14  18
ENDBRANCH   3   7
BRANCH   6  20
ATOM     20  O   UNL     1       4.393   2.337  17.543  0.00  0.00    +0.000 OA
ATOM     21  H   UNL     1       5.277   2.195  17.918  0.00  0.00    +0.000 HD
ENDBRANCH   6  20
BRANCH   1  22
ATOM     22  C   UNL     1       5.784   4.582  16.479  0.00  0.00    +0.000 C 
BRANCH  22  26
ATOM     23  C   UNL     1       5.665   3.511  12.722  0.00  0.00    +0.000 C 
ATOM     24  C   UNL     1       6.126   4.169  13.993  0.00  0.00    +0.000 C 
ATOM     25  C   UNL     1       7.384   4.987  13.933  0.00  0.00    +0.000 C 
ATOM     26  C   UNL     1       5.422   4.014  15.133  0.00  0.00    +0.000 C 
ENDBRANCH  22  26
ENDBRANCH   1  22
TORSDOF 5
ENDMDL
