MODEL 1
REMARK VINA RESULT:      -7.6      0.000      0.000
REMARK  Name = 
REMARK  4 active torsions:
REMARK  status: ('A' for Active; 'I' for Inactive)
REMARK    1  A    between atoms: C_1  and  O_2
REMARK    2  A    between atoms: O_2  and  C_3
REMARK    3  A    between atoms: N_10  and  C_11
REMARK    4  A    between atoms: C_20  and  N_21
REMARK                            x       y       z     vdW  Elec       q    Type
REMARK                         _______ _______ _______ _____ _____    ______ ____
ROOT
ATOM      1  C   UNL     1       3.230   3.283  19.752  0.00  0.00    +0.000 A 
ATOM      2  C   UNL     1       3.452   4.267  18.776  0.00  0.00    +0.000 A 
ATOM      3  C   UNL     1       2.975   5.565  18.905  0.00  0.00    +0.000 A 
ATOM      4  N   UNL     1       3.239   6.454  17.942  0.00  0.00    +0.000 NA
ATOM      5  C   UNL     1       2.764   7.691  18.118  0.00  0.00    +0.000 A 
ATOM      6  N   UNL     1       2.068   8.122  19.172  0.00  0.00    +0.000 NA
ATOM      7  C   UNL     1       1.820   7.227  20.144  0.00  0.00    +0.000 A 
ATOM      8  N   UNL     1       1.165   7.672  21.332  0.00  0.00    +0.000 N 
ATOM      9  C   UNL     1       2.238   5.889  20.050  0.00  0.00    +0.000 A 
ATOM     10  C   UNL     1       1.977   4.890  21.017  0.00  0.00    +0.000 A 
ATOM     11  C   UNL     1       2.529   3.609  20.918  0.00  0.00    +0.000 A 
ATOM     12  H   UNL     1       1.784   7.496  22.115  0.00  0.00    +0.000 HD
ENDROOT
BRANCH   8  13
ATOM     13  C   UNL     1       0.507   8.917  21.448  0.00  0.00    +0.000 A 
ATOM     14  C   UNL     1       0.202   9.447  22.709  0.00  0.00    +0.000 A 
ATOM     15  C   UNL     1      -0.492  10.652  22.837  0.00  0.00    +0.000 A 
ATOM     16  C   UNL     1      -0.879  11.350  21.697  0.00  0.00    +0.000 A 
ATOM     17  C   UNL     1      -0.547  10.849  20.438  0.00  0.00    +0.000 A 
ATOM     18 BR   UNL     1      -1.081  11.795  18.890  0.00  0.00    +0.000 Br
ATOM     19  C   UNL     1       0.156   9.649  20.307  0.00  0.00    +0.000 A 
ENDBRANCH   8  13
BRANCH  11  20
ATOM     20  N   UNL     1       2.249   2.688  21.940  0.00  0.00    +0.000 N 
ATOM     21  H   UNL     1       3.057   2.422  22.494  0.00  0.00    +0.000 HD
ATOM     22  H   UNL     1       1.772   1.866  21.579  0.00  0.00    +0.000 HD
ENDBRANCH  11  20
BRANCH   1  24
ATOM     23  C   UNL     1       3.564   1.521  18.186  0.00  0.00    +0.000 C 
ATOM     24  O   UNL     1       3.829   2.081  19.468  0.00  0.00    +0.000 OA
ENDBRANCH   1  24
TORSDOF 3
ENDMDL
MODEL 2
REMARK VINA RESULT:      -7.5      2.790      3.950
REMARK  Name = 
REMARK  4 active torsions:
REMARK  status: ('A' for Active; 'I' for Inactive)
REMARK    1  A    between atoms: C_1  and  O_2
REMARK    2  A    between atoms: O_2  and  C_3
REMARK    3  A    between atoms: N_10  and  C_11
REMARK    4  A    between atoms: C_20  and  N_21
REMARK                            x       y       z     vdW  Elec       q    Type
REMARK                         _______ _______ _______ _____ _____    ______ ____
ROOT
ATOM      1  C   UNL     1       6.338   5.011  16.329  0.00  0.00    +0.000 A 
ATOM      2  C   UNL     1       5.157   4.267  16.482  0.00  0.00    +0.000 A 
ATOM      3  C   UNL     1       4.029   4.781  17.106  0.00  0.00    +0.000 A 
ATOM      4  N   UNL     1       2.934   4.020  17.200  0.00  0.00    +0.000 NA
ATOM      5  C   UNL     1       1.871   4.564  17.803  0.00  0.00    +0.000 A 
ATOM      6  N   UNL     1       1.800   5.800  18.302  0.00  0.00    +0.000 NA
ATOM      7  C   UNL     1       2.900   6.566  18.189  0.00  0.00    +0.000 A 
ATOM      8  N   UNL     1       2.833   7.925  18.620  0.00  0.00    +0.000 N 
ATOM      9  C   UNL     1       4.086   6.086  17.607  0.00  0.00    +0.000 A 
ATOM     10  C   UNL     1       5.286   6.826  17.493  0.00  0.00    +0.000 A 
ATOM     11  C   UNL     1       6.390   6.331  16.792  0.00  0.00    +0.000 A 
ATOM     12  H   UNL     1       3.035   8.516  17.822  0.00  0.00    +0.000 HD
ENDROOT
BRANCH   8  13
ATOM     13  C   UNL     1       1.788   8.448  19.414  0.00  0.00    +0.000 A 
ATOM     14  C   UNL     1       1.577   7.977  20.716  0.00  0.00    +0.000 A 
ATOM     15  C   UNL     1       0.517   8.450  21.493  0.00  0.00    +0.000 A 
ATOM     16  C   UNL     1      -0.341   9.415  20.975  0.00  0.00    +0.000 A 
ATOM     17  C   UNL     1      -0.117   9.917  19.693  0.00  0.00    +0.000 A 
ATOM     18 BR   UNL     1      -1.290  11.223  18.987  0.00  0.00    +0.000 Br
ATOM     19  C   UNL     1       0.948   9.453  18.917  0.00  0.00    +0.000 A 
ENDBRANCH   8  13
BRANCH  11  20
ATOM     20  N   UNL     1       7.530   7.144  16.695  0.00  0.00    +0.000 N 
ATOM     21  H   UNL     1       7.807   7.580  17.568  0.00  0.00    +0.000 HD
ATOM     22  H   UNL     1       7.429   7.840  15.960  0.00  0.00    +0.000 HD
ENDBRANCH  11  20
BRANCH   1  24
ATOM     23  C   UNL     1       7.210   4.341  14.217  0.00  0.00    +0.000 C 
ATOM     24  O   UNL     1       7.321   4.349  15.637  0.00  0.00    +0.000 OA
ENDBRANCH   1  24
TORSDOF 3
ENDMDL
MODEL 3
REMARK VINA RESULT:      -7.5      3.726      7.121
REMARK  Name = 
REMARK  4 active torsions:
REMARK  status: ('A' for Active; 'I' for Inactive)
REMARK    1  A    between atoms: C_1  and  O_2
REMARK    2  A    between atoms: O_2  and  C_3
REMARK    3  A    between atoms: N_10  and  C_11
REMARK    4  A    between atoms: C_20  and  N_21
REMARK                            x       y       z     vdW  Elec       q    Type
REMARK                         _______ _______ _______ _____ _____    ______ ____
ROOT
ATOM      1  C   UNL     1      -0.146  10.764  21.873  0.00  0.00    +0.000 A 
ATOM      2  C   UNL     1       0.190  10.998  20.530  0.00  0.00    +0.000 A 
ATOM      3  C   UNL     1       0.877  10.069  19.762  0.00  0.00    +0.000 A 
ATOM      4  N   UNL     1       1.147  10.354  18.484  0.00  0.00    +0.000 NA
ATOM      5  C   UNL     1       1.804   9.422  17.784  0.00  0.00    +0.000 A 
ATOM      6  N   UNL     1       2.197   8.231  18.240  0.00  0.00    +0.000 NA
ATOM      7  C   UNL     1       1.908   7.945  19.522  0.00  0.00    +0.000 A 
ATOM      8  N   UNL     1       2.223   6.644  20.019  0.00  0.00    +0.000 N 
ATOM      9  C   UNL     1       1.253   8.862  20.361  0.00  0.00    +0.000 A 
ATOM     10  C   UNL     1       0.955   8.638  21.726  0.00  0.00    +0.000 A 
ATOM     11  C   UNL     1       0.192   9.544  22.469  0.00  0.00    +0.000 A 
ATOM     12  H   UNL     1       1.359   6.208  20.323  0.00  0.00    +0.000 HD
ENDROOT
BRANCH   8  13
ATOM     13  C   UNL     1       3.068   5.730  19.351  0.00  0.00    +0.000 A 
ATOM     14  C   UNL     1       2.538   4.591  18.730  0.00  0.00    +0.000 A 
ATOM     15  C   UNL     1       3.368   3.654  18.111  0.00  0.00    +0.000 A 
ATOM     16  C   UNL     1       4.745   3.856  18.094  0.00  0.00    +0.000 A 
ATOM     17  C   UNL     1       5.279   5.005  18.678  0.00  0.00    +0.000 A 
ATOM     18 BR   UNL     1       7.151   5.273  18.663  0.00  0.00    +0.000 Br
ATOM     19  C   UNL     1       4.450   5.949  19.290  0.00  0.00    +0.000 A 
ENDBRANCH   8  13
BRANCH  11  20
ATOM     20  N   UNL     1      -0.090   9.228  23.808  0.00  0.00    +0.000 N 
ATOM     21  H   UNL     1      -0.930   9.667  24.171  0.00  0.00    +0.000 HD
ATOM     22  H   UNL     1       0.707   9.419  24.411  0.00  0.00    +0.000 HD
ENDBRANCH  11  20
BRANCH   1  24
ATOM     23  C   UNL     1      -0.593  13.100  21.994  0.00  0.00    +0.000 C 
ATOM     24  O   UNL     1      -0.873  11.779  22.444  0.00  0.00    +0.000 OA
ENDBRANCH   1  24
TORSDOF 3
ENDMDL
MODEL 4
REMARK VINA RESULT:      -7.5      3.726      7.127
REMARK  Name = 
REMARK  4 active torsions:
REMARK  status: ('A' for Active; 'I' for Inactive)
REMARK    1  A    between atoms: C_1  and  O_2
REMARK    2  A    between atoms: O_2  and  C_3
REMARK    3  A    between atoms: N_10  and  C_11
REMARK    4  A    between atoms: C_20  and  N_21
REMARK                            x       y       z     vdW  Elec       q    Type
REMARK                         _______ _______ _______ _____ _____    ______ ____
ROOT
ATOM      1  C   UNL     1      -0.209  10.740  21.634  0.00  0.00    +0.000 A 
ATOM      2  C   UNL     1       0.154  10.863  20.283  0.00  0.00    +0.000 A 
ATOM      3  C   UNL     1       0.891   9.892  19.620  0.00  0.00    +0.000 A 
ATOM      4  N   UNL     1       1.187  10.069  18.328  0.00  0.00    +0.000 NA
ATOM      5  C   UNL     1       1.891   9.101  17.732  0.00  0.00    +0.000 A 
ATOM      6  N   UNL     1       2.308   7.969  18.304  0.00  0.00    +0.000 NA
ATOM      7  C   UNL     1       1.993   7.791  19.599  0.00  0.00    +0.000 A 
ATOM      8  N   UNL     1       2.335   6.551  20.220  0.00  0.00    +0.000 N 
ATOM      9  C   UNL     1       1.289   8.758  20.336  0.00  0.00    +0.000 A 
ATOM     10  C   UNL     1       0.960   8.647  21.707  0.00  0.00    +0.000 A 
ATOM     11  C   UNL     1       0.150   9.591  22.347  0.00  0.00    +0.000 A 
ATOM     12  H   UNL     1       1.478   6.116  20.543  0.00  0.00    +0.000 HD
ENDROOT
BRANCH   8  13
ATOM     13  C   UNL     1       3.227   5.609  19.659  0.00  0.00    +0.000 A 
ATOM     14  C   UNL     1       4.573   5.937  19.454  0.00  0.00    +0.000 A 
ATOM     15  C   UNL     1       5.453   5.033  18.855  0.00  0.00    +0.000 A 
ATOM     16  C   UNL     1       4.994   3.779  18.464  0.00  0.00    +0.000 A 
ATOM     17  C   UNL     1       3.664   3.430  18.698  0.00  0.00    +0.000 A 
ATOM     18 BR   UNL     1       3.039   1.728  18.158  0.00  0.00    +0.000 Br
ATOM     19  C   UNL     1       2.784   4.329  19.306  0.00  0.00    +0.000 A 
ENDBRANCH   8  13
BRANCH  11  20
ATOM     20  N   UNL     1      -0.158   9.389  23.701  0.00  0.00    +0.000 N 
ATOM     21  H   UNL     1      -0.499   8.457  23.916  0.00  0.00    +0.000 HD
ATOM     22  H   UNL     1      -0.801  10.097  24.046  0.00  0.00    +0.000 HD
ENDBRANCH  11  20
BRANCH   1  24
ATOM     23  C   UNL     1      -0.446  13.089  21.950  0.00  0.00    +0.000 C 
ATOM     24  O   UNL     1      -0.983  11.778  22.093  0.00  0.00    +0.000 OA
ENDBRANCH   1  24
TORSDOF 3
ENDMDL
MODEL 5
REMARK VINA RESULT:      -7.4      1.956      3.240
REMARK  Name = 
REMARK  4 active torsions:
REMARK  status: ('A' for Active; 'I' for Inactive)
REMARK    1  A    between atoms: C_1  and  O_2
REMARK    2  A    between atoms: O_2  and  C_3
REMARK    3  A    between atoms: N_10  and  C_11
REMARK    4  A    between atoms: C_20  and  N_21
REMARK                            x       y       z     vdW  Elec       q    Type
REMARK                         _______ _______ _______ _____ _____    ______ ____
ROOT
ATOM      1  C   UNL     1       4.953   4.901  17.015  0.00  0.00    +0.000 A 
ATOM      2  C   UNL     1       4.361   4.251  18.110  0.00  0.00    +0.000 A 
ATOM      3  C   UNL     1       3.493   4.898  18.979  0.00  0.00    +0.000 A 
ATOM      4  N   UNL     1       2.953   4.211  19.991  0.00  0.00    +0.000 NA
ATOM      5  C   UNL     1       2.118   4.878  20.794  0.00  0.00    +0.000 A 
ATOM      6  N   UNL     1       1.762   6.158  20.668  0.00  0.00    +0.000 NA
ATOM      7  C   UNL     1       2.297   6.839  19.638  0.00  0.00    +0.000 A 
ATOM      8  N   UNL     1       1.866   8.181  19.410  0.00  0.00    +0.000 N 
ATOM      9  C   UNL     1       3.214   6.250  18.752  0.00  0.00    +0.000 A 
ATOM     10  C   UNL     1       3.841   6.921  17.675  0.00  0.00    +0.000 A 
ATOM     11  C   UNL     1       4.649   6.242  16.758  0.00  0.00    +0.000 A 
ATOM     12  H   UNL     1       1.457   8.224  18.483  0.00  0.00    +0.000 HD
ENDROOT
BRANCH   8  13
ATOM     13  C   UNL     1       1.132   8.942  20.347  0.00  0.00    +0.000 A 
ATOM     14  C   UNL     1       1.245   8.684  21.720  0.00  0.00    +0.000 A 
ATOM     15  C   UNL     1       0.488   9.396  22.653  0.00  0.00    +0.000 A 
ATOM     16  C   UNL     1      -0.386  10.388  22.220  0.00  0.00    +0.000 A 
ATOM     17  C   UNL     1      -0.478  10.677  20.858  0.00  0.00    +0.000 A 
ATOM     18 BR   UNL     1      -1.673  12.020  20.270  0.00  0.00    +0.000 Br
ATOM     19  C   UNL     1       0.286   9.974  19.923  0.00  0.00    +0.000 A 
ENDBRANCH   8  13
BRANCH  11  20
ATOM     20  N   UNL     1       5.204   6.975  15.697  0.00  0.00    +0.000 N 
ATOM     21  H   UNL     1       5.801   7.742  15.987  0.00  0.00    +0.000 HD
ATOM     22  H   UNL     1       4.485   7.300  15.054  0.00  0.00    +0.000 HD
ENDBRANCH  11  20
BRANCH   1  24
ATOM     23  C   UNL     1       7.143   4.281  16.313  0.00  0.00    +0.000 C 
ATOM     24  O   UNL     1       5.735   4.078  16.244  0.00  0.00    +0.000 OA
ENDBRANCH   1  24
TORSDOF 3
ENDMDL
MODEL 6
REMARK VINA RESULT:      -7.4      2.912      4.134
REMARK  Name = 
REMARK  4 active torsions:
REMARK  status: ('A' for Active; 'I' for Inactive)
REMARK    1  A    between atoms: C_1  and  O_2
REMARK    2  A    between atoms: O_2  and  C_3
REMARK    3  A    between atoms: N_10  and  C_11
REMARK    4  A    between atoms: C_20  and  N_21
REMARK                            x       y       z     vdW  Elec       q    Type
REMARK                         _______ _______ _______ _____ _____    ______ ____
ROOT
ATOM      1  C   UNL     1       6.296   5.209  16.661  0.00  0.00    +0.000 A 
ATOM      2  C   UNL     1       5.119   4.465  16.844  0.00  0.00    +0.000 A 
ATOM      3  C   UNL     1       3.946   5.033  17.319  0.00  0.00    +0.000 A 
ATOM      4  N   UNL     1       2.859   4.266  17.452  0.00  0.00    +0.000 NA
ATOM      5  C   UNL     1       1.751   4.863  17.906  0.00  0.00    +0.000 A 
ATOM      6  N   UNL     1       1.629   6.154  18.221  0.00  0.00    +0.000 NA
ATOM      7  C   UNL     1       2.722   6.923  18.070  0.00  0.00    +0.000 A 
ATOM      8  N   UNL     1       2.606   8.327  18.302  0.00  0.00    +0.000 N 
ATOM      9  C   UNL     1       3.950   6.396  17.635  0.00  0.00    +0.000 A 
ATOM     10  C   UNL     1       5.144   7.142  17.492  0.00  0.00    +0.000 A 
ATOM     11  C   UNL     1       6.298   6.581  16.937  0.00  0.00    +0.000 A 
ATOM     12  H   UNL     1       2.850   8.806  17.442  0.00  0.00    +0.000 HD
ENDROOT
BRANCH   8  13
ATOM     13  C   UNL     1       1.504   8.930  18.948  0.00  0.00    +0.000 A 
ATOM     14  C   UNL     1       0.546   9.639  18.212  0.00  0.00    +0.000 A 
ATOM     15  C   UNL     1      -0.520  10.281  18.844  0.00  0.00    +0.000 A 
ATOM     16  C   UNL     1      -0.647  10.210  20.227  0.00  0.00    +0.000 A 
ATOM     17  C   UNL     1       0.281   9.475  20.966  0.00  0.00    +0.000 A 
ATOM     18 BR   UNL     1       0.112   9.385  22.848  0.00  0.00    +0.000 Br
ATOM     19  C   UNL     1       1.343   8.822  20.335  0.00  0.00    +0.000 A 
ENDBRANCH   8  13
BRANCH  11  20
ATOM     20  N   UNL     1       7.429   7.400  16.797  0.00  0.00    +0.000 N 
ATOM     21  H   UNL     1       7.289   8.206  16.196  0.00  0.00    +0.000 HD
ATOM     22  H   UNL     1       8.241   6.865  16.500  0.00  0.00    +0.000 HD
ENDBRANCH  11  20
BRANCH   1  24
ATOM     23  C   UNL     1       7.369   4.361  14.713  0.00  0.00    +0.000 C 
ATOM     24  O   UNL     1       7.331   4.481  16.131  0.00  0.00    +0.000 OA
ENDBRANCH   1  24
TORSDOF 3
ENDMDL
MODEL 7
REMARK VINA RESULT:      -7.3      4.042      7.822
REMARK  Name = 
REMARK  4 active torsions:
REMARK  status: ('A' for Active; 'I' for Inactive)
REMARK    1  A    between atoms: C_1  and  O_2
REMARK    2  A    between atoms: O_2  and  C_3
REMARK    3  A    between atoms: N_10  and  C_11
REMARK    4  A    between atoms: C_20  and  N_21
REMARK                            x       y       z     vdW  Elec       q    Type
REMARK                         _______ _______ _______ _____ _____    ______ ____
ROOT
ATOM      1  C   UNL     1      -1.402  12.048  19.849  0.00  0.00    +0.000 A 
ATOM      2  C   UNL     1      -0.900  11.340  20.952  0.00  0.00    +0.000 A 
ATOM      3  C   UNL     1      -0.017  10.278  20.815  0.00  0.00    +0.000 A 
ATOM      4  N   UNL     1       0.433   9.660  21.913  0.00  0.00    +0.000 NA
ATOM      5  C   UNL     1       1.288   8.649  21.728  0.00  0.00    +0.000 A 
ATOM      6  N   UNL     1       1.745   8.213  20.551  0.00  0.00    +0.000 NA
ATOM      7  C   UNL     1       1.301   8.850  19.453  0.00  0.00    +0.000 A 
ATOM      8  N   UNL     1       1.841   8.480  18.184  0.00  0.00    +0.000 N 
ATOM      9  C   UNL     1       0.373   9.902  19.525  0.00  0.00    +0.000 A 
ATOM     10  C   UNL     1      -0.162  10.586  18.408  0.00  0.00    +0.000 A 
ATOM     11  C   UNL     1      -0.987  11.705  18.558  0.00  0.00    +0.000 A 
ATOM     12  H   UNL     1       2.284   9.298  17.783  0.00  0.00    +0.000 HD
ENDROOT
BRANCH   8  13
ATOM     13  C   UNL     1       2.597   7.307  17.963  0.00  0.00    +0.000 A 
ATOM     14  C   UNL     1       3.939   7.389  17.568  0.00  0.00    +0.000 A 
ATOM     15  C   UNL     1       4.683   6.238  17.297  0.00  0.00    +0.000 A 
ATOM     16  C   UNL     1       4.092   4.986  17.432  0.00  0.00    +0.000 A 
ATOM     17  C   UNL     1       2.767   4.894  17.861  0.00  0.00    +0.000 A 
ATOM     18 BR   UNL     1       1.963   3.191  18.036  0.00  0.00    +0.000 Br
ATOM     19  C   UNL     1       2.024   6.042  18.142  0.00  0.00    +0.000 A 
ENDBRANCH   8  13
BRANCH  11  20
ATOM     20  N   UNL     1      -1.446  12.348  17.397  0.00  0.00    +0.000 N 
ATOM     21  H   UNL     1      -0.758  12.949  16.954  0.00  0.00    +0.000 HD
ATOM     22  H   UNL     1      -2.311  12.854  17.570  0.00  0.00    +0.000 HD
ENDBRANCH  11  20
BRANCH   1  24
ATOM     23  C   UNL     1      -1.577  14.329  20.509  0.00  0.00    +0.000 C 
ATOM     24  O   UNL     1      -2.217  13.098  20.193  0.00  0.00    +0.000 OA
ENDBRANCH   1  24
TORSDOF 3
ENDMDL
MODEL 8
REMARK VINA RESULT:      -7.3      4.073      7.776
REMARK  Name = 
REMARK  4 active torsions:
REMARK  status: ('A' for Active; 'I' for Inactive)
REMARK    1  A    between atoms: C_1  and  O_2
REMARK    2  A    between atoms: O_2  and  C_3
REMARK    3  A    between atoms: N_10  and  C_11
REMARK    4  A    between atoms: C_20  and  N_21
REMARK                            x       y       z     vdW  Elec       q    Type
REMARK                         _______ _______ _______ _____ _____    ______ ____
ROOT
ATOM      1  C   UNL     1      -1.424  12.021  19.805  0.00  0.00    +0.000 A 
ATOM      2  C   UNL     1      -0.924  11.324  20.916  0.00  0.00    +0.000 A 
ATOM      3  C   UNL     1      -0.033  10.266  20.793  0.00  0.00    +0.000 A 
ATOM      4  N   UNL     1       0.414   9.660  21.897  0.00  0.00    +0.000 NA
ATOM      5  C   UNL     1       1.276   8.652  21.725  0.00  0.00    +0.000 A 
ATOM      6  N   UNL     1       1.743   8.211  20.555  0.00  0.00    +0.000 NA
ATOM      7  C   UNL     1       1.301   8.836  19.449  0.00  0.00    +0.000 A 
ATOM      8  N   UNL     1       1.851   8.460  18.186  0.00  0.00    +0.000 N 
ATOM      9  C   UNL     1       0.366   9.883  19.508  0.00  0.00    +0.000 A 
ATOM     10  C   UNL     1      -0.167  10.555  18.382  0.00  0.00    +0.000 A 
ATOM     11  C   UNL     1      -1.000  11.670  18.519  0.00  0.00    +0.000 A 
ATOM     12  H   UNL     1       2.291   9.278  17.781  0.00  0.00    +0.000 HD
ENDROOT
BRANCH   8  13
ATOM     13  C   UNL     1       2.616   7.290  17.978  0.00  0.00    +0.000 A 
ATOM     14  C   UNL     1       2.033   6.023  18.115  0.00  0.00    +0.000 A 
ATOM     15  C   UNL     1       2.789   4.860  17.961  0.00  0.00    +0.000 A 
ATOM     16  C   UNL     1       4.143   4.953  17.653  0.00  0.00    +0.000 A 
ATOM     17  C   UNL     1       4.724   6.209  17.478  0.00  0.00    +0.000 A 
ATOM     18 BR   UNL     1       6.566   6.334  17.068  0.00  0.00    +0.000 Br
ATOM     19  C   UNL     1       3.967   7.375  17.622  0.00  0.00    +0.000 A 
ENDBRANCH   8  13
BRANCH  11  20
ATOM     20  N   UNL     1      -1.456  12.301  17.350  0.00  0.00    +0.000 N 
ATOM     21  H   UNL     1      -1.054  13.219  17.188  0.00  0.00    +0.000 HD
ATOM     22  H   UNL     1      -2.472  12.341  17.322  0.00  0.00    +0.000 HD
ENDBRANCH  11  20
BRANCH   1  24
ATOM     23  C   UNL     1      -3.634  12.773  20.276  0.00  0.00    +0.000 C 
ATOM     24  O   UNL     1      -2.248  13.068  20.136  0.00  0.00    +0.000 OA
ENDBRANCH   1  24
TORSDOF 3
ENDMDL
MODEL 9
REMARK VINA RESULT:      -7.3      5.587      8.387
REMARK  Name = 
REMARK  4 active torsions:
REMARK  status: ('A' for Active; 'I' for Inactive)
REMARK    1  A    between atoms: C_1  and  O_2
REMARK    2  A    between atoms: O_2  and  C_3
REMARK    3  A    between atoms: N_10  and  C_11
REMARK    4  A    between atoms: C_20  and  N_21
REMARK                            x       y       z     vdW  Elec       q    Type
REMARK                         _______ _______ _______ _____ _____    ______ ____
ROOT
ATOM      1  C   UNL     1       2.984   4.157  19.844  0.00  0.00    +0.000 A 
ATOM      2  C   UNL     1       4.361   4.392  19.979  0.00  0.00    +0.000 A 
ATOM      3  C   UNL     1       5.216   4.455  18.888  0.00  0.00    +0.000 A 
ATOM      4  N   UNL     1       6.515   4.698  19.092  0.00  0.00    +0.000 NA
ATOM      5  C   UNL     1       7.295   4.757  18.008  0.00  0.00    +0.000 A 
ATOM      6  N   UNL     1       6.893   4.612  16.743  0.00  0.00    +0.000 NA
ATOM      7  C   UNL     1       5.582   4.383  16.544  0.00  0.00    +0.000 A 
ATOM      8  N   UNL     1       5.096   4.321  15.203  0.00  0.00    +0.000 N 
ATOM      9  C   UNL     1       4.676   4.265  17.611  0.00  0.00    +0.000 A 
ATOM     10  C   UNL     1       3.296   3.987  17.472  0.00  0.00    +0.000 A 
ATOM     11  C   UNL     1       2.428   4.006  18.569  0.00  0.00    +0.000 A 
ATOM     12  H   UNL     1       4.402   5.050  15.089  0.00  0.00    +0.000 HD
ENDROOT
BRANCH   8  13
ATOM     13  C   UNL     1       5.929   4.201  14.069  0.00  0.00    +0.000 A 
ATOM     14  C   UNL     1       6.888   5.181  13.782  0.00  0.00    +0.000 A 
ATOM     15  C   UNL     1       7.684   5.101  12.637  0.00  0.00    +0.000 A 
ATOM     16  C   UNL     1       7.535   4.024  11.768  0.00  0.00    +0.000 A 
ATOM     17  C   UNL     1       6.609   3.024  12.065  0.00  0.00    +0.000 A 
ATOM     18 BR   UNL     1       6.402   1.565  10.878  0.00  0.00    +0.000 Br
ATOM     19  C   UNL     1       5.819   3.097  13.215  0.00  0.00    +0.000 A 
ENDBRANCH   8  13
BRANCH  11  20
ATOM     20  N   UNL     1       1.066   3.755  18.338  0.00  0.00    +0.000 N 
ATOM     21  H   UNL     1       0.674   4.272  17.558  0.00  0.00    +0.000 HD
ATOM     22  H   UNL     1       0.515   3.899  19.181  0.00  0.00    +0.000 HD
ENDBRANCH  11  20
BRANCH   1  24
ATOM     23  C   UNL     1       1.977   2.930  21.619  0.00  0.00    +0.000 C 
ATOM     24  O   UNL     1       2.300   4.187  21.034  0.00  0.00    +0.000 OA
ENDBRANCH   1  24
TORSDOF 3
ENDMDL
