MODEL 1
REMARK VINA RESULT:      -8.2      0.000      0.000
REMARK  Name = 
REMARK  3 active torsions:
REMARK  status: ('A' for Active; 'I' for Inactive)
REMARK    1  A    between atoms: C_1  and  C_2
REMARK    2  A    between atoms: C_4  and  C_5
REMARK    3  A    between atoms: C_11  and  C_12
REMARK                            x       y       z     vdW  Elec       q    Type
REMARK                         _______ _______ _______ _____ _____    ______ ____
ROOT
ATOM      1  C   UNL     1       8.169  17.114  18.380  0.00  0.00    +0.000 C 
ATOM      2  C   UNL     1       9.284  16.145  18.398  0.00  0.00    +0.000 A 
ATOM      3  S   UNL     1      10.568  16.514  17.177  0.00  0.00    +0.000 S 
ATOM      4  C   UNL     1      11.601  15.527  18.194  0.00  0.00    +0.000 A 
ATOM      5  C   UNL     1      12.257  16.275  19.351  0.00  0.00    +0.000 C 
ATOM      6  C   UNL     1      10.733  14.453  18.308  0.00  0.00    +0.000 A 
ATOM      7  C   UNL     1      10.476  13.209  17.632  0.00  0.00    +0.000 A 
ATOM      8  O   UNL     1      10.826  12.963  16.485  0.00  0.00    +0.000 OA
ATOM      9  N   UNL     1       9.737  12.375  18.471  0.00  0.00    +0.000 N 
ATOM     10  C   UNL     1       9.337  11.117  18.048  0.00  0.00    +0.000 A 
ATOM     11  C   UNL     1       8.962  10.165  18.924  0.00  0.00    +0.000 A 
ATOM     12  C   UNL     1       9.179  10.444  20.332  0.00  0.00    +0.000 A 
ATOM     13  C   UNL     1       9.315  11.719  20.752  0.00  0.00    +0.000 A 
ATOM     14  C   UNL     1       9.338  12.839  19.740  0.00  0.00    +0.000 A 
ATOM     15  N   UNL     1       9.117  14.101  20.031  0.00  0.00    +0.000 NA
ATOM     16  C   UNL     1       9.650  14.961  19.043  0.00  0.00    +0.000 A 
ENDROOT
BRANCH  11  17
ATOM     17  C   UNL     1       8.570   8.857  18.299  0.00  0.00    +0.000 C 
ATOM     18  O   UNL     1       8.199   8.864  17.130  0.00  0.00    +0.000 OA
ATOM     19  N   UNL     1       8.602   7.741  19.098  0.00  0.00    +0.000 N 
ATOM     20  C   UNL     1       8.066   6.547  18.665  0.00  0.00    +0.000 A 
ATOM     21  N   UNL     1       7.527   6.352  17.418  0.00  0.00    +0.000 NA
ATOM     22  N   UNL     1       7.069   5.112  17.381  0.00  0.00    +0.000 NA
ATOM     23  N   UNL     1       7.340   4.623  18.585  0.00  0.00    +0.000 N 
ATOM     24  N   UNL     1       7.974   5.460  19.439  0.00  0.00    +0.000 NA
ATOM     25  H   UNL     1       8.910   7.747  20.057  0.00  0.00    +0.000 HD
ATOM     26  H   UNL     1       7.074   3.672  18.846  0.00  0.00    +0.000 HD
ENDBRANCH  11  17
TORSDOF 1
ENDMDL
MODEL 2
REMARK VINA RESULT:      -8.0      8.184      9.313
REMARK  Name = 
REMARK  3 active torsions:
REMARK  status: ('A' for Active; 'I' for Inactive)
REMARK    1  A    between atoms: C_1  and  C_2
REMARK    2  A    between atoms: C_4  and  C_5
REMARK    3  A    between atoms: C_11  and  C_12
REMARK                            x       y       z     vdW  Elec       q    Type
REMARK                         _______ _______ _______ _____ _____    ______ ____
ROOT
ATOM      1  C   UNL     1       1.516  14.259  21.412  0.00  0.00    +0.000 C 
ATOM      2  C   UNL     1       0.614  13.129  21.108  0.00  0.00    +0.000 A 
ATOM      3  S   UNL     1      -0.747  12.967  22.290  0.00  0.00    +0.000 S 
ATOM      4  C   UNL     1      -1.542  12.062  21.016  0.00  0.00    +0.000 A 
ATOM      5  C   UNL     1      -2.303  12.917  20.008  0.00  0.00    +0.000 C 
ATOM      6  C   UNL     1      -0.477  11.222  20.730  0.00  0.00    +0.000 A 
ATOM      7  C   UNL     1       0.003   9.928  21.135  0.00  0.00    +0.000 A 
ATOM      8  O   UNL     1      -0.319   9.368  22.174  0.00  0.00    +0.000 OA
ATOM      9  N   UNL     1       0.912   9.457  20.187  0.00  0.00    +0.000 N 
ATOM     10  C   UNL     1       1.541   8.233  20.352  0.00  0.00    +0.000 A 
ATOM     11  C   UNL     1       2.117   7.591  19.317  0.00  0.00    +0.000 A 
ATOM     12  C   UNL     1       1.883   8.137  17.992  0.00  0.00    +0.000 A 
ATOM     13  C   UNL     1       1.509   9.425  17.851  0.00  0.00    +0.000 A 
ATOM     14  C   UNL     1       1.243  10.262  19.078  0.00  0.00    +0.000 A 
ATOM     15  N   UNL     1       1.218  11.576  19.085  0.00  0.00    +0.000 NA
ATOM     16  C   UNL     1       0.503  12.075  20.198  0.00  0.00    +0.000 A 
ENDROOT
BRANCH  11  17
ATOM     17  C   UNL     1       2.742   6.272  19.668  0.00  0.00    +0.000 C 
ATOM     18  O   UNL     1       3.674   5.872  18.977  0.00  0.00    +0.000 OA
ATOM     19  N   UNL     1       2.190   5.570  20.712  0.00  0.00    +0.000 N 
ATOM     20  C   UNL     1       2.568   4.269  20.965  0.00  0.00    +0.000 A 
ATOM     21  N   UNL     1       3.539   3.598  20.265  0.00  0.00    +0.000 NA
ATOM     22  N   UNL     1       3.590   2.369  20.749  0.00  0.00    +0.000 NA
ATOM     23  N   UNL     1       2.663   2.348  21.698  0.00  0.00    +0.000 N 
ATOM     24  N   UNL     1       1.989   3.505  21.898  0.00  0.00    +0.000 NA
ATOM     25  H   UNL     1       1.426   5.909  21.272  0.00  0.00    +0.000 HD
ATOM     26  H   UNL     1       2.468   1.501  22.235  0.00  0.00    +0.000 HD
ENDBRANCH  11  17
TORSDOF 1
ENDMDL
MODEL 3
REMARK VINA RESULT:      -7.7      8.049      9.104
REMARK  Name = 
REMARK  3 active torsions:
REMARK  status: ('A' for Active; 'I' for Inactive)
REMARK    1  A    between atoms: C_1  and  C_2
REMARK    2  A    between atoms: C_4  and  C_5
REMARK    3  A    between atoms: C_11  and  C_12
REMARK                            x       y       z     vdW  Elec       q    Type
REMARK                         _______ _______ _______ _____ _____    ______ ____
ROOT
ATOM      1  C   UNL     1       1.247  14.390  21.794  0.00  0.00    +0.000 C 
ATOM      2  C   UNL     1       0.378  13.265  21.393  0.00  0.00    +0.000 A 
ATOM      3  S   UNL     1      -0.949  12.932  22.579  0.00  0.00    +0.000 S 
ATOM      4  C   UNL     1      -1.742  12.135  21.233  0.00  0.00    +0.000 A 
ATOM      5  C   UNL     1      -2.556  13.061  20.335  0.00  0.00    +0.000 C 
ATOM      6  C   UNL     1      -0.656  11.369  20.840  0.00  0.00    +0.000 A 
ATOM      7  C   UNL     1      -0.123  10.058  21.098  0.00  0.00    +0.000 A 
ATOM      8  O   UNL     1      -0.401   9.382  22.080  0.00  0.00    +0.000 OA
ATOM      9  N   UNL     1       0.779   9.722  20.088  0.00  0.00    +0.000 N 
ATOM     10  C   UNL     1       1.453   8.511  20.112  0.00  0.00    +0.000 A 
ATOM     11  C   UNL     1       2.026   8.001  19.005  0.00  0.00    +0.000 A 
ATOM     12  C   UNL     1       1.742   8.671  17.749  0.00  0.00    +0.000 A 
ATOM     13  C   UNL     1       1.321   9.953  17.750  0.00  0.00    +0.000 A 
ATOM     14  C   UNL     1       1.056  10.648  19.064  0.00  0.00    +0.000 A 
ATOM     15  N   UNL     1       0.985  11.953  19.207  0.00  0.00    +0.000 NA
ATOM     16  C   UNL     1       0.281  12.307  20.381  0.00  0.00    +0.000 A 
ENDROOT
BRANCH  11  17
ATOM     17  C   UNL     1       2.704   6.676  19.204  0.00  0.00    +0.000 C 
ATOM     18  O   UNL     1       2.367   5.993  20.166  0.00  0.00    +0.000 OA
ATOM     19  N   UNL     1       3.702   6.339  18.322  0.00  0.00    +0.000 N 
ATOM     20  C   UNL     1       4.508   5.245  18.553  0.00  0.00    +0.000 A 
ATOM     21  N   UNL     1       4.357   4.387  19.613  0.00  0.00    +0.000 NA
ATOM     22  N   UNL     1       5.334   3.499  19.538  0.00  0.00    +0.000 NA
ATOM     23  N   UNL     1       6.023   3.856  18.461  0.00  0.00    +0.000 N 
ATOM     24  N   UNL     1       5.559   4.933  17.787  0.00  0.00    +0.000 NA
ATOM     25  H   UNL     1       3.969   6.907  17.535  0.00  0.00    +0.000 HD
ATOM     26  H   UNL     1       6.860   3.346  18.171  0.00  0.00    +0.000 HD
ENDBRANCH  11  17
TORSDOF 1
ENDMDL
MODEL 4
REMARK VINA RESULT:      -7.7      7.641      8.487
REMARK  Name = 
REMARK  3 active torsions:
REMARK  status: ('A' for Active; 'I' for Inactive)
REMARK    1  A    between atoms: C_1  and  C_2
REMARK    2  A    between atoms: C_4  and  C_5
REMARK    3  A    between atoms: C_11  and  C_12
REMARK                            x       y       z     vdW  Elec       q    Type
REMARK                         _______ _______ _______ _____ _____    ______ ____
ROOT
ATOM      1  C   UNL     1      -2.675  11.779  18.812  0.00  0.00    +0.000 C 
ATOM      2  C   UNL     1      -1.234  11.762  19.137  0.00  0.00    +0.000 A 
ATOM      3  S   UNL     1      -0.358  13.242  18.571  0.00  0.00    +0.000 S 
ATOM      4  C   UNL     1       0.841  12.803  19.773  0.00  0.00    +0.000 A 
ATOM      5  C   UNL     1       0.550  13.315  21.180  0.00  0.00    +0.000 C 
ATOM      6  C   UNL     1       0.960  11.473  19.400  0.00  0.00    +0.000 A 
ATOM      7  C   UNL     1       1.778  10.679  18.522  0.00  0.00    +0.000 A 
ATOM      8  O   UNL     1       2.417  11.128  17.580  0.00  0.00    +0.000 OA
ATOM      9  N   UNL     1       1.678   9.337  18.891  0.00  0.00    +0.000 N 
ATOM     10  C   UNL     1       2.356   8.354  18.187  0.00  0.00    +0.000 A 
ATOM     11  C   UNL     1       2.582   7.136  18.717  0.00  0.00    +0.000 A 
ATOM     12  C   UNL     1       2.261   6.960  20.121  0.00  0.00    +0.000 A 
ATOM     13  C   UNL     1       1.390   7.796  20.723  0.00  0.00    +0.000 A 
ATOM     14  C   UNL     1       0.829   8.967  19.954  0.00  0.00    +0.000 A 
ATOM     15  N   UNL     1      -0.256   9.625  20.297  0.00  0.00    +0.000 NA
ATOM     16  C   UNL     1      -0.287  10.913  19.714  0.00  0.00    +0.000 A 
ENDROOT
BRANCH  11  17
ATOM     17  C   UNL     1       3.341   6.196  17.824  0.00  0.00    +0.000 C 
ATOM     18  O   UNL     1       2.957   5.034  17.751  0.00  0.00    +0.000 OA
ATOM     19  N   UNL     1       4.454   6.690  17.189  0.00  0.00    +0.000 N 
ATOM     20  C   UNL     1       5.316   5.848  16.521  0.00  0.00    +0.000 A 
ATOM     21  N   UNL     1       5.120   4.497  16.381  0.00  0.00    +0.000 NA
ATOM     22  N   UNL     1       6.169   4.016  15.735  0.00  0.00    +0.000 NA
ATOM     23  N   UNL     1       6.941   5.074  15.522  0.00  0.00    +0.000 N 
ATOM     24  N   UNL     1       6.468   6.257  15.976  0.00  0.00    +0.000 NA
ATOM     25  H   UNL     1       4.758   7.647  17.256  0.00  0.00    +0.000 HD
ATOM     26  H   UNL     1       7.844   4.989  15.051  0.00  0.00    +0.000 HD
ENDBRANCH  11  17
TORSDOF 1
ENDMDL
MODEL 5
REMARK VINA RESULT:      -7.6      7.615     10.295
REMARK  Name = 
REMARK  3 active torsions:
REMARK  status: ('A' for Active; 'I' for Inactive)
REMARK    1  A    between atoms: C_1  and  C_2
REMARK    2  A    between atoms: C_4  and  C_5
REMARK    3  A    between atoms: C_11  and  C_12
REMARK                            x       y       z     vdW  Elec       q    Type
REMARK                         _______ _______ _______ _____ _____    ______ ____
ROOT
ATOM      1  C   UNL     1       7.859   5.465  18.820  0.00  0.00    +0.000 C 
ATOM      2  C   UNL     1       6.521   5.535  18.196  0.00  0.00    +0.000 A 
ATOM      3  S   UNL     1       6.550   6.225  16.523  0.00  0.00    +0.000 S 
ATOM      4  C   UNL     1       5.010   5.411  16.327  0.00  0.00    +0.000 A 
ATOM      5  C   UNL     1       5.112   3.949  15.900  0.00  0.00    +0.000 C 
ATOM      6  C   UNL     1       4.433   5.877  17.497  0.00  0.00    +0.000 A 
ATOM      7  C   UNL     1       3.615   6.984  17.918  0.00  0.00    +0.000 A 
ATOM      8  O   UNL     1       3.504   8.034  17.299  0.00  0.00    +0.000 OA
ATOM      9  N   UNL     1       3.027   6.679  19.146  0.00  0.00    +0.000 N 
ATOM     10  C   UNL     1       2.204   7.593  19.786  0.00  0.00    +0.000 A 
ATOM     11  C   UNL     1       1.345   7.212  20.752  0.00  0.00    +0.000 A 
ATOM     12  C   UNL     1       1.177   5.785  20.958  0.00  0.00    +0.000 A 
ATOM     13  C   UNL     1       2.132   4.928  20.541  0.00  0.00    +0.000 A 
ATOM     14  C   UNL     1       3.322   5.453  19.775  0.00  0.00    +0.000 A 
ATOM     15  N   UNL     1       4.452   4.798  19.627  0.00  0.00    +0.000 NA
ATOM     16  C   UNL     1       5.186   5.278  18.517  0.00  0.00    +0.000 A 
ENDROOT
BRANCH  11  17
ATOM     17  C   UNL     1       0.520   8.326  21.330  0.00  0.00    +0.000 C 
ATOM     18  O   UNL     1      -0.612   8.062  21.722  0.00  0.00    +0.000 OA
ATOM     19  N   UNL     1       1.071   9.584  21.331  0.00  0.00    +0.000 N 
ATOM     20  C   UNL     1       0.309  10.687  21.652  0.00  0.00    +0.000 A 
ATOM     21  N   UNL     1      -1.004  10.629  22.044  0.00  0.00    +0.000 NA
ATOM     22  N   UNL     1      -1.416  11.874  22.213  0.00  0.00    +0.000 NA
ATOM     23  N   UNL     1      -0.357  12.616  21.916  0.00  0.00    +0.000 N 
ATOM     24  N   UNL     1       0.763  11.943  21.566  0.00  0.00    +0.000 NA
ATOM     25  H   UNL     1       2.002   9.788  21.008  0.00  0.00    +0.000 HD
ATOM     26  H   UNL     1      -0.397  13.637  21.943  0.00  0.00    +0.000 HD
ENDBRANCH  11  17
TORSDOF 1
ENDMDL
MODEL 6
REMARK VINA RESULT:      -7.6     11.759     12.770
REMARK  Name = 
REMARK  3 active torsions:
REMARK  status: ('A' for Active; 'I' for Inactive)
REMARK    1  A    between atoms: C_1  and  C_2
REMARK    2  A    between atoms: C_4  and  C_5
REMARK    3  A    between atoms: C_11  and  C_12
REMARK                            x       y       z     vdW  Elec       q    Type
REMARK                         _______ _______ _______ _____ _____    ______ ____
ROOT
ATOM      1  C   UNL     1       0.213  14.496  20.652  0.00  0.00    +0.000 C 
ATOM      2  C   UNL     1      -0.227  13.090  20.544  0.00  0.00    +0.000 A 
ATOM      3  S   UNL     1       1.039  11.906  21.065  0.00  0.00    +0.000 S 
ATOM      4  C   UNL     1      -0.304  10.797  21.275  0.00  0.00    +0.000 A 
ATOM      5  C   UNL     1      -1.002  10.893  22.628  0.00  0.00    +0.000 C 
ATOM      6  C   UNL     1      -0.890  11.023  20.039  0.00  0.00    +0.000 A 
ATOM      7  C   UNL     1      -0.840  10.463  18.715  0.00  0.00    +0.000 A 
ATOM      8  O   UNL     1       0.080   9.776  18.290  0.00  0.00    +0.000 OA
ATOM      9  N   UNL     1      -1.967  10.871  18.001  0.00  0.00    +0.000 N 
ATOM     10  C   UNL     1      -2.152  10.485  16.683  0.00  0.00    +0.000 A 
ATOM     11  C   UNL     1      -3.363  10.539  16.095  0.00  0.00    +0.000 A 
ATOM     12  C   UNL     1      -4.497  10.831  16.952  0.00  0.00    +0.000 A 
ATOM     13  C   UNL     1      -4.305  11.445  18.138  0.00  0.00    +0.000 A 
ATOM     14  C   UNL     1      -2.900  11.736  18.607  0.00  0.00    +0.000 A 
ATOM     15  N   UNL     1      -2.600  12.612  19.540  0.00  0.00    +0.000 NA
ATOM     16  C   UNL     1      -1.329  12.354  20.102  0.00  0.00    +0.000 A 
ENDROOT
BRANCH  11  17
ATOM     17  C   UNL     1      -3.387  10.073  14.668  0.00  0.00    +0.000 C 
ATOM     18  O   UNL     1      -2.317   9.960  14.078  0.00  0.00    +0.000 OA
ATOM     19  N   UNL     1      -4.617   9.857  14.095  0.00  0.00    +0.000 N 
ATOM     20  C   UNL     1      -4.736   9.629  12.742  0.00  0.00    +0.000 A 
ATOM     21  N   UNL     1      -3.672   9.539  11.879  0.00  0.00    +0.000 NA
ATOM     22  N   UNL     1      -4.167   9.371  10.665  0.00  0.00    +0.000 NA
ATOM     23  N   UNL     1      -5.483   9.373  10.841  0.00  0.00    +0.000 N 
ATOM     24  N   UNL     1      -5.913   9.518  12.116  0.00  0.00    +0.000 NA
ATOM     25  H   UNL     1      -5.489   9.952  14.590  0.00  0.00    +0.000 HD
ATOM     26  H   UNL     1      -6.126   9.278  10.053  0.00  0.00    +0.000 HD
ENDBRANCH  11  17
TORSDOF 1
ENDMDL
MODEL 7
REMARK VINA RESULT:      -7.5      7.960      9.135
REMARK  Name = 
REMARK  3 active torsions:
REMARK  status: ('A' for Active; 'I' for Inactive)
REMARK    1  A    between atoms: C_1  and  C_2
REMARK    2  A    between atoms: C_4  and  C_5
REMARK    3  A    between atoms: C_11  and  C_12
REMARK                            x       y       z     vdW  Elec       q    Type
REMARK                         _______ _______ _______ _____ _____    ______ ____
ROOT
ATOM      1  C   UNL     1       1.869  13.827  21.258  0.00  0.00    +0.000 C 
ATOM      2  C   UNL     1       0.937  12.743  20.885  0.00  0.00    +0.000 A 
ATOM      3  S   UNL     1      -0.468  12.590  22.016  0.00  0.00    +0.000 S 
ATOM      4  C   UNL     1      -1.252  11.762  20.684  0.00  0.00    +0.000 A 
ATOM      5  C   UNL     1      -1.949  12.681  19.684  0.00  0.00    +0.000 C 
ATOM      6  C   UNL     1      -0.210  10.894  20.401  0.00  0.00    +0.000 A 
ATOM      7  C   UNL     1       0.208   9.568  20.773  0.00  0.00    +0.000 A 
ATOM      8  O   UNL     1      -0.168   8.984  21.780  0.00  0.00    +0.000 OA
ATOM      9  N   UNL     1       1.130   9.098  19.837  0.00  0.00    +0.000 N 
ATOM     10  C   UNL     1       1.708   7.846  19.976  0.00  0.00    +0.000 A 
ATOM     11  C   UNL     1       2.294   7.220  18.937  0.00  0.00    +0.000 A 
ATOM     12  C   UNL     1       2.124   7.822  17.627  0.00  0.00    +0.000 A 
ATOM     13  C   UNL     1       1.803   9.128  17.522  0.00  0.00    +0.000 A 
ATOM     14  C   UNL     1       1.527   9.929  18.771  0.00  0.00    +0.000 A 
ATOM     15  N   UNL     1       1.550  11.243  18.825  0.00  0.00    +0.000 NA
ATOM     16  C   UNL     1       0.817  11.727  19.933  0.00  0.00    +0.000 A 
ENDROOT
BRANCH  11  17
ATOM     17  C   UNL     1       2.858   5.867  19.259  0.00  0.00    +0.000 C 
ATOM     18  O   UNL     1       3.944   5.814  19.828  0.00  0.00    +0.000 OA
ATOM     19  N   UNL     1       2.144   4.770  18.842  0.00  0.00    +0.000 N 
ATOM     20  C   UNL     1       2.686   3.505  18.915  0.00  0.00    +0.000 A 
ATOM     21  N   UNL     1       3.921   3.225  19.445  0.00  0.00    +0.000 NA
ATOM     22  N   UNL     1       4.124   1.927  19.295  0.00  0.00    +0.000 NA
ATOM     23  N   UNL     1       3.029   1.489  18.687  0.00  0.00    +0.000 N 
ATOM     24  N   UNL     1       2.080   2.417  18.427  0.00  0.00    +0.000 NA
ATOM     25  H   UNL     1       1.252   4.826  18.377  0.00  0.00    +0.000 HD
ATOM     26  H   UNL     1       2.921   0.506  18.426  0.00  0.00    +0.000 HD
ENDBRANCH  11  17
TORSDOF 1
ENDMDL
MODEL 8
REMARK VINA RESULT:      -7.3      9.291     10.114
REMARK  Name = 
REMARK  3 active torsions:
REMARK  status: ('A' for Active; 'I' for Inactive)
REMARK    1  A    between atoms: C_1  and  C_2
REMARK    2  A    between atoms: C_4  and  C_5
REMARK    3  A    between atoms: C_11  and  C_12
REMARK                            x       y       z     vdW  Elec       q    Type
REMARK                         _______ _______ _______ _____ _____    ______ ____
ROOT
ATOM      1  C   UNL     1      -4.652  13.103  22.206  0.00  0.00    +0.000 C 
ATOM      2  C   UNL     1      -3.185  13.233  22.324  0.00  0.00    +0.000 A 
ATOM      3  S   UNL     1      -2.561  14.828  21.739  0.00  0.00    +0.000 S 
ATOM      4  C   UNL     1      -1.160  14.470  22.731  0.00  0.00    +0.000 A 
ATOM      5  C   UNL     1      -1.296  14.876  24.195  0.00  0.00    +0.000 C 
ATOM      6  C   UNL     1      -0.957  13.183  22.260  0.00  0.00    +0.000 A 
ATOM      7  C   UNL     1      -0.198  12.529  21.228  0.00  0.00    +0.000 A 
ATOM      8  O   UNL     1       0.247  13.094  20.237  0.00  0.00    +0.000 OA
ATOM      9  N   UNL     1      -0.101  11.169  21.519  0.00  0.00    +0.000 N 
ATOM     10  C   UNL     1       0.566  10.305  20.666  0.00  0.00    +0.000 A 
ATOM     11  C   UNL     1       0.994   9.096  21.079  0.00  0.00    +0.000 A 
ATOM     12  C   UNL     1       0.902   8.816  22.500  0.00  0.00    +0.000 A 
ATOM     13  C   UNL     1       0.044   9.517  23.270  0.00  0.00    +0.000 A 
ATOM     14  C   UNL     1      -0.742  10.654  22.664  0.00  0.00    +0.000 A 
ATOM     15  N   UNL     1      -1.829  11.167  23.197  0.00  0.00    +0.000 NA
ATOM     16  C   UNL     1      -2.080  12.470  22.708  0.00  0.00    +0.000 A 
ENDROOT
BRANCH  11  17
ATOM     17  C   UNL     1       1.709   8.293  20.031  0.00  0.00    +0.000 C 
ATOM     18  O   UNL     1       1.659   8.684  18.869  0.00  0.00    +0.000 OA
ATOM     19  N   UNL     1       2.329   7.135  20.436  0.00  0.00    +0.000 N 
ATOM     20  C   UNL     1       2.827   6.242  19.513  0.00  0.00    +0.000 A 
ATOM     21  N   UNL     1       2.807   6.444  18.156  0.00  0.00    +0.000 NA
ATOM     22  N   UNL     1       3.317   5.361  17.593  0.00  0.00    +0.000 NA
ATOM     23  N   UNL     1       3.611   4.565  18.613  0.00  0.00    +0.000 N 
ATOM     24  N   UNL     1       3.343   5.053  19.846  0.00  0.00    +0.000 NA
ATOM     25  H   UNL     1       2.364   6.825  21.393  0.00  0.00    +0.000 HD
ATOM     26  H   UNL     1       4.009   3.635  18.466  0.00  0.00    +0.000 HD
ENDBRANCH  11  17
TORSDOF 1
ENDMDL
MODEL 9
REMARK VINA RESULT:      -7.2      9.266     10.258
REMARK  Name = 
REMARK  3 active torsions:
REMARK  status: ('A' for Active; 'I' for Inactive)
REMARK    1  A    between atoms: C_1  and  C_2
REMARK    2  A    between atoms: C_4  and  C_5
REMARK    3  A    between atoms: C_11  and  C_12
REMARK                            x       y       z     vdW  Elec       q    Type
REMARK                         _______ _______ _______ _____ _____    ______ ____
ROOT
ATOM      1  C   UNL     1      -1.291  15.887  21.835  0.00  0.00    +0.000 C 
ATOM      2  C   UNL     1      -1.596  14.451  22.000  0.00  0.00    +0.000 A 
ATOM      3  S   UNL     1      -1.627  13.924  23.731  0.00  0.00    +0.000 S 
ATOM      4  C   UNL     1      -2.588  12.580  23.144  0.00  0.00    +0.000 A 
ATOM      5  C   UNL     1      -4.083  12.866  23.034  0.00  0.00    +0.000 C 
ATOM      6  C   UNL     1      -1.749  12.229  22.098  0.00  0.00    +0.000 A 
ATOM      7  C   UNL     1      -0.645  11.336  21.867  0.00  0.00    +0.000 A 
ATOM      8  O   UNL     1       0.058  10.866  22.751  0.00  0.00    +0.000 OA
ATOM      9  N   UNL     1      -0.488  11.146  20.494  0.00  0.00    +0.000 N 
ATOM     10  C   UNL     1       0.526  10.341  20.000  0.00  0.00    +0.000 A 
ATOM     11  C   UNL     1       0.485   9.843  18.748  0.00  0.00    +0.000 A 
ATOM     12  C   UNL     1      -0.751  10.024  18.009  0.00  0.00    +0.000 A 
ATOM     13  C   UNL     1      -1.614  10.997  18.367  0.00  0.00    +0.000 A 
ATOM     14  C   UNL     1      -1.331  11.829  19.594  0.00  0.00    +0.000 A 
ATOM     15  N   UNL     1      -1.886  12.995  19.841  0.00  0.00    +0.000 NA
ATOM     16  C   UNL     1      -1.823  13.318  21.216  0.00  0.00    +0.000 A 
ENDROOT
BRANCH  11  17
ATOM     17  C   UNL     1       1.657   8.981  18.378  0.00  0.00    +0.000 C 
ATOM     18  O   UNL     1       2.231   9.209  17.318  0.00  0.00    +0.000 OA
ATOM     19  N   UNL     1       1.977   7.951  19.230  0.00  0.00    +0.000 N 
ATOM     20  C   UNL     1       2.900   6.996  18.866  0.00  0.00    +0.000 A 
ATOM     21  N   UNL     1       3.605   7.014  17.689  0.00  0.00    +0.000 NA
ATOM     22  N   UNL     1       4.348   5.920  17.662  0.00  0.00    +0.000 NA
ATOM     23  N   UNL     1       4.061   5.297  18.799  0.00  0.00    +0.000 N 
ATOM     24  N   UNL     1       3.171   5.916  19.608  0.00  0.00    +0.000 NA
ATOM     25  H   UNL     1       1.499   7.775  20.099  0.00  0.00    +0.000 HD
ATOM     26  H   UNL     1       4.485   4.398  19.036  0.00  0.00    +0.000 HD
ENDBRANCH  11  17
TORSDOF 1
ENDMDL
