MODEL 1
REMARK VINA RESULT:      -6.3      0.000      0.000
REMARK  Name = 
REMARK  8 active torsions:
REMARK  status: ('A' for Active; 'I' for Inactive)
REMARK    1  A    between atoms: C_1  and  N_2
REMARK    2  A    between atoms: N_2  and  C_3
REMARK    3  A    between atoms: N_2  and  C_4
REMARK    4  A    between atoms: C_7  and  C_8
REMARK    5  A    between atoms: C_10  and  C_11
REMARK    6  A    between atoms: N_16  and  C_17
REMARK    7  A    between atoms: C_20  and  S_21
REMARK    8  A    between atoms: S_21  and  C_22
REMARK                            x       y       z     vdW  Elec       q    Type
REMARK                         _______ _______ _______ _____ _____    ______ ____
ROOT
ATOM      1  C   UNL     1       0.037  12.515  19.878  0.00  0.00    +0.000 A 
ATOM      2  N   UNL     1      -1.026  13.184  20.297  0.00  0.00    +0.000 NA
ATOM      3  C   UNL     1      -2.110  12.333  20.182  0.00  0.00    +0.000 A 
ATOM      4  C   UNL     1      -1.674  11.107  19.714  0.00  0.00    +0.000 A 
ATOM      5  N   UNL     1      -0.300  11.179  19.638  0.00  0.00    +0.000 N 
ENDROOT
BRANCH   1   9
ATOM      6  C   UNL     1       3.868  14.428  19.061  0.00  0.00    +0.000 A 
ATOM      7  C   UNL     1       2.924  14.130  18.049  0.00  0.00    +0.000 A 
ATOM      8  C   UNL     1       1.690  13.513  18.308  0.00  0.00    +0.000 A 
ATOM      9  C   UNL     1       1.338  13.149  19.606  0.00  0.00    +0.000 A 
ATOM     10  C   UNL     1       2.275  13.371  20.612  0.00  0.00    +0.000 A 
ATOM     11  C   UNL     1       3.488  14.033  20.365  0.00  0.00    +0.000 A 
ATOM     12 CL   UNL     1       4.379  14.422  21.805  0.00  0.00    +0.000 Cl
BRANCH   6  14
ATOM     13  C   UNL     1       6.041  14.450  17.853  0.00  0.00    +0.000 C 
ATOM     14  N   UNL     1       5.060  15.071  18.736  0.00  0.00    +0.000 N 
ATOM     15  C   UNL     1       5.252  16.485  19.042  0.00  0.00    +0.000 C 
ENDBRANCH   6  14
ENDBRANCH   1   9
BRANCH   5  16
ATOM     16  C   UNL     1       0.554  10.075  19.361  0.00  0.00    +0.000 A 
ATOM     17  C   UNL     1       0.920   9.204  20.397  0.00  0.00    +0.000 A 
ATOM     18  C   UNL     1       1.722   8.092  20.122  0.00  0.00    +0.000 A 
ATOM     19  C   UNL     1       2.166   7.864  18.817  0.00  0.00    +0.000 A 
ATOM     20  C   UNL     1       1.829   8.743  17.784  0.00  0.00    +0.000 A 
ATOM     21  C   UNL     1       1.021   9.849  18.057  0.00  0.00    +0.000 A 
BRANCH  19  22
ATOM     22  S   UNL     1       3.262   6.502  18.488  0.00  0.00    +0.000 S 
ATOM     23  C   UNL     1       2.191   5.222  17.888  0.00  0.00    +0.000 C 
ATOM     24  O   UNL     1       4.134   6.904  17.397  0.00  0.00    +0.000 OA
ATOM     25  O   UNL     1       3.812   6.070  19.756  0.00  0.00    +0.000 OA
ENDBRANCH  19  22
ENDBRANCH   5  16
BRANCH   3  26
ATOM     26  C   UNL     1      -3.515  12.745  20.522  0.00  0.00    +0.000 C 
ATOM     27  F   UNL     1      -3.913  12.340  21.755  0.00  0.00    +0.000 F 
ATOM     28  F   UNL     1      -3.657  14.097  20.486  0.00  0.00    +0.000 F 
ATOM     29  F   UNL     1      -4.412  12.241  19.632  0.00  0.00    +0.000 F 
ENDBRANCH   3  26
TORSDOF 5
ENDMDL
MODEL 2
REMARK VINA RESULT:      -6.3      8.078     10.459
REMARK  Name = 
REMARK  8 active torsions:
REMARK  status: ('A' for Active; 'I' for Inactive)
REMARK    1  A    between atoms: C_1  and  N_2
REMARK    2  A    between atoms: N_2  and  C_3
REMARK    3  A    between atoms: N_2  and  C_4
REMARK    4  A    between atoms: C_7  and  C_8
REMARK    5  A    between atoms: C_10  and  C_11
REMARK    6  A    between atoms: N_16  and  C_17
REMARK    7  A    between atoms: C_20  and  S_21
REMARK    8  A    between atoms: S_21  and  C_22
REMARK                            x       y       z     vdW  Elec       q    Type
REMARK                         _______ _______ _______ _____ _____    ______ ____
ROOT
ATOM      1  C   UNL     1       6.592   5.959  16.372  0.00  0.00    +0.000 A 
ATOM      2  N   UNL     1       7.588   6.828  16.433  0.00  0.00    +0.000 NA
ATOM      3  C   UNL     1       7.383   7.599  17.563  0.00  0.00    +0.000 A 
ATOM      4  C   UNL     1       6.249   7.152  18.214  0.00  0.00    +0.000 A 
ATOM      5  N   UNL     1       5.815   6.036  17.531  0.00  0.00    +0.000 N 
ENDROOT
BRANCH   1   9
ATOM      6  C   UNL     1       5.720   3.534  12.855  0.00  0.00    +0.000 A 
ATOM      7  C   UNL     1       4.967   3.456  14.051  0.00  0.00    +0.000 A 
ATOM      8  C   UNL     1       5.246   4.234  15.187  0.00  0.00    +0.000 A 
ATOM      9  C   UNL     1       6.310   5.133  15.186  0.00  0.00    +0.000 A 
ATOM     10  C   UNL     1       7.108   5.183  14.045  0.00  0.00    +0.000 A 
ATOM     11  C   UNL     1       6.802   4.444  12.891  0.00  0.00    +0.000 A 
ATOM     12 CL   UNL     1       7.782   4.856  11.516  0.00  0.00    +0.000 Cl
BRANCH   6  14
ATOM     13  C   UNL     1       6.122   1.557  11.402  0.00  0.00    +0.000 C 
ATOM     14  N   UNL     1       5.368   2.754  11.756  0.00  0.00    +0.000 N 
ATOM     15  C   UNL     1       4.086   2.948  11.086  0.00  0.00    +0.000 C 
ENDBRANCH   6  14
ENDBRANCH   1   9
BRANCH   5  16
ATOM     16  C   UNL     1       4.773   5.173  17.972  0.00  0.00    +0.000 A 
ATOM     17  C   UNL     1       3.437   5.507  17.709  0.00  0.00    +0.000 A 
ATOM     18  C   UNL     1       2.411   4.640  18.099  0.00  0.00    +0.000 A 
ATOM     19  C   UNL     1       2.724   3.452  18.764  0.00  0.00    +0.000 A 
ATOM     20  C   UNL     1       4.051   3.126  19.056  0.00  0.00    +0.000 A 
ATOM     21  C   UNL     1       5.077   3.987  18.659  0.00  0.00    +0.000 A 
BRANCH  19  22
ATOM     22  S   UNL     1       1.413   2.398  19.343  0.00  0.00    +0.000 S 
ATOM     23  C   UNL     1       1.070   2.996  20.977  0.00  0.00    +0.000 C 
ATOM     24  O   UNL     1       0.249   2.663  18.515  0.00  0.00    +0.000 OA
ATOM     25  O   UNL     1       1.952   1.059  19.459  0.00  0.00    +0.000 OA
ENDBRANCH  19  22
ENDBRANCH   5  16
BRANCH   3  26
ATOM     26  C   UNL     1       8.287   8.734  17.956  0.00  0.00    +0.000 C 
ATOM     27  F   UNL     1       9.187   9.065  16.996  0.00  0.00    +0.000 F 
ATOM     28  F   UNL     1       7.576   9.860  18.235  0.00  0.00    +0.000 F 
ATOM     29  F   UNL     1       8.996   8.440  19.079  0.00  0.00    +0.000 F 
ENDBRANCH   3  26
TORSDOF 5
ENDMDL
MODEL 3
REMARK VINA RESULT:      -6.2      5.051      6.447
REMARK  Name = 
REMARK  8 active torsions:
REMARK  status: ('A' for Active; 'I' for Inactive)
REMARK    1  A    between atoms: C_1  and  N_2
REMARK    2  A    between atoms: N_2  and  C_3
REMARK    3  A    between atoms: N_2  and  C_4
REMARK    4  A    between atoms: C_7  and  C_8
REMARK    5  A    between atoms: C_10  and  C_11
REMARK    6  A    between atoms: N_16  and  C_17
REMARK    7  A    between atoms: C_20  and  S_21
REMARK    8  A    between atoms: S_21  and  C_22
REMARK                            x       y       z     vdW  Elec       q    Type
REMARK                         _______ _______ _______ _____ _____    ______ ____
ROOT
ATOM      1  C   UNL     1       0.798  11.810  19.214  0.00  0.00    +0.000 A 
ATOM      2  N   UNL     1       1.501  10.979  18.461  0.00  0.00    +0.000 NA
ATOM      3  C   UNL     1       1.340   9.714  18.996  0.00  0.00    +0.000 A 
ATOM      4  C   UNL     1       0.485   9.788  20.080  0.00  0.00    +0.000 A 
ATOM      5  N   UNL     1       0.044  11.092  20.146  0.00  0.00    +0.000 N 
ENDROOT
BRANCH   1   9
ATOM      6  C   UNL     1       1.110  16.152  18.988  0.00  0.00    +0.000 A 
ATOM      7  C   UNL     1      -0.047  15.441  18.590  0.00  0.00    +0.000 A 
ATOM      8  C   UNL     1      -0.151  14.042  18.659  0.00  0.00    +0.000 A 
ATOM      9  C   UNL     1       0.913  13.275  19.128  0.00  0.00    +0.000 A 
ATOM     10  C   UNL     1       2.088  13.944  19.465  0.00  0.00    +0.000 A 
ATOM     11  C   UNL     1       2.178  15.345  19.444  0.00  0.00    +0.000 A 
ATOM     12 CL   UNL     1       3.644  15.963  20.143  0.00  0.00    +0.000 Cl
BRANCH   6  14
ATOM     13  C   UNL     1       1.083  18.243  17.641  0.00  0.00    +0.000 C 
ATOM     14  N   UNL     1       1.132  17.544  18.921  0.00  0.00    +0.000 N 
ATOM     15  C   UNL     1       0.933  18.351  20.120  0.00  0.00    +0.000 C 
ENDBRANCH   6  14
ENDBRANCH   1   9
BRANCH   5  16
ATOM     16  C   UNL     1      -0.982  11.555  21.018  0.00  0.00    +0.000 A 
ATOM     17  C   UNL     1      -0.817  11.446  22.405  0.00  0.00    +0.000 A 
ATOM     18  C   UNL     1      -1.802  11.940  23.266  0.00  0.00    +0.000 A 
ATOM     19  C   UNL     1      -2.954  12.527  22.736  0.00  0.00    +0.000 A 
ATOM     20  C   UNL     1      -3.140  12.613  21.354  0.00  0.00    +0.000 A 
ATOM     21  C   UNL     1      -2.152  12.127  20.494  0.00  0.00    +0.000 A 
BRANCH  19  22
ATOM     22  S   UNL     1      -4.247  13.069  23.831  0.00  0.00    +0.000 S 
ATOM     23  C   UNL     1      -5.582  13.491  22.744  0.00  0.00    +0.000 C 
ATOM     24  O   UNL     1      -4.656  11.919  24.619  0.00  0.00    +0.000 OA
ATOM     25  O   UNL     1      -3.790  14.284  24.474  0.00  0.00    +0.000 OA
ENDBRANCH  19  22
ENDBRANCH   5  16
BRANCH   3  26
ATOM     26  C   UNL     1       2.023   8.496  18.441  0.00  0.00    +0.000 C 
ATOM     27  F   UNL     1       2.304   7.558  19.380  0.00  0.00    +0.000 F 
ATOM     28  F   UNL     1       1.259   7.888  17.493  0.00  0.00    +0.000 F 
ATOM     29  F   UNL     1       3.199   8.816  17.837  0.00  0.00    +0.000 F 
ENDBRANCH   3  26
TORSDOF 5
ENDMDL
MODEL 4
REMARK VINA RESULT:      -6.2      0.686      1.235
REMARK  Name = 
REMARK  8 active torsions:
REMARK  status: ('A' for Active; 'I' for Inactive)
REMARK    1  A    between atoms: C_1  and  N_2
REMARK    2  A    between atoms: N_2  and  C_3
REMARK    3  A    between atoms: N_2  and  C_4
REMARK    4  A    between atoms: C_7  and  C_8
REMARK    5  A    between atoms: C_10  and  C_11
REMARK    6  A    between atoms: N_16  and  C_17
REMARK    7  A    between atoms: C_20  and  S_21
REMARK    8  A    between atoms: S_21  and  C_22
REMARK                            x       y       z     vdW  Elec       q    Type
REMARK                         _______ _______ _______ _____ _____    ______ ____
ROOT
ATOM      1  C   UNL     1      -0.002  12.497  19.892  0.00  0.00    +0.000 A 
ATOM      2  N   UNL     1      -1.049  13.184  20.320  0.00  0.00    +0.000 NA
ATOM      3  C   UNL     1      -2.147  12.348  20.221  0.00  0.00    +0.000 A 
ATOM      4  C   UNL     1      -1.735  11.115  19.754  0.00  0.00    +0.000 A 
ATOM      5  N   UNL     1      -0.360  11.166  19.661  0.00  0.00    +0.000 N 
ENDROOT
BRANCH   1   9
ATOM      6  C   UNL     1       3.848  14.351  19.023  0.00  0.00    +0.000 A 
ATOM      7  C   UNL     1       2.890  14.060  18.023  0.00  0.00    +0.000 A 
ATOM      8  C   UNL     1       1.649  13.461  18.298  0.00  0.00    +0.000 A 
ATOM      9  C   UNL     1       1.305  13.112  19.602  0.00  0.00    +0.000 A 
ATOM     10  C   UNL     1       2.256  13.326  20.597  0.00  0.00    +0.000 A 
ATOM     11  C   UNL     1       3.476  13.970  20.334  0.00  0.00    +0.000 A 
ATOM     12 CL   UNL     1       4.387  14.356  21.762  0.00  0.00    +0.000 Cl
BRANCH   6  14
ATOM     13  C   UNL     1       6.036  14.309  17.842  0.00  0.00    +0.000 C 
ATOM     14  N   UNL     1       5.046  14.974  18.681  0.00  0.00    +0.000 N 
ATOM     15  C   UNL     1       5.238  16.401  18.920  0.00  0.00    +0.000 C 
ENDBRANCH   6  14
ENDBRANCH   1   9
BRANCH   5  16
ATOM     16  C   UNL     1       0.474  10.048  19.380  0.00  0.00    +0.000 A 
ATOM     17  C   UNL     1       0.895   9.810  18.064  0.00  0.00    +0.000 A 
ATOM     18  C   UNL     1       1.752   8.739  17.790  0.00  0.00    +0.000 A 
ATOM     19  C   UNL     1       2.170   7.903  18.828  0.00  0.00    +0.000 A 
ATOM     20  C   UNL     1       1.731   8.116  20.137  0.00  0.00    +0.000 A 
ATOM     21  C   UNL     1       0.882   9.190  20.413  0.00  0.00    +0.000 A 
BRANCH  19  22
ATOM     22  S   UNL     1       3.182   6.486  18.461  0.00  0.00    +0.000 S 
ATOM     23  C   UNL     1       4.336   7.083  17.254  0.00  0.00    +0.000 C 
ATOM     24  O   UNL     1       3.924   6.162  19.667  0.00  0.00    +0.000 OA
ATOM     25  O   UNL     1       2.335   5.500  17.823  0.00  0.00    +0.000 OA
ENDBRANCH  19  22
ENDBRANCH   5  16
BRANCH   3  26
ATOM     26  C   UNL     1      -3.541  12.782  20.576  0.00  0.00    +0.000 C 
ATOM     27  F   UNL     1      -3.923  12.409  21.823  0.00  0.00    +0.000 F 
ATOM     28  F   UNL     1      -3.671  14.135  20.513  0.00  0.00    +0.000 F 
ATOM     29  F   UNL     1      -4.458  12.269  19.711  0.00  0.00    +0.000 F 
ENDBRANCH   3  26
TORSDOF 5
ENDMDL
MODEL 5
REMARK VINA RESULT:      -6.2      5.042      6.514
REMARK  Name = 
REMARK  8 active torsions:
REMARK  status: ('A' for Active; 'I' for Inactive)
REMARK    1  A    between atoms: C_1  and  N_2
REMARK    2  A    between atoms: N_2  and  C_3
REMARK    3  A    between atoms: N_2  and  C_4
REMARK    4  A    between atoms: C_7  and  C_8
REMARK    5  A    between atoms: C_10  and  C_11
REMARK    6  A    between atoms: N_16  and  C_17
REMARK    7  A    between atoms: C_20  and  S_21
REMARK    8  A    between atoms: S_21  and  C_22
REMARK                            x       y       z     vdW  Elec       q    Type
REMARK                         _______ _______ _______ _____ _____    ______ ____
ROOT
ATOM      1  C   UNL     1       0.765  11.751  19.188  0.00  0.00    +0.000 A 
ATOM      2  N   UNL     1       1.449  10.903  18.438  0.00  0.00    +0.000 NA
ATOM      3  C   UNL     1       1.315   9.653  19.016  0.00  0.00    +0.000 A 
ATOM      4  C   UNL     1       0.496   9.755  20.125  0.00  0.00    +0.000 A 
ATOM      5  N   UNL     1       0.047  11.057  20.166  0.00  0.00    +0.000 N 
ENDROOT
BRANCH   1   9
ATOM      6  C   UNL     1       1.039  16.087  18.824  0.00  0.00    +0.000 A 
ATOM      7  C   UNL     1      -0.157  15.367  18.583  0.00  0.00    +0.000 A 
ATOM      8  C   UNL     1      -0.248  13.971  18.697  0.00  0.00    +0.000 A 
ATOM      9  C   UNL     1       0.866  13.214  19.054  0.00  0.00    +0.000 A 
ATOM     10  C   UNL     1       2.071  13.890  19.233  0.00  0.00    +0.000 A 
ATOM     11  C   UNL     1       2.155  15.290  19.169  0.00  0.00    +0.000 A 
ATOM     12 CL   UNL     1       3.692  15.923  19.674  0.00  0.00    +0.000 Cl
BRANCH   6  14
ATOM     13  C   UNL     1       1.076  18.325  19.907  0.00  0.00    +0.000 C 
ATOM     14  N   UNL     1       1.049  17.476  18.721  0.00  0.00    +0.000 N 
ATOM     15  C   UNL     1       1.303  18.127  17.440  0.00  0.00    +0.000 C 
ENDBRANCH   6  14
ENDBRANCH   1   9
BRANCH   5  16
ATOM     16  C   UNL     1      -0.954  11.539  21.056  0.00  0.00    +0.000 A 
ATOM     17  C   UNL     1      -2.122  12.117  20.541  0.00  0.00    +0.000 A 
ATOM     18  C   UNL     1      -3.128  12.551  21.410  0.00  0.00    +0.000 A 
ATOM     19  C   UNL     1      -2.954  12.419  22.790  0.00  0.00    +0.000 A 
ATOM     20  C   UNL     1      -1.780  11.871  23.313  0.00  0.00    +0.000 A 
ATOM     21  C   UNL     1      -0.779  11.430  22.445  0.00  0.00    +0.000 A 
BRANCH  19  22
ATOM     22  S   UNL     1      -4.193  13.058  23.896  0.00  0.00    +0.000 S 
ATOM     23  C   UNL     1      -5.479  13.629  22.817  0.00  0.00    +0.000 C 
ATOM     24  O   UNL     1      -4.713  11.935  24.657  0.00  0.00    +0.000 OA
ATOM     25  O   UNL     1      -3.625  14.209  24.566  0.00  0.00    +0.000 OA
ENDBRANCH  19  22
ENDBRANCH   5  16
BRANCH   3  26
ATOM     26  C   UNL     1       1.989   8.423  18.475  0.00  0.00    +0.000 C 
ATOM     27  F   UNL     1       2.195   7.464  19.411  0.00  0.00    +0.000 F 
ATOM     28  F   UNL     1       1.256   7.853  17.480  0.00  0.00    +0.000 F 
ATOM     29  F   UNL     1       3.203   8.717  17.935  0.00  0.00    +0.000 F 
ENDBRANCH   3  26
TORSDOF 5
ENDMDL
MODEL 6
REMARK VINA RESULT:      -6.1      5.358      7.993
REMARK  Name = 
REMARK  8 active torsions:
REMARK  status: ('A' for Active; 'I' for Inactive)
REMARK    1  A    between atoms: C_1  and  N_2
REMARK    2  A    between atoms: N_2  and  C_3
REMARK    3  A    between atoms: N_2  and  C_4
REMARK    4  A    between atoms: C_7  and  C_8
REMARK    5  A    between atoms: C_10  and  C_11
REMARK    6  A    between atoms: N_16  and  C_17
REMARK    7  A    between atoms: C_20  and  S_21
REMARK    8  A    between atoms: S_21  and  C_22
REMARK                            x       y       z     vdW  Elec       q    Type
REMARK                         _______ _______ _______ _____ _____    ______ ____
ROOT
ATOM      1  C   UNL     1       0.222  11.307  20.104  0.00  0.00    +0.000 A 
ATOM      2  N   UNL     1       0.577  10.035  20.012  0.00  0.00    +0.000 NA
ATOM      3  C   UNL     1       1.398   9.923  18.905  0.00  0.00    +0.000 A 
ATOM      4  C   UNL     1       1.567  11.174  18.341  0.00  0.00    +0.000 A 
ATOM      5  N   UNL     1       0.926  12.070  19.168  0.00  0.00    +0.000 N 
ENDROOT
BRANCH   1   9
ATOM      6  C   UNL     1      -2.920  12.763  22.752  0.00  0.00    +0.000 A 
ATOM      7  C   UNL     1      -1.634  12.393  23.214  0.00  0.00    +0.000 A 
ATOM      8  C   UNL     1      -0.620  11.921  22.364  0.00  0.00    +0.000 A 
ATOM      9  C   UNL     1      -0.847  11.787  20.996  0.00  0.00    +0.000 A 
ATOM     10  C   UNL     1      -2.124  12.082  20.524  0.00  0.00    +0.000 A 
ATOM     11  C   UNL     1      -3.124  12.601  21.362  0.00  0.00    +0.000 A 
ATOM     12 CL   UNL     1      -4.544  13.130  20.512  0.00  0.00    +0.000 Cl
BRANCH   6  14
ATOM     13  C   UNL     1      -4.408  12.416  24.714  0.00  0.00    +0.000 C 
ATOM     14  N   UNL     1      -3.868  13.252  23.648  0.00  0.00    +0.000 N 
ATOM     15  C   UNL     1      -4.155  14.681  23.723  0.00  0.00    +0.000 C 
ENDBRANCH   6  14
ENDBRANCH   1   9
BRANCH   5  16
ATOM     16  C   UNL     1       1.001  13.486  19.040  0.00  0.00    +0.000 A 
ATOM     17  C   UNL     1       2.236  14.132  19.182  0.00  0.00    +0.000 A 
ATOM     18  C   UNL     1       2.323  15.517  19.013  0.00  0.00    +0.000 A 
ATOM     19  C   UNL     1       1.173  16.252  18.716  0.00  0.00    +0.000 A 
ATOM     20  C   UNL     1      -0.068  15.620  18.602  0.00  0.00    +0.000 A 
ATOM     21  C   UNL     1      -0.154  14.235  18.763  0.00  0.00    +0.000 A 
BRANCH  19  22
ATOM     22  S   UNL     1       1.269  18.024  18.594  0.00  0.00    +0.000 S 
ATOM     23  C   UNL     1      -0.408  18.561  18.796  0.00  0.00    +0.000 C 
ATOM     24  O   UNL     1       2.031  18.494  19.739  0.00  0.00    +0.000 OA
ATOM     25  O   UNL     1       1.684  18.345  17.245  0.00  0.00    +0.000 OA
ENDBRANCH  19  22
ENDBRANCH   5  16
BRANCH   3  26
ATOM     26  C   UNL     1       1.974   8.615  18.440  0.00  0.00    +0.000 C 
ATOM     27  F   UNL     1       3.229   8.727  17.935  0.00  0.00    +0.000 F 
ATOM     28  F   UNL     1       2.037   7.712  19.456  0.00  0.00    +0.000 F 
ATOM     29  F   UNL     1       1.206   8.048  17.471  0.00  0.00    +0.000 F 
ENDBRANCH   3  26
TORSDOF 5
ENDMDL
MODEL 7
REMARK VINA RESULT:      -6.1      5.120      6.490
REMARK  Name = 
REMARK  8 active torsions:
REMARK  status: ('A' for Active; 'I' for Inactive)
REMARK    1  A    between atoms: C_1  and  N_2
REMARK    2  A    between atoms: N_2  and  C_3
REMARK    3  A    between atoms: N_2  and  C_4
REMARK    4  A    between atoms: C_7  and  C_8
REMARK    5  A    between atoms: C_10  and  C_11
REMARK    6  A    between atoms: N_16  and  C_17
REMARK    7  A    between atoms: C_20  and  S_21
REMARK    8  A    between atoms: S_21  and  C_22
REMARK                            x       y       z     vdW  Elec       q    Type
REMARK                         _______ _______ _______ _____ _____    ______ ____
ROOT
ATOM      1  C   UNL     1       0.759  11.901  19.145  0.00  0.00    +0.000 A 
ATOM      2  N   UNL     1       1.443  11.057  18.388  0.00  0.00    +0.000 NA
ATOM      3  C   UNL     1       1.285   9.799  18.941  0.00  0.00    +0.000 A 
ATOM      4  C   UNL     1       0.452   9.891  20.041  0.00  0.00    +0.000 A 
ATOM      5  N   UNL     1       0.019  11.198  20.100  0.00  0.00    +0.000 N 
ENDROOT
BRANCH   1   9
ATOM      6  C   UNL     1       1.092  16.239  18.864  0.00  0.00    +0.000 A 
ATOM      7  C   UNL     1      -0.103  15.537  18.573  0.00  0.00    +0.000 A 
ATOM      8  C   UNL     1      -0.214  14.140  18.661  0.00  0.00    +0.000 A 
ATOM      9  C   UNL     1       0.880  13.365  19.039  0.00  0.00    +0.000 A 
ATOM     10  C   UNL     1       2.087  14.023  19.267  0.00  0.00    +0.000 A 
ATOM     11  C   UNL     1       2.188  15.423  19.230  0.00  0.00    +0.000 A 
ATOM     12 CL   UNL     1       3.716  16.030  19.794  0.00  0.00    +0.000 Cl
BRANCH   6  14
ATOM     13  C   UNL     1       1.039  18.320  17.503  0.00  0.00    +0.000 C 
ATOM     14  N   UNL     1       1.121  17.629  18.786  0.00  0.00    +0.000 N 
ATOM     15  C   UNL     1       0.963  18.446  19.984  0.00  0.00    +0.000 C 
ENDBRANCH   6  14
ENDBRANCH   1   9
BRANCH   5  16
ATOM     16  C   UNL     1      -0.988  11.677  20.985  0.00  0.00    +0.000 A 
ATOM     17  C   UNL     1      -0.724  11.757  22.359  0.00  0.00    +0.000 A 
ATOM     18  C   UNL     1      -1.693  12.269  23.227  0.00  0.00    +0.000 A 
ATOM     19  C   UNL     1      -2.927  12.684  22.720  0.00  0.00    +0.000 A 
ATOM     20  C   UNL     1      -3.209  12.580  21.356  0.00  0.00    +0.000 A 
ATOM     21  C   UNL     1      -2.238  12.077  20.487  0.00  0.00    +0.000 A 
BRANCH  19  22
ATOM     22  S   UNL     1      -4.191  13.246  23.838  0.00  0.00    +0.000 S 
ATOM     23  C   UNL     1      -3.351  14.396  24.895  0.00  0.00    +0.000 C 
ATOM     24  O   UNL     1      -5.163  13.987  23.053  0.00  0.00    +0.000 OA
ATOM     25  O   UNL     1      -4.597  12.112  24.642  0.00  0.00    +0.000 OA
ENDBRANCH  19  22
ENDBRANCH   5  16
BRANCH   3  26
ATOM     26  C   UNL     1       1.951   8.571  18.387  0.00  0.00    +0.000 C 
ATOM     27  F   UNL     1       1.249   7.982  17.386  0.00  0.00    +0.000 F 
ATOM     28  F   UNL     1       3.184   8.858  17.888  0.00  0.00    +0.000 F 
ATOM     29  F   UNL     1       2.136   7.627  19.349  0.00  0.00    +0.000 F 
ENDBRANCH   3  26
TORSDOF 5
ENDMDL
MODEL 8
REMARK VINA RESULT:      -6.1      0.673      1.101
REMARK  Name = 
REMARK  8 active torsions:
REMARK  status: ('A' for Active; 'I' for Inactive)
REMARK    1  A    between atoms: C_1  and  N_2
REMARK    2  A    between atoms: N_2  and  C_3
REMARK    3  A    between atoms: N_2  and  C_4
REMARK    4  A    between atoms: C_7  and  C_8
REMARK    5  A    between atoms: C_10  and  C_11
REMARK    6  A    between atoms: N_16  and  C_17
REMARK    7  A    between atoms: C_20  and  S_21
REMARK    8  A    between atoms: S_21  and  C_22
REMARK                            x       y       z     vdW  Elec       q    Type
REMARK                         _______ _______ _______ _____ _____    ______ ____
ROOT
ATOM      1  C   UNL     1       0.050  12.524  19.897  0.00  0.00    +0.000 A 
ATOM      2  N   UNL     1      -0.999  13.207  20.329  0.00  0.00    +0.000 NA
ATOM      3  C   UNL     1      -2.096  12.371  20.225  0.00  0.00    +0.000 A 
ATOM      4  C   UNL     1      -1.682  11.141  19.751  0.00  0.00    +0.000 A 
ATOM      5  N   UNL     1      -0.308  11.194  19.659  0.00  0.00    +0.000 N 
ENDROOT
BRANCH   1   9
ATOM      6  C   UNL     1       3.897  14.386  19.039  0.00  0.00    +0.000 A 
ATOM      7  C   UNL     1       2.948  14.080  18.034  0.00  0.00    +0.000 A 
ATOM      8  C   UNL     1       1.708  13.479  18.306  0.00  0.00    +0.000 A 
ATOM      9  C   UNL     1       1.356  13.141  19.611  0.00  0.00    +0.000 A 
ATOM     10  C   UNL     1       2.298  13.371  20.611  0.00  0.00    +0.000 A 
ATOM     11  C   UNL     1       3.517  14.017  20.350  0.00  0.00    +0.000 A 
ATOM     12 CL   UNL     1       4.415  14.422  21.781  0.00  0.00    +0.000 Cl
BRANCH   6  14
ATOM     13  C   UNL     1       6.080  14.354  17.848  0.00  0.00    +0.000 C 
ATOM     14  N   UNL     1       5.095  15.011  18.699  0.00  0.00    +0.000 N 
ATOM     15  C   UNL     1       5.291  16.434  18.955  0.00  0.00    +0.000 C 
ENDBRANCH   6  14
ENDBRANCH   1   9
BRANCH   5  16
ATOM     16  C   UNL     1       0.527  10.079  19.370  0.00  0.00    +0.000 A 
ATOM     17  C   UNL     1       0.913   9.214  20.404  0.00  0.00    +0.000 A 
ATOM     18  C   UNL     1       1.696   8.091  20.119  0.00  0.00    +0.000 A 
ATOM     19  C   UNL     1       2.102   7.846  18.805  0.00  0.00    +0.000 A 
ATOM     20  C   UNL     1       1.747   8.719  17.773  0.00  0.00    +0.000 A 
ATOM     21  C   UNL     1       0.958   9.836  18.056  0.00  0.00    +0.000 A 
BRANCH  19  22
ATOM     22  S   UNL     1       3.176   6.470  18.460  0.00  0.00    +0.000 S 
ATOM     23  C   UNL     1       4.351   7.121  17.303  0.00  0.00    +0.000 C 
ATOM     24  O   UNL     1       3.885   6.157  19.689  0.00  0.00    +0.000 OA
ATOM     25  O   UNL     1       2.388   5.463  17.781  0.00  0.00    +0.000 OA
ENDBRANCH  19  22
ENDBRANCH   5  16
BRANCH   3  26
ATOM     26  C   UNL     1      -3.491  12.802  20.582  0.00  0.00    +0.000 C 
ATOM     27  F   UNL     1      -3.659  14.149  20.573  0.00  0.00    +0.000 F 
ATOM     28  F   UNL     1      -4.406  12.284  19.719  0.00  0.00    +0.000 F 
ATOM     29  F   UNL     1      -3.844  12.368  21.822  0.00  0.00    +0.000 F 
ENDBRANCH   3  26
TORSDOF 5
ENDMDL
MODEL 9
REMARK VINA RESULT:      -6.1      5.362      8.004
REMARK  Name = 
REMARK  8 active torsions:
REMARK  status: ('A' for Active; 'I' for Inactive)
REMARK    1  A    between atoms: C_1  and  N_2
REMARK    2  A    between atoms: N_2  and  C_3
REMARK    3  A    between atoms: N_2  and  C_4
REMARK    4  A    between atoms: C_7  and  C_8
REMARK    5  A    between atoms: C_10  and  C_11
REMARK    6  A    between atoms: N_16  and  C_17
REMARK    7  A    between atoms: C_20  and  S_21
REMARK    8  A    between atoms: S_21  and  C_22
REMARK                            x       y       z     vdW  Elec       q    Type
REMARK                         _______ _______ _______ _____ _____    ______ ____
ROOT
ATOM      1  C   UNL     1       0.226  11.384  20.088  0.00  0.00    +0.000 A 
ATOM      2  N   UNL     1       0.568  10.108  20.012  0.00  0.00    +0.000 NA
ATOM      3  C   UNL     1       1.356   9.968  18.884  0.00  0.00    +0.000 A 
ATOM      4  C   UNL     1       1.518  11.206  18.290  0.00  0.00    +0.000 A 
ATOM      5  N   UNL     1       0.907  12.123  19.117  0.00  0.00    +0.000 N 
ENDROOT
BRANCH   1   9
ATOM      6  C   UNL     1      -2.831  12.919  22.791  0.00  0.00    +0.000 A 
ATOM      7  C   UNL     1      -1.498  12.671  23.197  0.00  0.00    +0.000 A 
ATOM      8  C   UNL     1      -0.511  12.175  22.330  0.00  0.00    +0.000 A 
ATOM      9  C   UNL     1      -0.814  11.890  21.000  0.00  0.00    +0.000 A 
ATOM     10  C   UNL     1      -2.134  12.062  20.591  0.00  0.00    +0.000 A 
ATOM     11  C   UNL     1      -3.111  12.605  21.441  0.00  0.00    +0.000 A 
ATOM     12 CL   UNL     1      -4.612  12.964  20.643  0.00  0.00    +0.000 Cl
BRANCH   6  14
ATOM     13  C   UNL     1      -4.074  14.864  23.718  0.00  0.00    +0.000 C 
ATOM     14  N   UNL     1      -3.750  13.441  23.698  0.00  0.00    +0.000 N 
ATOM     15  C   UNL     1      -4.616  12.559  24.473  0.00  0.00    +0.000 C 
ENDBRANCH   6  14
ENDBRANCH   1   9
BRANCH   5  16
ATOM     16  C   UNL     1       0.989  13.535  18.958  0.00  0.00    +0.000 A 
ATOM     17  C   UNL     1      -0.176  14.275  18.709  0.00  0.00    +0.000 A 
ATOM     18  C   UNL     1      -0.107  15.667  18.597  0.00  0.00    +0.000 A 
ATOM     19  C   UNL     1       1.126  16.312  18.720  0.00  0.00    +0.000 A 
ATOM     20  C   UNL     1       2.296  15.579  18.939  0.00  0.00    +0.000 A 
ATOM     21  C   UNL     1       2.227  14.189  19.059  0.00  0.00    +0.000 A 
BRANCH  19  22
ATOM     22  S   UNL     1       1.224  18.072  18.483  0.00  0.00    +0.000 S 
ATOM     23  C   UNL     1      -0.468  18.602  18.486  0.00  0.00    +0.000 C 
ATOM     24  O   UNL     1       1.870  18.631  19.658  0.00  0.00    +0.000 OA
ATOM     25  O   UNL     1       1.764  18.303  17.160  0.00  0.00    +0.000 OA
ENDBRANCH  19  22
ENDBRANCH   5  16
BRANCH   3  26
ATOM     26  C   UNL     1       1.910   8.646  18.429  0.00  0.00    +0.000 C 
ATOM     27  F   UNL     1       3.174   8.728  17.945  0.00  0.00    +0.000 F 
ATOM     28  F   UNL     1       1.935   7.743  19.447  0.00  0.00    +0.000 F 
ATOM     29  F   UNL     1       1.145   8.097  17.448  0.00  0.00    +0.000 F 
ENDBRANCH   3  26
TORSDOF 5
ENDMDL
