MODEL 1
REMARK VINA RESULT:      -8.1      0.000      0.000
REMARK  Name = 
REMARK  7 active torsions:
REMARK  status: ('A' for Active; 'I' for Inactive)
REMARK    1  A    between atoms: C_1  and  C_2
REMARK    2  A    between atoms: C_2  and  O_4
REMARK    3  A    between atoms: O_4  and  C_5
REMARK    4  A    between atoms: C_11  and  C_12
REMARK    5  A    between atoms: C_14  and  C_15
REMARK    6  A    between atoms: C_15  and  C_17
REMARK    7  A    between atoms: C_24  and  C_25
REMARK                            x       y       z     vdW  Elec       q    Type
REMARK                         _______ _______ _______ _____ _____    ______ ____
ROOT
ATOM      1  C   UNL     1       3.337   5.761  17.270  0.00  0.00    +0.000 C 
ATOM      2  N   UNL     1       3.497   7.192  17.631  0.00  0.00    +0.000 NA
ATOM      3  C   UNL     1       2.305   7.542  18.007  0.00  0.00    +0.000 C 
ATOM      4  O   UNL     1       1.315   6.638  18.044  0.00  0.00    +0.000 OA
ATOM      5  C   UNL     1       1.962   5.372  17.859  0.00  0.00    +0.000 C 
ENDROOT
BRANCH   1  12
ATOM      6  C   UNL     1       5.857   5.899  17.789  0.00  0.00    +0.000 C 
ATOM      7  C   UNL     1       6.348   6.235  16.417  0.00  0.00    +0.000 C 
ATOM      8  C   UNL     1       6.343   5.287  15.472  0.00  0.00    +0.000 C 
ATOM      9  C   UNL     1       5.826   3.945  15.788  0.00  0.00    +0.000 C 
ATOM     10  O   UNL     1       6.210   2.965  15.167  0.00  0.00    +0.000 OA
ATOM     11  O   UNL     1       4.864   3.875  16.751  0.00  0.00    +0.000 OA
ATOM     12  C   UNL     1       4.612   4.978  17.669  0.00  0.00    +0.000 C 
BRANCH   6  13
ATOM     13  O   UNL     1       6.940   5.148  18.391  0.00  0.00    +0.000 OA
BRANCH  13  15
ATOM     14  C   UNL     1       8.240   7.054  18.782  0.00  0.00    +0.000 C 
ATOM     15  C   UNL     1       7.704   5.768  19.326  0.00  0.00    +0.000 C 
ATOM     16  O   UNL     1       7.883   5.374  20.474  0.00  0.00    +0.000 OA
ENDBRANCH  13  15
ENDBRANCH   6  13
ENDBRANCH   1  12
BRANCH   5  17
ATOM     17  C   UNL     1       1.884   4.613  19.165  0.00  0.00    +0.000 A 
ATOM     18  C   UNL     1       1.272   3.349  19.200  0.00  0.00    +0.000 A 
ATOM     19  C   UNL     1       1.280   2.584  20.368  0.00  0.00    +0.000 A 
ATOM     20  C   UNL     1       1.876   3.080  21.523  0.00  0.00    +0.000 A 
ATOM     21  C   UNL     1       2.411   4.365  21.528  0.00  0.00    +0.000 A 
ATOM     22  C   UNL     1       2.399   5.131  20.363  0.00  0.00    +0.000 A 
ENDBRANCH   5  17
BRANCH   3  23
ATOM     23  C   UNL     1       1.941   8.945  18.446  0.00  0.00    +0.000 C 
ATOM     24  O   UNL     1       2.288   9.896  17.758  0.00  0.00    +0.000 OA
BRANCH  23  25
ATOM     25  C   UNL     1       1.208   9.135  19.725  0.00  0.00    +0.000 A 
ATOM     26  C   UNL     1       0.169  10.072  19.765  0.00  0.00    +0.000 A 
ATOM     27  C   UNL     1      -0.526  10.301  20.953  0.00  0.00    +0.000 A 
ATOM     28  C   UNL     1      -0.197   9.584  22.101  0.00  0.00    +0.000 A 
ATOM     29  C   UNL     1       0.824   8.635  22.063  0.00  0.00    +0.000 A 
ATOM     30  C   UNL     1       1.526   8.410  20.877  0.00  0.00    +0.000 A 
ENDBRANCH  23  25
ENDBRANCH   3  23
TORSDOF 6
ENDMDL
MODEL 2
REMARK VINA RESULT:      -7.9      0.382      1.299
REMARK  Name = 
REMARK  7 active torsions:
REMARK  status: ('A' for Active; 'I' for Inactive)
REMARK    1  A    between atoms: C_1  and  C_2
REMARK    2  A    between atoms: C_2  and  O_4
REMARK    3  A    between atoms: O_4  and  C_5
REMARK    4  A    between atoms: C_11  and  C_12
REMARK    5  A    between atoms: C_14  and  C_15
REMARK    6  A    between atoms: C_15  and  C_17
REMARK    7  A    between atoms: C_24  and  C_25
REMARK                            x       y       z     vdW  Elec       q    Type
REMARK                         _______ _______ _______ _____ _____    ______ ____
ROOT
ATOM      1  C   UNL     1       3.478   6.182  17.199  0.00  0.00    +0.000 C 
ATOM      2  N   UNL     1       3.589   7.576  17.696  0.00  0.00    +0.000 NA
ATOM      3  C   UNL     1       2.370   7.873  18.031  0.00  0.00    +0.000 C 
ATOM      4  O   UNL     1       1.398   6.954  17.929  0.00  0.00    +0.000 OA
ATOM      5  C   UNL     1       2.079   5.720  17.669  0.00  0.00    +0.000 C 
ENDROOT
BRANCH   1  12
ATOM      6  C   UNL     1       6.049   6.192  17.361  0.00  0.00    +0.000 C 
ATOM      7  C   UNL     1       6.364   6.186  15.899  0.00  0.00    +0.000 C 
ATOM      8  C   UNL     1       6.166   5.065  15.194  0.00  0.00    +0.000 C 
ATOM      9  C   UNL     1       5.614   3.873  15.859  0.00  0.00    +0.000 C 
ATOM     10  O   UNL     1       5.843   2.753  15.426  0.00  0.00    +0.000 OA
ATOM     11  O   UNL     1       4.794   4.096  16.924  0.00  0.00    +0.000 OA
ATOM     12  C   UNL     1       4.744   5.386  17.601  0.00  0.00    +0.000 C 
BRANCH   6  13
ATOM     13  O   UNL     1       7.156   5.486  17.976  0.00  0.00    +0.000 OA
BRANCH  13  15
ATOM     14  C   UNL     1       8.300   7.370  18.763  0.00  0.00    +0.000 C 
ATOM     15  C   UNL     1       7.721   6.028  19.084  0.00  0.00    +0.000 C 
ATOM     16  O   UNL     1       7.709   5.530  20.205  0.00  0.00    +0.000 OA
ENDBRANCH  13  15
ENDBRANCH   6  13
ENDBRANCH   1  12
BRANCH   5  17
ATOM     17  C   UNL     1       1.943   4.845  18.895  0.00  0.00    +0.000 A 
ATOM     18  C   UNL     1       2.488   5.271  20.118  0.00  0.00    +0.000 A 
ATOM     19  C   UNL     1       2.285   4.532  21.286  0.00  0.00    +0.000 A 
ATOM     20  C   UNL     1       1.559   3.346  21.244  0.00  0.00    +0.000 A 
ATOM     21  C   UNL     1       1.087   2.867  20.025  0.00  0.00    +0.000 A 
ATOM     22  C   UNL     1       1.293   3.602  18.859  0.00  0.00    +0.000 A 
ENDBRANCH   5  17
BRANCH   3  23
ATOM     23  C   UNL     1       1.953   9.224  18.572  0.00  0.00    +0.000 C 
ATOM     24  O   UNL     1       2.299  10.239  17.980  0.00  0.00    +0.000 OA
BRANCH  23  25
ATOM     25  C   UNL     1       1.170   9.288  19.834  0.00  0.00    +0.000 A 
ATOM     26  C   UNL     1       1.475   8.381  20.855  0.00  0.00    +0.000 A 
ATOM     27  C   UNL     1       0.746   8.390  22.044  0.00  0.00    +0.000 A 
ATOM     28  C   UNL     1      -0.280   9.313  22.225  0.00  0.00    +0.000 A 
ATOM     29  C   UNL     1      -0.576  10.234  21.220  0.00  0.00    +0.000 A 
ATOM     30  C   UNL     1       0.148  10.222  20.026  0.00  0.00    +0.000 A 
ENDBRANCH  23  25
ENDBRANCH   3  23
TORSDOF 6
ENDMDL
MODEL 3
REMARK VINA RESULT:      -7.9      1.008      1.602
REMARK  Name = 
REMARK  7 active torsions:
REMARK  status: ('A' for Active; 'I' for Inactive)
REMARK    1  A    between atoms: C_1  and  C_2
REMARK    2  A    between atoms: C_2  and  O_4
REMARK    3  A    between atoms: O_4  and  C_5
REMARK    4  A    between atoms: C_11  and  C_12
REMARK    5  A    between atoms: C_14  and  C_15
REMARK    6  A    between atoms: C_15  and  C_17
REMARK    7  A    between atoms: C_24  and  C_25
REMARK                            x       y       z     vdW  Elec       q    Type
REMARK                         _______ _______ _______ _____ _____    ______ ____
ROOT
ATOM      1  C   UNL     1       3.710   6.357  17.533  0.00  0.00    +0.000 C 
ATOM      2  N   UNL     1       3.646   7.771  17.981  0.00  0.00    +0.000 NA
ATOM      3  C   UNL     1       2.371   8.016  18.015  0.00  0.00    +0.000 C 
ATOM      4  O   UNL     1       1.488   7.047  17.734  0.00  0.00    +0.000 OA
ATOM      5  C   UNL     1       2.262   5.841  17.691  0.00  0.00    +0.000 C 
ENDROOT
BRANCH   1  12
ATOM      6  C   UNL     1       6.058   5.324  17.285  0.00  0.00    +0.000 C 
ATOM      7  C   UNL     1       5.693   4.144  16.442  0.00  0.00    +0.000 C 
ATOM      8  C   UNL     1       5.032   3.122  17.000  0.00  0.00    +0.000 C 
ATOM      9  C   UNL     1       4.649   3.191  18.420  0.00  0.00    +0.000 C 
ATOM     10  O   UNL     1       4.486   2.172  19.075  0.00  0.00    +0.000 OA
ATOM     11  O   UNL     1       4.427   4.435  18.931  0.00  0.00    +0.000 OA
ATOM     12  C   UNL     1       4.882   5.640  18.248  0.00  0.00    +0.000 C 
BRANCH   6  13
ATOM     13  O   UNL     1       7.196   4.878  18.063  0.00  0.00    +0.000 OA
BRANCH  13  15
ATOM     14  C   UNL     1       8.049   7.023  18.452  0.00  0.00    +0.000 C 
ATOM     15  C   UNL     1       7.665   5.701  19.036  0.00  0.00    +0.000 C 
ATOM     16  O   UNL     1       7.710   5.433  20.233  0.00  0.00    +0.000 OA
ENDBRANCH  13  15
ENDBRANCH   6  13
ENDBRANCH   1  12
BRANCH   5  17
ATOM     17  C   UNL     1       1.883   5.002  18.891  0.00  0.00    +0.000 A 
ATOM     18  C   UNL     1       1.237   3.768  18.701  0.00  0.00    +0.000 A 
ATOM     19  C   UNL     1       0.971   2.927  19.784  0.00  0.00    +0.000 A 
ATOM     20  C   UNL     1       1.322   3.317  21.073  0.00  0.00    +0.000 A 
ATOM     21  C   UNL     1       1.884   4.573  21.287  0.00  0.00    +0.000 A 
ATOM     22  C   UNL     1       2.146   5.414  20.206  0.00  0.00    +0.000 A 
ENDBRANCH   5  17
BRANCH   3  23
ATOM     23  C   UNL     1       1.785   9.363  18.387  0.00  0.00    +0.000 C 
ATOM     24  O   UNL     1       1.951  10.315  17.636  0.00  0.00    +0.000 OA
BRANCH  23  25
ATOM     25  C   UNL     1       1.059   9.505  19.676  0.00  0.00    +0.000 A 
ATOM     26  C   UNL     1       1.357   8.610  20.711  0.00  0.00    +0.000 A 
ATOM     27  C   UNL     1       0.679   8.692  21.927  0.00  0.00    +0.000 A 
ATOM     28  C   UNL     1      -0.288   9.676  22.121  0.00  0.00    +0.000 A 
ATOM     29  C   UNL     1      -0.575  10.583  21.101  0.00  0.00    +0.000 A 
ATOM     30  C   UNL     1       0.097  10.498  19.880  0.00  0.00    +0.000 A 
ENDBRANCH  23  25
ENDBRANCH   3  23
TORSDOF 6
ENDMDL
MODEL 4
REMARK VINA RESULT:      -7.5      2.955      7.589
REMARK  Name = 
REMARK  7 active torsions:
REMARK  status: ('A' for Active; 'I' for Inactive)
REMARK    1  A    between atoms: C_1  and  C_2
REMARK    2  A    between atoms: C_2  and  O_4
REMARK    3  A    between atoms: O_4  and  C_5
REMARK    4  A    between atoms: C_11  and  C_12
REMARK    5  A    between atoms: C_14  and  C_15
REMARK    6  A    between atoms: C_15  and  C_17
REMARK    7  A    between atoms: C_24  and  C_25
REMARK                            x       y       z     vdW  Elec       q    Type
REMARK                         _______ _______ _______ _____ _____    ______ ____
ROOT
ATOM      1  C   UNL     1       4.531   5.456  16.660  0.00  0.00    +0.000 C 
ATOM      2  N   UNL     1       5.122   4.377  15.828  0.00  0.00    +0.000 NA
ATOM      3  C   UNL     1       5.854   5.025  14.974  0.00  0.00    +0.000 C 
ATOM      4  O   UNL     1       5.960   6.360  15.049  0.00  0.00    +0.000 OA
ATOM      5  C   UNL     1       5.362   6.709  16.304  0.00  0.00    +0.000 C 
ENDROOT
BRANCH   1  12
ATOM      6  C   UNL     1       3.713   3.601  18.251  0.00  0.00    +0.000 C 
ATOM      7  C   UNL     1       2.240   3.796  18.080  0.00  0.00    +0.000 C 
ATOM      8  C   UNL     1       1.656   4.867  18.630  0.00  0.00    +0.000 C 
ATOM      9  C   UNL     1       2.474   5.848  19.362  0.00  0.00    +0.000 C 
ATOM     10  O   UNL     1       1.981   6.543  20.239  0.00  0.00    +0.000 OA
ATOM     11  O   UNL     1       3.771   5.977  18.964  0.00  0.00    +0.000 OA
ATOM     12  C   UNL     1       4.423   4.977  18.129  0.00  0.00    +0.000 C 
BRANCH   6  13
ATOM     13  O   UNL     1       3.862   3.114  19.608  0.00  0.00    +0.000 OA
BRANCH  13  15
ATOM     14  C   UNL     1       4.021   0.979  18.663  0.00  0.00    +0.000 C 
ATOM     15  C   UNL     1       4.409   1.885  19.788  0.00  0.00    +0.000 C 
ATOM     16  O   UNL     1       5.164   1.570  20.702  0.00  0.00    +0.000 OA
ENDBRANCH  13  15
ENDBRANCH   6  13
ENDBRANCH   1  12
BRANCH   5  17
ATOM     17  C   UNL     1       6.463   7.177  17.230  0.00  0.00    +0.000 A 
ATOM     18  C   UNL     1       7.072   6.263  18.105  0.00  0.00    +0.000 A 
ATOM     19  C   UNL     1       8.159   6.645  18.894  0.00  0.00    +0.000 A 
ATOM     20  C   UNL     1       8.636   7.950  18.840  0.00  0.00    +0.000 A 
ATOM     21  C   UNL     1       7.989   8.890  18.043  0.00  0.00    +0.000 A 
ATOM     22  C   UNL     1       6.900   8.510  17.258  0.00  0.00    +0.000 A 
ENDBRANCH   5  17
BRANCH   3  23
ATOM     23  C   UNL     1       6.647   4.356  13.870  0.00  0.00    +0.000 C 
ATOM     24  O   UNL     1       7.864   4.480  13.847  0.00  0.00    +0.000 OA
BRANCH  23  25
ATOM     25  C   UNL     1       5.922   3.599  12.816  0.00  0.00    +0.000 A 
ATOM     26  C   UNL     1       4.664   4.060  12.408  0.00  0.00    +0.000 A 
ATOM     27  C   UNL     1       3.940   3.363  11.441  0.00  0.00    +0.000 A 
ATOM     28  C   UNL     1       4.473   2.212  10.867  0.00  0.00    +0.000 A 
ATOM     29  C   UNL     1       5.734   1.759  11.253  0.00  0.00    +0.000 A 
ATOM     30  C   UNL     1       6.458   2.450  12.226  0.00  0.00    +0.000 A 
ENDBRANCH  23  25
ENDBRANCH   3  23
TORSDOF 6
ENDMDL
MODEL 5
REMARK VINA RESULT:      -7.5      2.923      7.680
REMARK  Name = 
REMARK  7 active torsions:
REMARK  status: ('A' for Active; 'I' for Inactive)
REMARK    1  A    between atoms: C_1  and  C_2
REMARK    2  A    between atoms: C_2  and  O_4
REMARK    3  A    between atoms: O_4  and  C_5
REMARK    4  A    between atoms: C_11  and  C_12
REMARK    5  A    between atoms: C_14  and  C_15
REMARK    6  A    between atoms: C_15  and  C_17
REMARK    7  A    between atoms: C_24  and  C_25
REMARK                            x       y       z     vdW  Elec       q    Type
REMARK                         _______ _______ _______ _____ _____    ______ ____
ROOT
ATOM      1  C   UNL     1       4.553   5.484  16.588  0.00  0.00    +0.000 C 
ATOM      2  N   UNL     1       5.052   4.379  15.732  0.00  0.00    +0.000 NA
ATOM      3  C   UNL     1       5.847   4.979  14.899  0.00  0.00    +0.000 C 
ATOM      4  O   UNL     1       6.072   6.297  15.010  0.00  0.00    +0.000 OA
ATOM      5  C   UNL     1       5.497   6.667  16.269  0.00  0.00    +0.000 C 
ENDROOT
BRANCH   1  12
ATOM      6  C   UNL     1       3.556   3.672  18.124  0.00  0.00    +0.000 C 
ATOM      7  C   UNL     1       2.108   4.005  17.949  0.00  0.00    +0.000 C 
ATOM      8  C   UNL     1       1.619   5.111  18.523  0.00  0.00    +0.000 C 
ATOM      9  C   UNL     1       2.517   5.994  19.286  0.00  0.00    +0.000 C 
ATOM     10  O   UNL     1       2.082   6.709  20.178  0.00  0.00    +0.000 OA
ATOM     11  O   UNL     1       3.824   6.014  18.899  0.00  0.00    +0.000 OA
ATOM     12  C   UNL     1       4.389   4.980  18.043  0.00  0.00    +0.000 C 
BRANCH   6  13
ATOM     13  O   UNL     1       3.649   3.140  19.469  0.00  0.00    +0.000 OA
BRANCH  13  15
ATOM     14  C   UNL     1       3.974   1.020  18.533  0.00  0.00    +0.000 C 
ATOM     15  C   UNL     1       4.302   1.964  19.646  0.00  0.00    +0.000 C 
ATOM     16  O   UNL     1       5.098   1.721  20.547  0.00  0.00    +0.000 OA
ENDBRANCH  13  15
ENDBRANCH   6  13
ENDBRANCH   1  12
BRANCH   5  17
ATOM     17  C   UNL     1       6.626   7.011  17.215  0.00  0.00    +0.000 A 
ATOM     18  C   UNL     1       7.166   8.308  17.212  0.00  0.00    +0.000 A 
ATOM     19  C   UNL     1       8.136   8.680  18.144  0.00  0.00    +0.000 A 
ATOM     20  C   UNL     1       8.599   7.756  19.076  0.00  0.00    +0.000 A 
ATOM     21  C   UNL     1       8.137   6.443  19.036  0.00  0.00    +0.000 A 
ATOM     22  C   UNL     1       7.172   6.070  18.102  0.00  0.00    +0.000 A 
ENDBRANCH   5  17
BRANCH   3  23
ATOM     23  C   UNL     1       6.586   4.269  13.784  0.00  0.00    +0.000 C 
ATOM     24  O   UNL     1       7.808   4.334  13.740  0.00  0.00    +0.000 OA
BRANCH  23  25
ATOM     25  C   UNL     1       5.807   3.547  12.745  0.00  0.00    +0.000 A 
ATOM     26  C   UNL     1       6.345   2.373  12.203  0.00  0.00    +0.000 A 
ATOM     27  C   UNL     1       5.658   1.681  11.206  0.00  0.00    +0.000 A 
ATOM     28  C   UNL     1       4.425   2.147  10.756  0.00  0.00    +0.000 A 
ATOM     29  C   UNL     1       3.874   3.305  11.306  0.00  0.00    +0.000 A 
ATOM     30  C   UNL     1       4.563   4.004  12.299  0.00  0.00    +0.000 A 
ENDBRANCH  23  25
ENDBRANCH   3  23
TORSDOF 6
ENDMDL
MODEL 6
REMARK VINA RESULT:      -7.4      4.383      8.680
REMARK  Name = 
REMARK  7 active torsions:
REMARK  status: ('A' for Active; 'I' for Inactive)
REMARK    1  A    between atoms: C_1  and  C_2
REMARK    2  A    between atoms: C_2  and  O_4
REMARK    3  A    between atoms: O_4  and  C_5
REMARK    4  A    between atoms: C_11  and  C_12
REMARK    5  A    between atoms: C_14  and  C_15
REMARK    6  A    between atoms: C_15  and  C_17
REMARK    7  A    between atoms: C_24  and  C_25
REMARK                            x       y       z     vdW  Elec       q    Type
REMARK                         _______ _______ _______ _____ _____    ______ ____
ROOT
ATOM      1  C   UNL     1       0.114  12.460  20.230  0.00  0.00    +0.000 C 
ATOM      2  N   UNL     1       1.180  11.458  20.486  0.00  0.00    +0.000 NA
ATOM      3  C   UNL     1       0.519  10.409  20.871  0.00  0.00    +0.000 C 
ATOM      4  O   UNL     1      -0.822  10.426  20.897  0.00  0.00    +0.000 OA
ATOM      5  C   UNL     1      -1.191  11.632  20.214  0.00  0.00    +0.000 C 
ENDROOT
BRANCH   1  12
ATOM      6  C   UNL     1       1.936  13.921  19.143  0.00  0.00    +0.000 C 
ATOM      7  C   UNL     1       1.908  15.065  20.106  0.00  0.00    +0.000 C 
ATOM      8  C   UNL     1       0.870  15.910  20.086  0.00  0.00    +0.000 C 
ATOM      9  C   UNL     1      -0.237  15.682  19.142  0.00  0.00    +0.000 C 
ATOM     10  O   UNL     1      -0.933  16.610  18.757  0.00  0.00    +0.000 OA
ATOM     11  O   UNL     1      -0.474  14.388  18.784  0.00  0.00    +0.000 OA
ATOM     12  C   UNL     1       0.505  13.334  19.013  0.00  0.00    +0.000 C 
BRANCH   6  13
ATOM     13  O   UNL     1       2.315  14.519  17.878  0.00  0.00    +0.000 OA
BRANCH  13  15
ATOM     14  C   UNL     1       3.371  16.536  17.339  0.00  0.00    +0.000 C 
ATOM     15  C   UNL     1       3.529  15.121  17.795  0.00  0.00    +0.000 C 
ATOM     16  O   UNL     1       4.599  14.610  18.107  0.00  0.00    +0.000 OA
ENDBRANCH  13  15
ENDBRANCH   6  13
ENDBRANCH   1  12
BRANCH   5  17
ATOM     17  C   UNL     1      -1.826  11.245  18.898  0.00  0.00    +0.000 A 
ATOM     18  C   UNL     1      -1.222  10.264  18.094  0.00  0.00    +0.000 A 
ATOM     19  C   UNL     1      -1.842   9.815  16.926  0.00  0.00    +0.000 A 
ATOM     20  C   UNL     1      -3.061  10.357  16.531  0.00  0.00    +0.000 A 
ATOM     21  C   UNL     1      -3.630  11.390  17.270  0.00  0.00    +0.000 A 
ATOM     22  C   UNL     1      -3.009  11.842  18.434  0.00  0.00    +0.000 A 
ENDBRANCH   5  17
BRANCH   3  23
ATOM     23  C   UNL     1       1.176   9.109  21.287  0.00  0.00    +0.000 C 
ATOM     24  O   UNL     1       1.343   8.877  22.477  0.00  0.00    +0.000 OA
BRANCH  23  25
ATOM     25  C   UNL     1       1.640   8.165  20.237  0.00  0.00    +0.000 A 
ATOM     26  C   UNL     1       1.804   6.817  20.577  0.00  0.00    +0.000 A 
ATOM     27  C   UNL     1       2.264   5.904  19.628  0.00  0.00    +0.000 A 
ATOM     28  C   UNL     1       2.549   6.329  18.333  0.00  0.00    +0.000 A 
ATOM     29  C   UNL     1       2.368   7.667  17.982  0.00  0.00    +0.000 A 
ATOM     30  C   UNL     1       1.915   8.584  18.932  0.00  0.00    +0.000 A 
ENDBRANCH  23  25
ENDBRANCH   3  23
TORSDOF 6
ENDMDL
MODEL 7
REMARK VINA RESULT:      -7.4      1.134      1.549
REMARK  Name = 
REMARK  7 active torsions:
REMARK  status: ('A' for Active; 'I' for Inactive)
REMARK    1  A    between atoms: C_1  and  C_2
REMARK    2  A    between atoms: C_2  and  O_4
REMARK    3  A    between atoms: O_4  and  C_5
REMARK    4  A    between atoms: C_11  and  C_12
REMARK    5  A    between atoms: C_14  and  C_15
REMARK    6  A    between atoms: C_15  and  C_17
REMARK    7  A    between atoms: C_24  and  C_25
REMARK                            x       y       z     vdW  Elec       q    Type
REMARK                         _______ _______ _______ _____ _____    ______ ____
ROOT
ATOM      1  C   UNL     1       3.445   6.951  17.254  0.00  0.00    +0.000 C 
ATOM      2  N   UNL     1       3.453   8.313  17.845  0.00  0.00    +0.000 NA
ATOM      3  C   UNL     1       2.203   8.527  18.122  0.00  0.00    +0.000 C 
ATOM      4  O   UNL     1       1.288   7.571  17.902  0.00  0.00    +0.000 OA
ATOM      5  C   UNL     1       2.048   6.392  17.607  0.00  0.00    +0.000 C 
ENDROOT
BRANCH   1  12
ATOM      6  C   UNL     1       5.901   6.410  16.691  0.00  0.00    +0.000 C 
ATOM      7  C   UNL     1       5.670   5.575  15.472  0.00  0.00    +0.000 C 
ATOM      8  C   UNL     1       5.171   4.340  15.611  0.00  0.00    +0.000 C 
ATOM      9  C   UNL     1       4.830   3.839  16.953  0.00  0.00    +0.000 C 
ATOM     10  O   UNL     1       4.828   2.640  17.192  0.00  0.00    +0.000 OA
ATOM     11  O   UNL     1       4.460   4.773  17.875  0.00  0.00    +0.000 OA
ATOM     12  C   UNL     1       4.726   6.192  17.682  0.00  0.00    +0.000 C 
BRANCH   6  13
ATOM     13  O   UNL     1       7.114   5.875  17.275  0.00  0.00    +0.000 OA
BRANCH  13  15
ATOM     14  C   UNL     1       7.890   5.702  19.476  0.00  0.00    +0.000 C 
ATOM     15  C   UNL     1       7.702   6.576  18.277  0.00  0.00    +0.000 C 
ATOM     16  O   UNL     1       8.088   7.738  18.201  0.00  0.00    +0.000 OA
ENDBRANCH  13  15
ENDBRANCH   6  13
ENDBRANCH   1  12
BRANCH   5  17
ATOM     17  C   UNL     1       1.886   5.432  18.764  0.00  0.00    +0.000 A 
ATOM     18  C   UNL     1       1.394   4.136  18.530  0.00  0.00    +0.000 A 
ATOM     19  C   UNL     1       1.334   3.198  19.562  0.00  0.00    +0.000 A 
ATOM     20  C   UNL     1       1.738   3.547  20.847  0.00  0.00    +0.000 A 
ATOM     21  C   UNL     1       2.146   4.851  21.113  0.00  0.00    +0.000 A 
ATOM     22  C   UNL     1       2.203   5.789  20.083  0.00  0.00    +0.000 A 
ENDBRANCH   5  17
BRANCH   3  23
ATOM     23  C   UNL     1       1.685   9.818  18.721  0.00  0.00    +0.000 C 
ATOM     24  O   UNL     1       1.894  10.874  18.139  0.00  0.00    +0.000 OA
BRANCH  23  25
ATOM     25  C   UNL     1       0.972   9.776  20.024  0.00  0.00    +0.000 A 
ATOM     26  C   UNL     1       1.323   8.781  20.945  0.00  0.00    +0.000 A 
ATOM     27  C   UNL     1       0.659   8.690  22.168  0.00  0.00    +0.000 A 
ATOM     28  C   UNL     1      -0.347   9.599  22.484  0.00  0.00    +0.000 A 
ATOM     29  C   UNL     1      -0.688  10.605  21.580  0.00  0.00    +0.000 A 
ATOM     30  C   UNL     1      -0.030  10.694  20.352  0.00  0.00    +0.000 A 
ENDBRANCH  23  25
ENDBRANCH   3  23
TORSDOF 6
ENDMDL
MODEL 8
REMARK VINA RESULT:      -7.4      4.423      8.673
REMARK  Name = 
REMARK  7 active torsions:
REMARK  status: ('A' for Active; 'I' for Inactive)
REMARK    1  A    between atoms: C_1  and  C_2
REMARK    2  A    between atoms: C_2  and  O_4
REMARK    3  A    between atoms: O_4  and  C_5
REMARK    4  A    between atoms: C_11  and  C_12
REMARK    5  A    between atoms: C_14  and  C_15
REMARK    6  A    between atoms: C_15  and  C_17
REMARK    7  A    between atoms: C_24  and  C_25
REMARK                            x       y       z     vdW  Elec       q    Type
REMARK                         _______ _______ _______ _____ _____    ______ ____
ROOT
ATOM      1  C   UNL     1       0.016  12.435  20.329  0.00  0.00    +0.000 C 
ATOM      2  N   UNL     1       1.114  11.470  20.584  0.00  0.00    +0.000 NA
ATOM      3  C   UNL     1       0.488  10.395  20.958  0.00  0.00    +0.000 C 
ATOM      4  O   UNL     1      -0.853  10.365  20.975  0.00  0.00    +0.000 OA
ATOM      5  C   UNL     1      -1.259  11.562  20.298  0.00  0.00    +0.000 C 
ENDROOT
BRANCH   1  12
ATOM      6  C   UNL     1       1.825  13.898  19.223  0.00  0.00    +0.000 C 
ATOM      7  C   UNL     1       1.838  15.021  20.212  0.00  0.00    +0.000 C 
ATOM      8  C   UNL     1       0.811  15.878  20.239  0.00  0.00    +0.000 C 
ATOM      9  C   UNL     1      -0.325  15.684  19.322  0.00  0.00    +0.000 C 
ATOM     10  O   UNL     1      -1.019  16.630  18.977  0.00  0.00    +0.000 OA
ATOM     11  O   UNL     1      -0.589  14.402  18.942  0.00  0.00    +0.000 OA
ATOM     12  C   UNL     1       0.383  13.331  19.121  0.00  0.00    +0.000 C 
BRANCH   6  13
ATOM     13  O   UNL     1       2.176  14.519  17.961  0.00  0.00    +0.000 OA
BRANCH  13  15
ATOM     14  C   UNL     1       3.409  16.389  17.285  0.00  0.00    +0.000 C 
ATOM     15  C   UNL     1       3.440  14.990  17.811  0.00  0.00    +0.000 C 
ATOM     16  O   UNL     1       4.464  14.388  18.120  0.00  0.00    +0.000 OA
ENDBRANCH  13  15
ENDBRANCH   6  13
ENDBRANCH   1  12
BRANCH   5  17
ATOM     17  C   UNL     1      -1.873  11.163  18.975  0.00  0.00    +0.000 A 
ATOM     18  C   UNL     1      -3.086  11.741  18.567  0.00  0.00    +0.000 A 
ATOM     19  C   UNL     1      -3.619  11.469  17.306  0.00  0.00    +0.000 A 
ATOM     20  C   UNL     1      -2.962  10.597  16.444  0.00  0.00    +0.000 A 
ATOM     21  C   UNL     1      -1.805   9.949  16.866  0.00  0.00    +0.000 A 
ATOM     22  C   UNL     1      -1.275  10.217  18.128  0.00  0.00    +0.000 A 
ENDBRANCH   5  17
BRANCH   3  23
ATOM     23  C   UNL     1       1.187   9.116  21.369  0.00  0.00    +0.000 C 
ATOM     24  O   UNL     1       1.383   8.896  22.557  0.00  0.00    +0.000 OA
BRANCH  23  25
ATOM     25  C   UNL     1       1.657   8.178  20.316  0.00  0.00    +0.000 A 
ATOM     26  C   UNL     1       1.844   8.671  19.019  0.00  0.00    +0.000 A 
ATOM     27  C   UNL     1       2.259   7.818  17.996  0.00  0.00    +0.000 A 
ATOM     28  C   UNL     1       2.502   6.473  18.266  0.00  0.00    +0.000 A 
ATOM     29  C   UNL     1       2.337   5.981  19.561  0.00  0.00    +0.000 A 
ATOM     30  C   UNL     1       1.916   6.831  20.585  0.00  0.00    +0.000 A 
ENDBRANCH  23  25
ENDBRANCH   3  23
TORSDOF 6
ENDMDL
MODEL 9
REMARK VINA RESULT:      -7.3      1.648      2.264
REMARK  Name = 
REMARK  7 active torsions:
REMARK  status: ('A' for Active; 'I' for Inactive)
REMARK    1  A    between atoms: C_1  and  C_2
REMARK    2  A    between atoms: C_2  and  O_4
REMARK    3  A    between atoms: O_4  and  C_5
REMARK    4  A    between atoms: C_11  and  C_12
REMARK    5  A    between atoms: C_14  and  C_15
REMARK    6  A    between atoms: C_15  and  C_17
REMARK    7  A    between atoms: C_24  and  C_25
REMARK                            x       y       z     vdW  Elec       q    Type
REMARK                         _______ _______ _______ _____ _____    ______ ____
ROOT
ATOM      1  C   UNL     1       3.390   4.924  17.120  0.00  0.00    +0.000 C 
ATOM      2  N   UNL     1       3.789   6.311  17.470  0.00  0.00    +0.000 NA
ATOM      3  C   UNL     1       2.659   6.885  17.751  0.00  0.00    +0.000 C 
ATOM      4  O   UNL     1       1.518   6.181  17.728  0.00  0.00    +0.000 OA
ATOM      5  C   UNL     1       1.929   4.813  17.611  0.00  0.00    +0.000 C 
ENDROOT
BRANCH   1  12
ATOM      6  C   UNL     1       4.776   4.115  19.136  0.00  0.00    +0.000 C 
ATOM      7  C   UNL     1       5.638   5.325  19.313  0.00  0.00    +0.000 C 
ATOM      8  C   UNL     1       6.611   5.568  18.426  0.00  0.00    +0.000 C 
ATOM      9  C   UNL     1       6.795   4.663  17.280  0.00  0.00    +0.000 C 
ATOM     10  O   UNL     1       7.886   4.553  16.738  0.00  0.00    +0.000 OA
ATOM     11  O   UNL     1       5.682   4.019  16.828  0.00  0.00    +0.000 OA
ATOM     12  C   UNL     1       4.466   3.932  17.625  0.00  0.00    +0.000 C 
BRANCH   6  13
ATOM     13  O   UNL     1       5.601   3.011  19.583  0.00  0.00    +0.000 OA
BRANCH  13  15
ATOM     14  C   UNL     1       4.235   1.158  19.165  0.00  0.00    +0.000 C 
ATOM     15  C   UNL     1       4.988   1.957  20.180  0.00  0.00    +0.000 C 
ATOM     16  O   UNL     1       5.084   1.656  21.365  0.00  0.00    +0.000 OA
ENDBRANCH  13  15
ENDBRANCH   6  13
ENDBRANCH   1  12
BRANCH   5  17
ATOM     17  C   UNL     1       1.620   4.120  18.920  0.00  0.00    +0.000 A 
ATOM     18  C   UNL     1       1.060   2.832  18.910  0.00  0.00    +0.000 A 
ATOM     19  C   UNL     1       0.862   2.129  20.101  0.00  0.00    +0.000 A 
ATOM     20  C   UNL     1       1.197   2.713  21.318  0.00  0.00    +0.000 A 
ATOM     21  C   UNL     1       1.672   4.021  21.351  0.00  0.00    +0.000 A 
ATOM     22  C   UNL     1       1.865   4.724  20.162  0.00  0.00    +0.000 A 
ENDBRANCH   5  17
BRANCH   3  23
ATOM     23  C   UNL     1       2.533   8.344  18.139  0.00  0.00    +0.000 C 
ATOM     24  O   UNL     1       3.215   9.179  17.560  0.00  0.00    +0.000 OA
BRANCH  23  25
ATOM     25  C   UNL     1       1.614   8.720  19.245  0.00  0.00    +0.000 A 
ATOM     26  C   UNL     1       0.647   9.704  19.004  0.00  0.00    +0.000 A 
ATOM     27  C   UNL     1      -0.216  10.105  20.023  0.00  0.00    +0.000 A 
ATOM     28  C   UNL     1      -0.129   9.518  21.282  0.00  0.00    +0.000 A 
ATOM     29  C   UNL     1       0.819   8.523  21.524  0.00  0.00    +0.000 A 
ATOM     30  C   UNL     1       1.689   8.125  20.508  0.00  0.00    +0.000 A 
ENDBRANCH  23  25
ENDBRANCH   3  23
TORSDOF 6
ENDMDL
