MODEL 1
REMARK VINA RESULT:      -7.3      0.000      0.000
REMARK  Name = 
REMARK  3 active torsions:
REMARK  status: ('A' for Active; 'I' for Inactive)
REMARK    1  A    between atoms: C_2  and  C_22
REMARK    2  A    between atoms: N_3  and  C_4
REMARK    3  A    between atoms: C_7  and  N_8
REMARK                            x       y       z     vdW  Elec       q    Type
REMARK                         _______ _______ _______ _____ _____    ______ ____
ROOT
ATOM      1  C   UNL     1       2.659   8.003  18.311  0.00  0.00    +0.000 A 
ATOM      2  C   UNL     1       2.187   9.083  17.555  0.00  0.00    +0.000 A 
ATOM      3  C   UNL     1       1.235   9.967  18.066  0.00  0.00    +0.000 A 
ATOM      4  C   UNL     1       0.750   9.808  19.364  0.00  0.00    +0.000 A 
ATOM      5  C   UNL     1       1.179   8.698  20.113  0.00  0.00    +0.000 A 
ATOM      6 CL   UNL     1       0.503   8.331  21.664  0.00  0.00    +0.000 Cl
ATOM      7  C   UNL     1       2.105   7.785  19.576  0.00  0.00    +0.000 A 
ENDROOT
BRANCH   4   8
ATOM      8  N   UNL     1      -0.167  10.753  19.863  0.00  0.00    +0.000 N 
ATOM      9  C   UNL     1       0.143  11.710  20.801  0.00  0.00    +0.000 C 
ATOM     10  O   UNL     1       1.196  11.963  21.358  0.00  0.00    +0.000 OA
ATOM     11  C   UNL     1      -1.065  12.522  20.972  0.00  0.00    +0.000 A 
ATOM     12  C   UNL     1      -1.316  13.597  21.802  0.00  0.00    +0.000 A 
ATOM     13  C   UNL     1      -2.601  14.149  21.764  0.00  0.00    +0.000 A 
ATOM     14  C   UNL     1      -3.590  13.624  20.906  0.00  0.00    +0.000 A 
ATOM     15  C   UNL     1      -3.303  12.554  20.055  0.00  0.00    +0.000 A 
ATOM     16  C   UNL     1      -2.026  12.033  20.107  0.00  0.00    +0.000 A 
ATOM     17  C   UNL     1      -1.427  10.941  19.344  0.00  0.00    +0.000 C 
ATOM     18  O   UNL     1      -2.006  10.361  18.446  0.00  0.00    +0.000 OA
ENDBRANCH   4   8
BRANCH   1  21
ATOM     19  O   UNL     1       2.451   5.170  17.814  0.00  0.00    +0.000 OA
ATOM     20  C   UNL     1       3.513   5.768  17.644  0.00  0.00    +0.000 C 
ATOM     21  N   UNL     1       3.673   7.136  17.838  0.00  0.00    +0.000 N 
ATOM     22  H   UNL     1       4.528   7.539  17.473  0.00  0.00    +0.000 HD
BRANCH  20  23
ATOM     23  C   UNL     1       4.677   5.055  17.169  0.00  0.00    +0.000 A 
ATOM     24  C   UNL     1       5.969   5.088  17.665  0.00  0.00    +0.000 A 
ATOM     25  C   UNL     1       6.754   4.278  16.818  0.00  0.00    +0.000 A 
ATOM     26  C   UNL     1       5.892   3.786  15.865  0.00  0.00    +0.000 A 
ATOM     27  O   UNL     1       4.626   4.234  16.075  0.00  0.00    +0.000 OA
ENDBRANCH  20  23
ENDBRANCH   1  21
TORSDOF 3
ENDMDL
MODEL 2
REMARK VINA RESULT:      -7.1      1.702      9.107
REMARK  Name = 
REMARK  3 active torsions:
REMARK  status: ('A' for Active; 'I' for Inactive)
REMARK    1  A    between atoms: C_2  and  C_22
REMARK    2  A    between atoms: N_3  and  C_4
REMARK    3  A    between atoms: C_7  and  N_8
REMARK                            x       y       z     vdW  Elec       q    Type
REMARK                         _______ _______ _______ _____ _____    ______ ____
ROOT
ATOM      1  C   UNL     1       0.885   9.082  19.727  0.00  0.00    +0.000 A 
ATOM      2  C   UNL     1       1.387   9.437  18.469  0.00  0.00    +0.000 A 
ATOM      3  C   UNL     1       2.326   8.641  17.812  0.00  0.00    +0.000 A 
ATOM      4  C   UNL     1       2.768   7.450  18.387  0.00  0.00    +0.000 A 
ATOM      5  C   UNL     1       2.309   7.111  19.672  0.00  0.00    +0.000 A 
ATOM      6 CL   UNL     1       2.933   5.742  20.529  0.00  0.00    +0.000 Cl
ATOM      7  C   UNL     1       1.396   7.939  20.349  0.00  0.00    +0.000 A 
ENDROOT
BRANCH   4   8
ATOM      8  N   UNL     1       3.674   6.648  17.667  0.00  0.00    +0.000 N 
ATOM      9  C   UNL     1       4.972   7.008  17.388  0.00  0.00    +0.000 C 
ATOM     10  O   UNL     1       5.600   8.007  17.689  0.00  0.00    +0.000 OA
ATOM     11  C   UNL     1       5.575   5.863  16.699  0.00  0.00    +0.000 A 
ATOM     12  C   UNL     1       6.843   5.693  16.178  0.00  0.00    +0.000 A 
ATOM     13  C   UNL     1       7.114   4.480  15.536  0.00  0.00    +0.000 A 
ATOM     14  C   UNL     1       6.127   3.478  15.434  0.00  0.00    +0.000 A 
ATOM     15  C   UNL     1       4.860   3.662  15.995  0.00  0.00    +0.000 A 
ATOM     16  C   UNL     1       4.621   4.865  16.629  0.00  0.00    +0.000 A 
ATOM     17  C   UNL     1       3.422   5.343  17.313  0.00  0.00    +0.000 C 
ATOM     18  O   UNL     1       2.435   4.654  17.484  0.00  0.00    +0.000 OA
ENDBRANCH   4   8
BRANCH   1  21
ATOM     19  O   UNL     1       1.258  11.257  21.584  0.00  0.00    +0.000 OA
ATOM     20  C   UNL     1       0.131  10.862  21.289  0.00  0.00    +0.000 C 
ATOM     21  N   UNL     1      -0.119   9.838  20.381  0.00  0.00    +0.000 N 
ATOM     22  H   UNL     1      -1.079   9.744  20.071  0.00  0.00    +0.000 HD
BRANCH  20  23
ATOM     23  C   UNL     1      -1.033  11.500  21.859  0.00  0.00    +0.000 A 
ATOM     24  C   UNL     1      -1.472  11.479  23.172  0.00  0.00    +0.000 A 
ATOM     25  C   UNL     1      -2.690  12.191  23.208  0.00  0.00    +0.000 A 
ATOM     26  C   UNL     1      -2.913  12.618  21.919  0.00  0.00    +0.000 A 
ATOM     27  O   UNL     1      -1.909  12.223  21.094  0.00  0.00    +0.000 OA
ENDBRANCH  20  23
ENDBRANCH   1  21
TORSDOF 3
ENDMDL
MODEL 3
REMARK VINA RESULT:      -7.1      8.551      9.648
REMARK  Name = 
REMARK  3 active torsions:
REMARK  status: ('A' for Active; 'I' for Inactive)
REMARK    1  A    between atoms: C_2  and  C_22
REMARK    2  A    between atoms: N_3  and  C_4
REMARK    3  A    between atoms: C_7  and  N_8
REMARK                            x       y       z     vdW  Elec       q    Type
REMARK                         _______ _______ _______ _____ _____    ______ ____
ROOT
ATOM      1  C   UNL     1       9.173  10.014  19.127  0.00  0.00    +0.000 A 
ATOM      2  C   UNL     1       9.122  10.525  20.429  0.00  0.00    +0.000 A 
ATOM      3  C   UNL     1       9.406  11.866  20.694  0.00  0.00    +0.000 A 
ATOM      4  C   UNL     1       9.722  12.739  19.654  0.00  0.00    +0.000 A 
ATOM      5  C   UNL     1       9.826  12.225  18.350  0.00  0.00    +0.000 A 
ATOM      6 CL   UNL     1      10.376  13.199  17.029  0.00  0.00    +0.000 Cl
ATOM      7  C   UNL     1       9.582  10.863  18.095  0.00  0.00    +0.000 A 
ENDROOT
BRANCH   4   8
ATOM      8  N   UNL     1       9.947  14.097  19.956  0.00  0.00    +0.000 N 
ATOM      9  C   UNL     1      11.189  14.685  19.986  0.00  0.00    +0.000 C 
ATOM     10  O   UNL     1      12.292  14.223  19.757  0.00  0.00    +0.000 OA
ATOM     11  C   UNL     1      10.962  16.107  20.260  0.00  0.00    +0.000 A 
ATOM     12  C   UNL     1      11.857  17.147  20.418  0.00  0.00    +0.000 A 
ATOM     13  C   UNL     1      11.327  18.408  20.712  0.00  0.00    +0.000 A 
ATOM     14  C   UNL     1       9.935  18.599  20.838  0.00  0.00    +0.000 A 
ATOM     15  C   UNL     1       9.048  17.537  20.645  0.00  0.00    +0.000 A 
ATOM     16  C   UNL     1       9.596  16.304  20.348  0.00  0.00    +0.000 A 
ATOM     17  C   UNL     1       8.941  15.026  20.083  0.00  0.00    +0.000 C 
ATOM     18  O   UNL     1       7.734  14.899  20.014  0.00  0.00    +0.000 OA
ENDBRANCH   4   8
BRANCH   1  21
ATOM     19  O   UNL     1       7.325   9.094  17.113  0.00  0.00    +0.000 OA
ATOM     20  C   UNL     1       7.900   8.300  17.856  0.00  0.00    +0.000 C 
ATOM     21  N   UNL     1       8.823   8.675  18.827  0.00  0.00    +0.000 N 
ATOM     22  H   UNL     1       9.374   7.926  19.229  0.00  0.00    +0.000 HD
BRANCH  20  23
ATOM     23  C   UNL     1       7.670   6.881  17.716  0.00  0.00    +0.000 A 
ATOM     24  C   UNL     1       7.671   5.906  18.699  0.00  0.00    +0.000 A 
ATOM     25  C   UNL     1       7.468   4.669  18.050  0.00  0.00    +0.000 A 
ATOM     26  C   UNL     1       7.338   4.964  16.712  0.00  0.00    +0.000 A 
ATOM     27  O   UNL     1       7.441   6.302  16.496  0.00  0.00    +0.000 OA
ENDBRANCH  20  23
ENDBRANCH   1  21
TORSDOF 3
ENDMDL
MODEL 4
REMARK VINA RESULT:      -7.1      1.676      9.225
REMARK  Name = 
REMARK  3 active torsions:
REMARK  status: ('A' for Active; 'I' for Inactive)
REMARK    1  A    between atoms: C_2  and  C_22
REMARK    2  A    between atoms: N_3  and  C_4
REMARK    3  A    between atoms: C_7  and  N_8
REMARK                            x       y       z     vdW  Elec       q    Type
REMARK                         _______ _______ _______ _____ _____    ______ ____
ROOT
ATOM      1  C   UNL     1       0.836   9.045  19.814  0.00  0.00    +0.000 A 
ATOM      2  C   UNL     1       1.389   9.381  18.572  0.00  0.00    +0.000 A 
ATOM      3  C   UNL     1       2.333   8.559  17.952  0.00  0.00    +0.000 A 
ATOM      4  C   UNL     1       2.728   7.363  18.550  0.00  0.00    +0.000 A 
ATOM      5  C   UNL     1       2.218   7.044  19.820  0.00  0.00    +0.000 A 
ATOM      6 CL   UNL     1       2.781   5.667  20.707  0.00  0.00    +0.000 Cl
ATOM      7  C   UNL     1       1.301   7.896  20.460  0.00  0.00    +0.000 A 
ENDROOT
BRANCH   4   8
ATOM      8  N   UNL     1       3.641   6.536  17.867  0.00  0.00    +0.000 N 
ATOM      9  C   UNL     1       3.351   5.267  17.424  0.00  0.00    +0.000 C 
ATOM     10  O   UNL     1       2.321   4.620  17.490  0.00  0.00    +0.000 OA
ATOM     11  C   UNL     1       4.540   4.802  16.705  0.00  0.00    +0.000 A 
ATOM     12  C   UNL     1       4.801   3.598  16.081  0.00  0.00    +0.000 A 
ATOM     13  C   UNL     1       6.064   3.437  15.502  0.00  0.00    +0.000 A 
ATOM     14  C   UNL     1       7.023   4.470  15.555  0.00  0.00    +0.000 A 
ATOM     15  C   UNL     1       6.725   5.690  16.167  0.00  0.00    +0.000 A 
ATOM     16  C   UNL     1       5.469   5.826  16.724  0.00  0.00    +0.000 A 
ATOM     17  C   UNL     1       4.865   6.965  17.410  0.00  0.00    +0.000 C 
ATOM     18  O   UNL     1       5.414   8.045  17.517  0.00  0.00    +0.000 OA
ENDBRANCH   4   8
BRANCH   1  21
ATOM     19  O   UNL     1       1.196  11.300  21.575  0.00  0.00    +0.000 OA
ATOM     20  C   UNL     1       0.071  10.891  21.291  0.00  0.00    +0.000 C 
ATOM     21  N   UNL     1      -0.172   9.828  20.427  0.00  0.00    +0.000 N 
ATOM     22  H   UNL     1      -1.130   9.718  20.117  0.00  0.00    +0.000 HD
BRANCH  20  23
ATOM     23  C   UNL     1      -1.097  11.552  21.826  0.00  0.00    +0.000 A 
ATOM     24  C   UNL     1      -1.570  11.548  23.127  0.00  0.00    +0.000 A 
ATOM     25  C   UNL     1      -2.777  12.280  23.126  0.00  0.00    +0.000 A 
ATOM     26  C   UNL     1      -2.960  12.700  21.828  0.00  0.00    +0.000 A 
ATOM     27  O   UNL     1      -1.941  12.282  21.032  0.00  0.00    +0.000 OA
ENDBRANCH  20  23
ENDBRANCH   1  21
TORSDOF 3
ENDMDL
MODEL 5
REMARK VINA RESULT:      -7.0      0.670      1.908
REMARK  Name = 
REMARK  3 active torsions:
REMARK  status: ('A' for Active; 'I' for Inactive)
REMARK    1  A    between atoms: C_2  and  C_22
REMARK    2  A    between atoms: N_3  and  C_4
REMARK    3  A    between atoms: C_7  and  N_8
REMARK                            x       y       z     vdW  Elec       q    Type
REMARK                         _______ _______ _______ _____ _____    ______ ____
ROOT
ATOM      1  C   UNL     1       2.487   8.235  18.497  0.00  0.00    +0.000 A 
ATOM      2  C   UNL     1       2.079   9.320  17.713  0.00  0.00    +0.000 A 
ATOM      3  C   UNL     1       1.109  10.217  18.165  0.00  0.00    +0.000 A 
ATOM      4  C   UNL     1       0.542  10.065  19.430  0.00  0.00    +0.000 A 
ATOM      5  C   UNL     1       0.908   8.950  20.203  0.00  0.00    +0.000 A 
ATOM      6 CL   UNL     1       0.132   8.593  21.709  0.00  0.00    +0.000 Cl
ATOM      7  C   UNL     1       1.853   8.025  19.724  0.00  0.00    +0.000 A 
ENDROOT
BRANCH   4   8
ATOM      8  N   UNL     1      -0.391  11.024  19.871  0.00  0.00    +0.000 N 
ATOM      9  C   UNL     1      -1.674  11.131  19.388  0.00  0.00    +0.000 C 
ATOM     10  O   UNL     1      -2.267  10.469  18.555  0.00  0.00    +0.000 OA
ATOM     11  C   UNL     1      -2.318  12.192  20.168  0.00  0.00    +0.000 A 
ATOM     12  C   UNL     1      -3.590  12.723  20.086  0.00  0.00    +0.000 A 
ATOM     13  C   UNL     1      -3.904  13.771  20.959  0.00  0.00    +0.000 A 
ATOM     14  C   UNL     1      -2.954  14.254  21.882  0.00  0.00    +0.000 A 
ATOM     15  C   UNL     1      -1.683  13.680  21.966  0.00  0.00    +0.000 A 
ATOM     16  C   UNL     1      -1.401  12.643  21.099  0.00  0.00    +0.000 A 
ATOM     17  C   UNL     1      -0.187  11.845  20.955  0.00  0.00    +0.000 C 
ATOM     18  O   UNL     1       0.775  11.957  21.690  0.00  0.00    +0.000 OA
ENDBRANCH   4   8
BRANCH   1  21
ATOM     19  O   UNL     1       2.245   5.433  17.855  0.00  0.00    +0.000 OA
ATOM     20  C   UNL     1       3.336   6.000  17.817  0.00  0.00    +0.000 C 
ATOM     21  N   UNL     1       3.517   7.353  18.087  0.00  0.00    +0.000 N 
ATOM     22  H   UNL     1       4.416   7.741  17.827  0.00  0.00    +0.000 HD
BRANCH  20  23
ATOM     23  C   UNL     1       4.520   5.269  17.429  0.00  0.00    +0.000 A 
ATOM     24  C   UNL     1       4.746   4.548  16.269  0.00  0.00    +0.000 A 
ATOM     25  C   UNL     1       6.024   3.961  16.393  0.00  0.00    +0.000 A 
ATOM     26  C   UNL     1       6.508   4.373  17.614  0.00  0.00    +0.000 A 
ATOM     27  O   UNL     1       5.616   5.180  18.246  0.00  0.00    +0.000 OA
ENDBRANCH  20  23
ENDBRANCH   1  21
TORSDOF 3
ENDMDL
MODEL 6
REMARK VINA RESULT:      -6.9      7.966      9.326
REMARK  Name = 
REMARK  3 active torsions:
REMARK  status: ('A' for Active; 'I' for Inactive)
REMARK    1  A    between atoms: C_2  and  C_22
REMARK    2  A    between atoms: N_3  and  C_4
REMARK    3  A    between atoms: C_7  and  N_8
REMARK                            x       y       z     vdW  Elec       q    Type
REMARK                         _______ _______ _______ _____ _____    ______ ____
ROOT
ATOM      1  C   UNL     1       8.264   9.625  17.935  0.00  0.00    +0.000 A 
ATOM      2  C   UNL     1       9.155   9.498  19.007  0.00  0.00    +0.000 A 
ATOM      3  C   UNL     1       9.685  10.619  19.647  0.00  0.00    +0.000 A 
ATOM      4  C   UNL     1       9.313  11.902  19.246  0.00  0.00    +0.000 A 
ATOM      5  C   UNL     1       8.460  12.041  18.138  0.00  0.00    +0.000 A 
ATOM      6 CL   UNL     1       8.083  13.593  17.469  0.00  0.00    +0.000 Cl
ATOM      7  C   UNL     1       7.963  10.908  17.468  0.00  0.00    +0.000 A 
ENDROOT
BRANCH   4   8
ATOM      8  N   UNL     1       9.827  13.007  19.954  0.00  0.00    +0.000 N 
ATOM      9  C   UNL     1      10.817  13.834  19.480  0.00  0.00    +0.000 C 
ATOM     10  O   UNL     1      11.418  13.827  18.420  0.00  0.00    +0.000 OA
ATOM     11  C   UNL     1      10.989  14.886  20.486  0.00  0.00    +0.000 A 
ATOM     12  C   UNL     1      11.860  15.957  20.530  0.00  0.00    +0.000 A 
ATOM     13  C   UNL     1      11.807  16.779  21.659  0.00  0.00    +0.000 A 
ATOM     14  C   UNL     1      10.896  16.519  22.704  0.00  0.00    +0.000 A 
ATOM     15  C   UNL     1      10.004  15.446  22.624  0.00  0.00    +0.000 A 
ATOM     16  C   UNL     1      10.072  14.654  21.495  0.00  0.00    +0.000 A 
ATOM     17  C   UNL     1       9.278  13.487  21.119  0.00  0.00    +0.000 C 
ATOM     18  O   UNL     1       8.336  13.084  21.774  0.00  0.00    +0.000 OA
ENDBRANCH   4   8
BRANCH   1  21
ATOM     19  O   UNL     1       8.211   6.909  18.901  0.00  0.00    +0.000 OA
ATOM     20  C   UNL     1       7.696   7.209  17.825  0.00  0.00    +0.000 C 
ATOM     21  N   UNL     1       7.662   8.503  17.316  0.00  0.00    +0.000 N 
ATOM     22  H   UNL     1       7.038   8.654  16.531  0.00  0.00    +0.000 HD
BRANCH  20  23
ATOM     23  C   UNL     1       7.034   6.199  17.032  0.00  0.00    +0.000 A 
ATOM     24  C   UNL     1       5.760   6.225  16.491  0.00  0.00    +0.000 A 
ATOM     25  C   UNL     1       5.555   4.977  15.864  0.00  0.00    +0.000 A 
ATOM     26  C   UNL     1       6.722   4.270  16.046  0.00  0.00    +0.000 A 
ATOM     27  O   UNL     1       7.634   5.003  16.736  0.00  0.00    +0.000 OA
ENDBRANCH  20  23
ENDBRANCH   1  21
TORSDOF 3
ENDMDL
MODEL 7
REMARK VINA RESULT:      -6.9      3.199      9.102
REMARK  Name = 
REMARK  3 active torsions:
REMARK  status: ('A' for Active; 'I' for Inactive)
REMARK    1  A    between atoms: C_2  and  C_22
REMARK    2  A    between atoms: N_3  and  C_4
REMARK    3  A    between atoms: C_7  and  N_8
REMARK                            x       y       z     vdW  Elec       q    Type
REMARK                         _______ _______ _______ _____ _____    ______ ____
ROOT
ATOM      1  C   UNL     1      -0.391  13.016  19.501  0.00  0.00    +0.000 A 
ATOM      2  C   UNL     1       0.600  12.605  20.401  0.00  0.00    +0.000 A 
ATOM      3  C   UNL     1       1.108  11.305  20.377  0.00  0.00    +0.000 A 
ATOM      4  C   UNL     1       0.653  10.387  19.431  0.00  0.00    +0.000 A 
ATOM      5  C   UNL     1      -0.378  10.774  18.558  0.00  0.00    +0.000 A 
ATOM      6 CL   UNL     1      -1.117   9.649  17.468  0.00  0.00    +0.000 Cl
ATOM      7  C   UNL     1      -0.917  12.072  18.615  0.00  0.00    +0.000 A 
ENDROOT
BRANCH   4   8
ATOM      8  N   UNL     1       1.230   9.102  19.404  0.00  0.00    +0.000 N 
ATOM      9  C   UNL     1       2.024   8.633  18.384  0.00  0.00    +0.000 C 
ATOM     10  O   UNL     1       2.405   9.175  17.362  0.00  0.00    +0.000 OA
ATOM     11  C   UNL     1       2.471   7.299  18.794  0.00  0.00    +0.000 A 
ATOM     12  C   UNL     1       3.264   6.376  18.141  0.00  0.00    +0.000 A 
ATOM     13  C   UNL     1       3.488   5.154  18.785  0.00  0.00    +0.000 A 
ATOM     14  C   UNL     1       2.925   4.888  20.051  0.00  0.00    +0.000 A 
ATOM     15  C   UNL     1       2.150   5.849  20.704  0.00  0.00    +0.000 A 
ATOM     16  C   UNL     1       1.950   7.049  20.050  0.00  0.00    +0.000 A 
ATOM     17  C   UNL     1       1.211   8.236  20.472  0.00  0.00    +0.000 C 
ATOM     18  O   UNL     1       0.702   8.347  21.571  0.00  0.00    +0.000 OA
ENDBRANCH   4   8
BRANCH   1  21
ATOM     19  O   UNL     1       0.884  15.303  18.293  0.00  0.00    +0.000 OA
ATOM     20  C   UNL     1      -0.190  15.414  18.883  0.00  0.00    +0.000 C 
ATOM     21  N   UNL     1      -0.870  14.348  19.462  0.00  0.00    +0.000 N 
ATOM     22  H   UNL     1      -1.829  14.529  19.736  0.00  0.00    +0.000 HD
BRANCH  20  23
ATOM     23  C   UNL     1      -0.843  16.700  18.964  0.00  0.00    +0.000 A 
ATOM     24  C   UNL     1      -1.531  17.253  20.031  0.00  0.00    +0.000 A 
ATOM     25  C   UNL     1      -2.042  18.493  19.592  0.00  0.00    +0.000 A 
ATOM     26  C   UNL     1      -1.622  18.630  18.288  0.00  0.00    +0.000 A 
ATOM     27  O   UNL     1      -0.880  17.561  17.899  0.00  0.00    +0.000 OA
ENDBRANCH  20  23
ENDBRANCH   1  21
TORSDOF 3
ENDMDL
MODEL 8
REMARK VINA RESULT:      -6.9      6.488      8.874
REMARK  Name = 
REMARK  3 active torsions:
REMARK  status: ('A' for Active; 'I' for Inactive)
REMARK    1  A    between atoms: C_2  and  C_22
REMARK    2  A    between atoms: N_3  and  C_4
REMARK    3  A    between atoms: C_7  and  N_8
REMARK                            x       y       z     vdW  Elec       q    Type
REMARK                         _______ _______ _______ _____ _____    ______ ____
ROOT
ATOM      1  C   UNL     1       7.812   8.384  17.674  0.00  0.00    +0.000 A 
ATOM      2  C   UNL     1       6.587   8.339  16.997  0.00  0.00    +0.000 A 
ATOM      3  C   UNL     1       5.690   7.287  17.189  0.00  0.00    +0.000 A 
ATOM      4  C   UNL     1       5.985   6.264  18.089  0.00  0.00    +0.000 A 
ATOM      5  C   UNL     1       7.233   6.273  18.735  0.00  0.00    +0.000 A 
ATOM      6 CL   UNL     1       7.749   4.958  19.736  0.00  0.00    +0.000 Cl
ATOM      7  C   UNL     1       8.153   7.312  18.504  0.00  0.00    +0.000 A 
ENDROOT
BRANCH   4   8
ATOM      8  N   UNL     1       5.029   5.250  18.297  0.00  0.00    +0.000 N 
ATOM      9  C   UNL     1       3.940   5.374  19.128  0.00  0.00    +0.000 C 
ATOM     10  O   UNL     1       3.562   6.313  19.805  0.00  0.00    +0.000 OA
ATOM     11  C   UNL     1       3.175   4.133  18.988  0.00  0.00    +0.000 A 
ATOM     12  C   UNL     1       2.012   3.717  19.607  0.00  0.00    +0.000 A 
ATOM     13  C   UNL     1       1.536   2.442  19.286  0.00  0.00    +0.000 A 
ATOM     14  C   UNL     1       2.221   1.623  18.364  0.00  0.00    +0.000 A 
ATOM     15  C   UNL     1       3.379   2.077  17.729  0.00  0.00    +0.000 A 
ATOM     16  C   UNL     1       3.824   3.342  18.057  0.00  0.00    +0.000 A 
ATOM     17  C   UNL     1       4.976   4.090  17.562  0.00  0.00    +0.000 C 
ATOM     18  O   UNL     1       5.700   3.684  16.673  0.00  0.00    +0.000 OA
ENDBRANCH   4   8
BRANCH   1  21
ATOM     19  O   UNL     1       8.883  10.031  19.785  0.00  0.00    +0.000 OA
ATOM     20  C   UNL     1       9.166  10.247  18.607  0.00  0.00    +0.000 C 
ATOM     21  N   UNL     1       8.706   9.474  17.545  0.00  0.00    +0.000 N 
ATOM     22  H   UNL     1       9.167   9.625  16.655  0.00  0.00    +0.000 HD
BRANCH  20  23
ATOM     23  C   UNL     1      10.061  11.327  18.263  0.00  0.00    +0.000 A 
ATOM     24  C   UNL     1      11.390  11.491  18.614  0.00  0.00    +0.000 A 
ATOM     25  C   UNL     1      11.801  12.736  18.094  0.00  0.00    +0.000 A 
ATOM     26  C   UNL     1      10.704  13.251  17.442  0.00  0.00    +0.000 A 
ATOM     27  O   UNL     1       9.647  12.401  17.520  0.00  0.00    +0.000 OA
ENDBRANCH  20  23
ENDBRANCH   1  21
TORSDOF 3
ENDMDL
MODEL 9
REMARK VINA RESULT:      -6.8      1.179      1.275
REMARK  Name = 
REMARK  3 active torsions:
REMARK  status: ('A' for Active; 'I' for Inactive)
REMARK    1  A    between atoms: C_2  and  C_22
REMARK    2  A    between atoms: N_3  and  C_4
REMARK    3  A    between atoms: C_7  and  N_8
REMARK                            x       y       z     vdW  Elec       q    Type
REMARK                         _______ _______ _______ _____ _____    ______ ____
ROOT
ATOM      1  C   UNL     1       2.635   7.592  18.284  0.00  0.00    +0.000 A 
ATOM      2  C   UNL     1       2.168   8.667  17.519  0.00  0.00    +0.000 A 
ATOM      3  C   UNL     1       1.340   9.646  18.071  0.00  0.00    +0.000 A 
ATOM      4  C   UNL     1       0.980   9.588  19.417  0.00  0.00    +0.000 A 
ATOM      5  C   UNL     1       1.401   8.485  20.181  0.00  0.00    +0.000 A 
ATOM      6 CL   UNL     1       0.862   8.247  21.809  0.00  0.00    +0.000 Cl
ATOM      7  C   UNL     1       2.199   7.479  19.607  0.00  0.00    +0.000 A 
ENDROOT
BRANCH   4   8
ATOM      8  N   UNL     1       0.189  10.624  19.950  0.00  0.00    +0.000 N 
ATOM      9  C   UNL     1       0.664  11.603  20.791  0.00  0.00    +0.000 C 
ATOM     10  O   UNL     1       1.785  11.805  21.220  0.00  0.00    +0.000 OA
ATOM     11  C   UNL     1      -0.460  12.512  21.037  0.00  0.00    +0.000 A 
ATOM     12  C   UNL     1      -0.546  13.645  21.822  0.00  0.00    +0.000 A 
ATOM     13  C   UNL     1      -1.786  14.289  21.883  0.00  0.00    +0.000 A 
ATOM     14  C   UNL     1      -2.895  13.796  21.166  0.00  0.00    +0.000 A 
ATOM     15  C   UNL     1      -2.776  12.664  20.355  0.00  0.00    +0.000 A 
ATOM     16  C   UNL     1      -1.540  12.051  20.307  0.00  0.00    +0.000 A 
ATOM     17  C   UNL     1      -1.103  10.879  19.553  0.00  0.00    +0.000 C 
ATOM     18  O   UNL     1      -1.814  10.297  18.757  0.00  0.00    +0.000 OA
ENDBRANCH   4   8
BRANCH   1  21
ATOM     19  O   UNL     1       5.373   7.997  17.473  0.00  0.00    +0.000 OA
ATOM     20  C   UNL     1       4.836   6.895  17.365  0.00  0.00    +0.000 C 
ATOM     21  N   UNL     1       3.530   6.627  17.763  0.00  0.00    +0.000 N 
ATOM     22  H   UNL     1       3.274   5.647  17.812  0.00  0.00    +0.000 HD
BRANCH  20  23
ATOM     23  C   UNL     1       5.582   5.773  16.843  0.00  0.00    +0.000 A 
ATOM     24  C   UNL     1       5.199   4.858  15.878  0.00  0.00    +0.000 A 
ATOM     25  C   UNL     1       6.245   3.916  15.769  0.00  0.00    +0.000 A 
ATOM     26  C   UNL     1       7.210   4.322  16.662  0.00  0.00    +0.000 A 
ATOM     27  O   UNL     1       6.830   5.456  17.308  0.00  0.00    +0.000 OA
ENDBRANCH  20  23
ENDBRANCH   1  21
TORSDOF 3
ENDMDL
