MODEL 1
REMARK VINA RESULT:      -7.0      0.000      0.000
REMARK  Name = 
REMARK  4 active torsions:
REMARK  status: ('A' for Active; 'I' for Inactive)
REMARK    1  A    between atoms: C_1  and  C_2
REMARK    2  A    between atoms: C_4  and  C_5
REMARK    3  A    between atoms: C_9  and  C_10
REMARK    4  A    between atoms: C_16  and  O_17
REMARK                            x       y       z     vdW  Elec       q    Type
REMARK                         _______ _______ _______ _____ _____    ______ ____
ROOT
ATOM      1  C   UNL     1       4.373   3.698  18.814  0.00  0.00    +0.000 A 
ATOM      2  C   UNL     1       4.480   2.590  19.717  0.00  0.00    +0.000 A 
ATOM      3  N   UNL     1       3.504   2.545  20.638  0.00  0.00    +0.000 NA
ATOM      4  N   UNL     1       2.775   3.594  20.304  0.00  0.00    +0.000 N 
ATOM      5  C   UNL     1       3.226   4.318  19.252  0.00  0.00    +0.000 A 
ATOM      6  C   UNL     1       2.314   5.455  18.995  0.00  0.00    +0.000 C 
ATOM      7  C   UNL     1       1.464   5.489  20.301  0.00  0.00    +0.000 C 
ATOM      8  C   UNL     1       1.549   4.077  20.915  0.00  0.00    +0.000 C 
ENDROOT
BRANCH   1  15
ATOM      9  C   UNL     1       6.813   5.472  19.154  0.00  0.00    +0.000 C 
ATOM     10  C   UNL     1       6.334   4.947  17.826  0.00  0.00    +0.000 A 
ATOM     11  C   UNL     1       7.069   5.313  16.680  0.00  0.00    +0.000 A 
ATOM     12  C   UNL     1       6.694   4.882  15.407  0.00  0.00    +0.000 A 
ATOM     13  C   UNL     1       5.576   4.069  15.260  0.00  0.00    +0.000 A 
ATOM     14  C   UNL     1       4.838   3.694  16.387  0.00  0.00    +0.000 A 
ATOM     15  C   UNL     1       5.192   4.124  17.682  0.00  0.00    +0.000 A 
BRANCH  12  16
ATOM     16  C   UNL     1       7.459   5.270  14.256  0.00  0.00    +0.000 C 
ATOM     17  N   UNL     1       8.077   5.588  13.329  0.00  0.00    +0.000 NA
ENDBRANCH  12  16
ENDBRANCH   1  15
BRANCH   7  18
ATOM     18  O   UNL     1       2.002   6.460  21.206  0.00  0.00    +0.000 OA
ATOM     19  H   UNL     1       1.506   6.403  22.045  0.00  0.00    +0.000 HD
ENDBRANCH   7  18
TORSDOF 3
ENDMDL
MODEL 2
REMARK VINA RESULT:      -6.9      3.130      6.669
REMARK  Name = 
REMARK  4 active torsions:
REMARK  status: ('A' for Active; 'I' for Inactive)
REMARK    1  A    between atoms: C_1  and  C_2
REMARK    2  A    between atoms: C_4  and  C_5
REMARK    3  A    between atoms: C_9  and  C_10
REMARK    4  A    between atoms: C_16  and  O_17
REMARK                            x       y       z     vdW  Elec       q    Type
REMARK                         _______ _______ _______ _____ _____    ______ ____
ROOT
ATOM      1  C   UNL     1       5.754   4.639  15.684  0.00  0.00    +0.000 A 
ATOM      2  C   UNL     1       7.054   5.220  15.844  0.00  0.00    +0.000 A 
ATOM      3  N   UNL     1       7.774   5.257  14.711  0.00  0.00    +0.000 NA
ATOM      4  N   UNL     1       6.927   4.734  13.841  0.00  0.00    +0.000 N 
ATOM      5  C   UNL     1       5.731   4.344  14.341  0.00  0.00    +0.000 A 
ATOM      6  C   UNL     1       4.893   3.781  13.259  0.00  0.00    +0.000 C 
ATOM      7  C   UNL     1       5.936   3.564  12.121  0.00  0.00    +0.000 C 
ATOM      8  C   UNL     1       7.109   4.521  12.417  0.00  0.00    +0.000 C 
ENDROOT
BRANCH   1  15
ATOM      9  C   UNL     1       4.321   6.911  17.098  0.00  0.00    +0.000 C 
ATOM     10  C   UNL     1       3.982   5.456  17.288  0.00  0.00    +0.000 A 
ATOM     11  C   UNL     1       2.937   5.145  18.183  0.00  0.00    +0.000 A 
ATOM     12  C   UNL     1       2.560   3.824  18.430  0.00  0.00    +0.000 A 
ATOM     13  C   UNL     1       3.221   2.789  17.777  0.00  0.00    +0.000 A 
ATOM     14  C   UNL     1       4.256   3.081  16.884  0.00  0.00    +0.000 A 
ATOM     15  C   UNL     1       4.661   4.407  16.625  0.00  0.00    +0.000 A 
BRANCH  12  16
ATOM     16  C   UNL     1       1.495   3.535  19.346  0.00  0.00    +0.000 C 
ATOM     17  N   UNL     1       0.637   3.297  20.087  0.00  0.00    +0.000 NA
ENDBRANCH  12  16
ENDBRANCH   1  15
BRANCH   7  18
ATOM     18  O   UNL     1       6.387   2.204  12.129  0.00  0.00    +0.000 OA
ATOM     19  H   UNL     1       6.706   1.993  13.027  0.00  0.00    +0.000 HD
ENDBRANCH   7  18
TORSDOF 3
ENDMDL
MODEL 3
REMARK VINA RESULT:      -6.7      3.451      5.561
REMARK  Name = 
REMARK  4 active torsions:
REMARK  status: ('A' for Active; 'I' for Inactive)
REMARK    1  A    between atoms: C_1  and  C_2
REMARK    2  A    between atoms: C_4  and  C_5
REMARK    3  A    between atoms: C_9  and  C_10
REMARK    4  A    between atoms: C_16  and  O_17
REMARK                            x       y       z     vdW  Elec       q    Type
REMARK                         _______ _______ _______ _____ _____    ______ ____
ROOT
ATOM      1  C   UNL     1       3.599   5.554  18.812  0.00  0.00    +0.000 A 
ATOM      2  C   UNL     1       4.922   5.199  19.234  0.00  0.00    +0.000 A 
ATOM      3  N   UNL     1       5.229   3.908  19.028  0.00  0.00    +0.000 NA
ATOM      4  N   UNL     1       4.125   3.461  18.457  0.00  0.00    +0.000 N 
ATOM      5  C   UNL     1       3.128   4.365  18.305  0.00  0.00    +0.000 A 
ATOM      6  C   UNL     1       1.963   3.725  17.655  0.00  0.00    +0.000 C 
ATOM      7  C   UNL     1       2.305   2.211  17.794  0.00  0.00    +0.000 C 
ATOM      8  C   UNL     1       3.835   2.125  17.968  0.00  0.00    +0.000 C 
ENDROOT
BRANCH   1  15
ATOM      9  C   UNL     1       1.696   6.275  21.064  0.00  0.00    +0.000 C 
ATOM     10  C   UNL     1       1.980   7.168  19.885  0.00  0.00    +0.000 A 
ATOM     11  C   UNL     1       1.310   8.408  19.835  0.00  0.00    +0.000 A 
ATOM     12  C   UNL     1       1.504   9.297  18.776  0.00  0.00    +0.000 A 
ATOM     13  C   UNL     1       2.379   8.959  17.749  0.00  0.00    +0.000 A 
ATOM     14  C   UNL     1       3.053   7.735  17.785  0.00  0.00    +0.000 A 
ATOM     15  C   UNL     1       2.867   6.817  18.840  0.00  0.00    +0.000 A 
BRANCH  12  16
ATOM     16  C   UNL     1       0.810  10.552  18.748  0.00  0.00    +0.000 C 
ATOM     17  N   UNL     1       0.251  11.566  18.722  0.00  0.00    +0.000 NA
ENDBRANCH  12  16
ENDBRANCH   1  15
BRANCH   7  18
ATOM     18  O   UNL     1       1.641   1.665  18.940  0.00  0.00    +0.000 OA
ATOM     19  H   UNL     1       0.844   2.201  19.114  0.00  0.00    +0.000 HD
ENDBRANCH   7  18
TORSDOF 3
ENDMDL
MODEL 4
REMARK VINA RESULT:      -6.7      1.024      1.047
REMARK  Name = 
REMARK  4 active torsions:
REMARK  status: ('A' for Active; 'I' for Inactive)
REMARK    1  A    between atoms: C_1  and  C_2
REMARK    2  A    between atoms: C_4  and  C_5
REMARK    3  A    between atoms: C_9  and  C_10
REMARK    4  A    between atoms: C_16  and  O_17
REMARK                            x       y       z     vdW  Elec       q    Type
REMARK                         _______ _______ _______ _____ _____    ______ ____
ROOT
ATOM      1  C   UNL     1       3.927   3.364  17.683  0.00  0.00    +0.000 A 
ATOM      2  C   UNL     1       3.579   2.023  18.049  0.00  0.00    +0.000 A 
ATOM      3  N   UNL     1       2.585   1.947  18.947  0.00  0.00    +0.000 NA
ATOM      4  N   UNL     1       2.288   3.222  19.125  0.00  0.00    +0.000 N 
ATOM      5  C   UNL     1       3.036   4.106  18.424  0.00  0.00    +0.000 A 
ATOM      6  C   UNL     1       2.594   5.487  18.722  0.00  0.00    +0.000 C 
ATOM      7  C   UNL     1       1.716   5.278  19.993  0.00  0.00    +0.000 C 
ATOM      8  C   UNL     1       1.265   3.804  19.974  0.00  0.00    +0.000 C 
ENDROOT
BRANCH   1  15
ATOM      9  C   UNL     1       6.389   4.859  18.640  0.00  0.00    +0.000 C 
ATOM     10  C   UNL     1       6.075   4.598  17.190  0.00  0.00    +0.000 A 
ATOM     11  C   UNL     1       6.986   5.087  16.232  0.00  0.00    +0.000 A 
ATOM     12  C   UNL     1       6.773   4.899  14.865  0.00  0.00    +0.000 A 
ATOM     13  C   UNL     1       5.643   4.213  14.435  0.00  0.00    +0.000 A 
ATOM     14  C   UNL     1       4.732   3.719  15.373  0.00  0.00    +0.000 A 
ATOM     15  C   UNL     1       4.921   3.902  16.759  0.00  0.00    +0.000 A 
BRANCH  12  16
ATOM     16  C   UNL     1       7.715   5.408  13.909  0.00  0.00    +0.000 C 
ATOM     17  N   UNL     1       8.473   5.823  13.138  0.00  0.00    +0.000 NA
ENDBRANCH  12  16
ENDBRANCH   1  15
BRANCH   7  18
ATOM     18  O   UNL     1       2.491   5.548  21.167  0.00  0.00    +0.000 OA
ATOM     19  H   UNL     1       3.030   6.344  21.001  0.00  0.00    +0.000 HD
ENDBRANCH   7  18
TORSDOF 3
ENDMDL
MODEL 5
REMARK VINA RESULT:      -6.7      3.371      6.129
REMARK  Name = 
REMARK  4 active torsions:
REMARK  status: ('A' for Active; 'I' for Inactive)
REMARK    1  A    between atoms: C_1  and  C_2
REMARK    2  A    between atoms: C_4  and  C_5
REMARK    3  A    between atoms: C_9  and  C_10
REMARK    4  A    between atoms: C_16  and  O_17
REMARK                            x       y       z     vdW  Elec       q    Type
REMARK                         _______ _______ _______ _____ _____    ______ ____
ROOT
ATOM      1  C   UNL     1       3.262   5.653  19.253  0.00  0.00    +0.000 A 
ATOM      2  C   UNL     1       4.650   5.359  19.457  0.00  0.00    +0.000 A 
ATOM      3  N   UNL     1       5.015   4.142  19.024  0.00  0.00    +0.000 NA
ATOM      4  N   UNL     1       3.879   3.686  18.525  0.00  0.00    +0.000 N 
ATOM      5  C   UNL     1       2.812   4.512  18.631  0.00  0.00    +0.000 A 
ATOM      6  C   UNL     1       1.619   3.872  18.034  0.00  0.00    +0.000 C 
ATOM      7  C   UNL     1       2.080   2.389  17.900  0.00  0.00    +0.000 C 
ATOM      8  C   UNL     1       3.622   2.412  17.877  0.00  0.00    +0.000 C 
ENDROOT
BRANCH   1  15
ATOM      9  C   UNL     1       3.011   7.990  17.333  0.00  0.00    +0.000 C 
ATOM     10  C   UNL     1       2.324   7.926  18.672  0.00  0.00    +0.000 A 
ATOM     11  C   UNL     1       1.525   9.026  19.045  0.00  0.00    +0.000 A 
ATOM     12  C   UNL     1       0.858   9.057  20.271  0.00  0.00    +0.000 A 
ATOM     13  C   UNL     1       0.978   7.982  21.145  0.00  0.00    +0.000 A 
ATOM     14  C   UNL     1       1.764   6.883  20.788  0.00  0.00    +0.000 A 
ATOM     15  C   UNL     1       2.454   6.831  19.559  0.00  0.00    +0.000 A 
BRANCH  12  16
ATOM     16  C   UNL     1       0.052  10.189  20.627  0.00  0.00    +0.000 C 
ATOM     17  N   UNL     1      -0.603  11.101  20.915  0.00  0.00    +0.000 NA
ENDBRANCH  12  16
ENDBRANCH   1  15
BRANCH   7  18
ATOM     18  O   UNL     1       1.609   1.630  19.020  0.00  0.00    +0.000 OA
ATOM     19  H   UNL     1       0.930   1.005  18.701  0.00  0.00    +0.000 HD
ENDBRANCH   7  18
TORSDOF 3
ENDMDL
MODEL 6
REMARK VINA RESULT:      -6.6      3.479      6.200
REMARK  Name = 
REMARK  4 active torsions:
REMARK  status: ('A' for Active; 'I' for Inactive)
REMARK    1  A    between atoms: C_1  and  C_2
REMARK    2  A    between atoms: C_4  and  C_5
REMARK    3  A    between atoms: C_9  and  C_10
REMARK    4  A    between atoms: C_16  and  O_17
REMARK                            x       y       z     vdW  Elec       q    Type
REMARK                         _______ _______ _______ _____ _____    ______ ____
ROOT
ATOM      1  C   UNL     1       2.807   5.998  19.750  0.00  0.00    +0.000 A 
ATOM      2  C   UNL     1       4.159   5.656  19.417  0.00  0.00    +0.000 A 
ATOM      3  N   UNL     1       4.412   4.339  19.464  0.00  0.00    +0.000 NA
ATOM      4  N   UNL     1       3.229   3.852  19.793  0.00  0.00    +0.000 N 
ATOM      5  C   UNL     1       2.246   4.763  19.983  0.00  0.00    +0.000 A 
ATOM      6  C   UNL     1       0.986   4.077  20.344  0.00  0.00    +0.000 C 
ATOM      7  C   UNL     1       1.488   2.645  20.700  0.00  0.00    +0.000 C 
ATOM      8  C   UNL     1       2.840   2.466  19.980  0.00  0.00    +0.000 C 
ENDROOT
BRANCH   1  15
ATOM      9  C   UNL     1       2.751   7.944  17.422  0.00  0.00    +0.000 C 
ATOM     10  C   UNL     1       2.069   8.193  18.742  0.00  0.00    +0.000 A 
ATOM     11  C   UNL     1       1.372   9.409  18.892  0.00  0.00    +0.000 A 
ATOM     12  C   UNL     1       0.717   9.729  20.083  0.00  0.00    +0.000 A 
ATOM     13  C   UNL     1       0.747   8.831  21.144  0.00  0.00    +0.000 A 
ATOM     14  C   UNL     1       1.432   7.620  21.009  0.00  0.00    +0.000 A 
ATOM     15  C   UNL     1       2.107   7.278  19.820  0.00  0.00    +0.000 A 
BRANCH  12  16
ATOM     16  C   UNL     1       0.016  10.974  20.211  0.00  0.00    +0.000 C 
ATOM     17  N   UNL     1      -0.553  11.978  20.311  0.00  0.00    +0.000 NA
ENDBRANCH  12  16
ENDBRANCH   1  15
BRANCH   7  18
ATOM     18  O   UNL     1       1.658   2.527  22.117  0.00  0.00    +0.000 OA
ATOM     19  H   UNL     1       1.642   3.424  22.502  0.00  0.00    +0.000 HD
ENDBRANCH   7  18
TORSDOF 3
ENDMDL
MODEL 7
REMARK VINA RESULT:      -6.5      1.718      2.110
REMARK  Name = 
REMARK  4 active torsions:
REMARK  status: ('A' for Active; 'I' for Inactive)
REMARK    1  A    between atoms: C_1  and  C_2
REMARK    2  A    between atoms: C_4  and  C_5
REMARK    3  A    between atoms: C_9  and  C_10
REMARK    4  A    between atoms: C_16  and  O_17
REMARK                            x       y       z     vdW  Elec       q    Type
REMARK                         _______ _______ _______ _____ _____    ______ ____
ROOT
ATOM      1  C   UNL     1       3.867   4.639  18.657  0.00  0.00    +0.000 A 
ATOM      2  C   UNL     1       3.461   5.506  19.723  0.00  0.00    +0.000 A 
ATOM      3  N   UNL     1       2.544   4.965  20.542  0.00  0.00    +0.000 NA
ATOM      4  N   UNL     1       2.396   3.762  20.017  0.00  0.00    +0.000 N 
ATOM      5  C   UNL     1       3.132   3.504  18.910  0.00  0.00    +0.000 A 
ATOM      6  C   UNL     1       2.863   2.129  18.436  0.00  0.00    +0.000 C 
ATOM      7  C   UNL     1       1.573   1.759  19.228  0.00  0.00    +0.000 C 
ATOM      8  C   UNL     1       1.546   2.675  20.468  0.00  0.00    +0.000 C 
ENDROOT
BRANCH   1  15
ATOM      9  C   UNL     1       6.748   5.469  19.133  0.00  0.00    +0.000 C 
ATOM     10  C   UNL     1       6.167   5.192  17.771  0.00  0.00    +0.000 A 
ATOM     11  C   UNL     1       7.024   5.335  16.660  0.00  0.00    +0.000 A 
ATOM     12  C   UNL     1       6.571   5.108  15.360  0.00  0.00    +0.000 A 
ATOM     13  C   UNL     1       5.250   4.727  15.150  0.00  0.00    +0.000 A 
ATOM     14  C   UNL     1       4.390   4.578  16.241  0.00  0.00    +0.000 A 
ATOM     15  C   UNL     1       4.821   4.810  17.564  0.00  0.00    +0.000 A 
BRANCH  12  16
ATOM     16  C   UNL     1       7.462   5.262  14.246  0.00  0.00    +0.000 C 
ATOM     17  N   UNL     1       8.181   5.391  13.347  0.00  0.00    +0.000 NA
ENDBRANCH  12  16
ENDBRANCH   1  15
BRANCH   7  18
ATOM     18  O   UNL     1       0.418   1.990  18.412  0.00  0.00    +0.000 OA
ATOM     19  H   UNL     1       0.437   2.919  18.113  0.00  0.00    +0.000 HD
ENDBRANCH   7  18
TORSDOF 3
ENDMDL
MODEL 8
REMARK VINA RESULT:      -6.4      3.601      6.247
REMARK  Name = 
REMARK  4 active torsions:
REMARK  status: ('A' for Active; 'I' for Inactive)
REMARK    1  A    between atoms: C_1  and  C_2
REMARK    2  A    between atoms: C_4  and  C_5
REMARK    3  A    between atoms: C_9  and  C_10
REMARK    4  A    between atoms: C_16  and  O_17
REMARK                            x       y       z     vdW  Elec       q    Type
REMARK                         _______ _______ _______ _____ _____    ______ ____
ROOT
ATOM      1  C   UNL     1       3.627   5.707  17.919  0.00  0.00    +0.000 A 
ATOM      2  C   UNL     1       3.235   4.420  17.424  0.00  0.00    +0.000 A 
ATOM      3  N   UNL     1       4.263   3.667  16.999  0.00  0.00    +0.000 NA
ATOM      4  N   UNL     1       5.292   4.456  17.250  0.00  0.00    +0.000 N 
ATOM      5  C   UNL     1       4.996   5.666  17.781  0.00  0.00    +0.000 A 
ATOM      6  C   UNL     1       6.239   6.435  18.007  0.00  0.00    +0.000 C 
ATOM      7  C   UNL     1       7.277   5.624  17.174  0.00  0.00    +0.000 C 
ATOM      8  C   UNL     1       6.704   4.199  17.032  0.00  0.00    +0.000 C 
ENDROOT
BRANCH   1  15
ATOM      9  C   UNL     1       2.335   5.581  20.662  0.00  0.00    +0.000 C 
ATOM     10  C   UNL     1       2.256   6.777  19.750  0.00  0.00    +0.000 A 
ATOM     11  C   UNL     1       1.532   7.896  20.210  0.00  0.00    +0.000 A 
ATOM     12  C   UNL     1       1.398   9.046  19.429  0.00  0.00    +0.000 A 
ATOM     13  C   UNL     1       1.993   9.096  18.173  0.00  0.00    +0.000 A 
ATOM     14  C   UNL     1       2.718   7.996  17.706  0.00  0.00    +0.000 A 
ATOM     15  C   UNL     1       2.861   6.820  18.472  0.00  0.00    +0.000 A 
BRANCH  12  16
ATOM     16  C   UNL     1       0.653  10.170  19.919  0.00  0.00    +0.000 C 
ATOM     17  N   UNL     1       0.051  11.079  20.310  0.00  0.00    +0.000 NA
ENDBRANCH  12  16
ENDBRANCH   1  15
BRANCH   7  18
ATOM     18  O   UNL     1       7.444   6.226  15.885  0.00  0.00    +0.000 OA
ATOM     19  H   UNL     1       8.142   6.904  15.953  0.00  0.00    +0.000 HD
ENDBRANCH   7  18
TORSDOF 3
ENDMDL
MODEL 9
REMARK VINA RESULT:      -6.4      2.687      6.308
REMARK  Name = 
REMARK  4 active torsions:
REMARK  status: ('A' for Active; 'I' for Inactive)
REMARK    1  A    between atoms: C_1  and  C_2
REMARK    2  A    between atoms: C_4  and  C_5
REMARK    3  A    between atoms: C_9  and  C_10
REMARK    4  A    between atoms: C_16  and  O_17
REMARK                            x       y       z     vdW  Elec       q    Type
REMARK                         _______ _______ _______ _____ _____    ______ ____
ROOT
ATOM      1  C   UNL     1       5.662   4.895  17.957  0.00  0.00    +0.000 A 
ATOM      2  C   UNL     1       6.903   5.585  18.154  0.00  0.00    +0.000 A 
ATOM      3  N   UNL     1       7.552   5.870  17.014  0.00  0.00    +0.000 NA
ATOM      4  N   UNL     1       6.718   5.393  16.107  0.00  0.00    +0.000 N 
ATOM      5  C   UNL     1       5.597   4.803  16.586  0.00  0.00    +0.000 A 
ATOM      6  C   UNL     1       4.765   4.319  15.462  0.00  0.00    +0.000 C 
ATOM      7  C   UNL     1       5.762   4.390  14.266  0.00  0.00    +0.000 C 
ATOM      8  C   UNL     1       6.844   5.416  14.661  0.00  0.00    +0.000 C 
ENDROOT
BRANCH   1  15
ATOM      9  C   UNL     1       3.300   6.592  18.825  0.00  0.00    +0.000 C 
ATOM     10  C   UNL     1       3.544   5.184  19.301  0.00  0.00    +0.000 A 
ATOM     11  C   UNL     1       2.614   4.637  20.209  0.00  0.00    +0.000 A 
ATOM     12  C   UNL     1       2.763   3.343  20.711  0.00  0.00    +0.000 A 
ATOM     13  C   UNL     1       3.848   2.572  20.308  0.00  0.00    +0.000 A 
ATOM     14  C   UNL     1       4.777   3.099  19.406  0.00  0.00    +0.000 A 
ATOM     15  C   UNL     1       4.652   4.406  18.891  0.00  0.00    +0.000 A 
BRANCH  12  16
ATOM     16  C   UNL     1       1.803   2.810  21.635  0.00  0.00    +0.000 C 
ATOM     17  N   UNL     1       1.027   2.377  22.378  0.00  0.00    +0.000 NA
ENDBRANCH  12  16
ENDBRANCH   1  15
BRANCH   7  18
ATOM     18  O   UNL     1       6.351   3.102  14.047  0.00  0.00    +0.000 OA
ATOM     19  H   UNL     1       6.939   2.904  14.800  0.00  0.00    +0.000 HD
ENDBRANCH   7  18
TORSDOF 3
ENDMDL
