MODEL 1
REMARK VINA RESULT:      -7.7      0.000      0.000
REMARK  Name = 
REMARK  15 active torsions:
REMARK  status: ('A' for Active; 'I' for Inactive)
REMARK    1  A    between atoms: C_1  and  C_2
REMARK    2  A    between atoms: C_2  and  C_3
REMARK    3  A    between atoms: C_3  and  C_4
REMARK    4  A    between atoms: C_3  and  C_5
REMARK    5  A    between atoms: C_5  and  N_6
REMARK    6  A    between atoms: C_5  and  C_15
REMARK    7  A    between atoms: C_7  and  C_9
REMARK    8  A    between atoms: C_17  and  C_18
REMARK    9  A    between atoms: N_20  and  CA_21
REMARK   10  A    between atoms: CA_21  and  CB_22
REMARK   11  A    between atoms: CA_21  and  C_29
REMARK   12  A    between atoms: CB_22  and  CG_23
REMARK   13  A    between atoms: CG_23  and  CD_24
REMARK   14  A    between atoms: CD_24  and  NE_25
REMARK   15  A    between atoms: C_29  and  OXT_31
REMARK                            x       y       z     vdW  Elec       q    Type
REMARK                         _______ _______ _______ _____ _____    ______ ____
ROOT
ATOM      1  C   UNK A   1       1.757   8.749  19.315  0.00  0.00    +0.000 A 
ATOM      2  N   UNK A   1       2.231   7.588  19.734  0.00  0.00    +0.000 NA
ATOM      3  C   UNK A   1       2.934   7.100  18.643  0.00  0.00    +0.000 A 
ATOM      4  C   UNK A   1       2.893   8.025  17.628  0.00  0.00    +0.000 A 
ATOM      5  O   UNK A   1       2.177   9.095  18.058  0.00  0.00    +0.000 OA
ENDROOT
BRANCH   3   6
ATOM      6  C   UNK A   1       3.603   5.809  18.596  0.00  0.00    +0.000 C 
ATOM      7  O   UNK A   1       3.078   4.768  18.976  0.00  0.00    +0.000 OA
ATOM      8  N   ARG A   2       4.869   5.867  18.075  0.00  0.00    +0.000 N 
ATOM      9  H   ARG A   2       5.239   6.786  17.832  0.00  0.00    +0.000 HD
BRANCH   8  10
ATOM     10  CA  ARG A   2       5.702   4.689  17.883  0.00  0.00    +0.000 C 
BRANCH  10  11
ATOM     11  C   ARG A   2       7.181   5.081  18.010  0.00  0.00    +0.000 C 
ATOM     12  O   ARG A   2       8.111   4.293  17.889  0.00  0.00    +0.000 OA
BRANCH  11  13
ATOM     13  OXT ARG A   2       7.388   6.390  18.287  0.00  0.00    +0.000 OA
ATOM     14  HXT ARG A   2       7.969   6.570  19.050  0.00  0.00    +0.000 HD
ENDBRANCH  11  13
ENDBRANCH  10  11
BRANCH  10  15
ATOM     15  CB  ARG A   2       5.399   4.011  16.537  0.00  0.00    +0.000 C 
BRANCH  15  16
ATOM     16  CG  ARG A   2       5.534   4.967  15.346  0.00  0.00    +0.000 C 
BRANCH  16  17
ATOM     17  CD  ARG A   2       6.689   4.579  14.426  0.00  0.00    +0.000 C 
BRANCH  17  18
ATOM     18  NE  ARG A   2       6.303   3.427  13.637  0.00  0.00    +0.000 N 
ATOM     19  CZ  ARG A   2       6.491   3.322  12.306  0.00  0.00    +0.000 C 
ATOM     20  NH1 ARG A   2       7.103   4.127  11.522  0.00  0.00    +0.000 NA
ATOM     21  NH2 ARG A   2       5.952   2.190  11.819  0.00  0.00    +0.000 N 
ATOM     22  HE  ARG A   2       5.432   2.994  13.930  0.00  0.00    +0.000 HD
ATOM     23  HH1 ARG A   2       7.441   4.931  12.049  0.00  0.00    +0.000 HD
ATOM     24 HH21 ARG A   2       6.153   1.380  12.390  0.00  0.00    +0.000 HD
ATOM     25 HH22 ARG A   2       6.274   2.047  10.866  0.00  0.00    +0.000 HD
ENDBRANCH  17  18
ENDBRANCH  16  17
ENDBRANCH  15  16
ENDBRANCH  10  15
ENDBRANCH   8  10
ENDBRANCH   3   6
BRANCH   1  26
ATOM     26  C   UNK A   1       0.801   9.683  20.016  0.00  0.00    +0.000 C 
BRANCH  26  27
ATOM     27  N   UNK A   1      -0.403   9.827  19.205  0.00  0.00    +0.000 N 
ATOM     28  C   UNK A   1      -0.797  11.044  18.697  0.00  0.00    +0.000 C 
ATOM     29  O   UNK A   1      -0.138  12.072  18.831  0.00  0.00    +0.000 OA
ATOM     30  H   UNK A   1      -1.032   9.040  19.177  0.00  0.00    +0.000 HD
BRANCH  28  31
ATOM     31  C   UNK A   1      -2.123  11.081  18.009  0.00  0.00    +0.000 A 
ATOM     32  C   UNK A   1      -3.197  11.708  18.660  0.00  0.00    +0.000 A 
ATOM     33  C   UNK A   1      -4.461  11.738  18.066  0.00  0.00    +0.000 A 
ATOM     34  C   UNK A   1      -4.661  11.149  16.818  0.00  0.00    +0.000 A 
ATOM     35  C   UNK A   1      -3.596  10.542  16.156  0.00  0.00    +0.000 A 
ATOM     36  C   UNK A   1      -2.330  10.514  16.744  0.00  0.00    +0.000 A 
ENDBRANCH  28  31
ENDBRANCH  26  27
BRANCH  26  37
ATOM     37  C   UNK A   1       0.515   9.334  21.509  0.00  0.00    +0.000 C 
ATOM     38  C   UNK A   1      -0.675   8.361  21.606  0.00  0.00    +0.000 C 
BRANCH  37  40
ATOM     39  C   UNK A   1      -1.106  10.589  23.117  0.00  0.00    +0.000 C 
ATOM     40  C   UNK A   1       0.284  10.497  22.507  0.00  0.00    +0.000 C 
ENDBRANCH  37  40
ENDBRANCH  26  37
ENDBRANCH   1  26
TORSDOF 13
ENDMDL
MODEL 2
REMARK VINA RESULT:      -7.6      5.944      9.740
REMARK  Name = 
REMARK  15 active torsions:
REMARK  status: ('A' for Active; 'I' for Inactive)
REMARK    1  A    between atoms: C_1  and  C_2
REMARK    2  A    between atoms: C_2  and  C_3
REMARK    3  A    between atoms: C_3  and  C_4
REMARK    4  A    between atoms: C_3  and  C_5
REMARK    5  A    between atoms: C_5  and  N_6
REMARK    6  A    between atoms: C_5  and  C_15
REMARK    7  A    between atoms: C_7  and  C_9
REMARK    8  A    between atoms: C_17  and  C_18
REMARK    9  A    between atoms: N_20  and  CA_21
REMARK   10  A    between atoms: CA_21  and  CB_22
REMARK   11  A    between atoms: CA_21  and  C_29
REMARK   12  A    between atoms: CB_22  and  CG_23
REMARK   13  A    between atoms: CG_23  and  CD_24
REMARK   14  A    between atoms: CD_24  and  NE_25
REMARK   15  A    between atoms: C_29  and  OXT_31
REMARK                            x       y       z     vdW  Elec       q    Type
REMARK                         _______ _______ _______ _____ _____    ______ ____
ROOT
ATOM      1  C   UNK A   1       7.524   7.080  17.756  0.00  0.00    +0.000 A 
ATOM      2  N   UNK A   1       7.537   8.290  17.222  0.00  0.00    +0.000 NA
ATOM      3  C   UNK A   1       8.308   9.036  18.100  0.00  0.00    +0.000 A 
ATOM      4  C   UNK A   1       8.771   8.218  19.102  0.00  0.00    +0.000 A 
ATOM      5  O   UNK A   1       8.309   6.962  18.872  0.00  0.00    +0.000 OA
ENDROOT
BRANCH   3   6
ATOM      6  C   UNK A   1       8.575  10.460  17.968  0.00  0.00    +0.000 C 
ATOM      7  O   UNK A   1       7.831  11.227  17.366  0.00  0.00    +0.000 OA
ATOM      8  N   ARG A   2       9.726  10.862  18.591  0.00  0.00    +0.000 N 
ATOM      9  H   ARG A   2      10.306  10.142  19.024  0.00  0.00    +0.000 HD
BRANCH   8  10
ATOM     10  CA  ARG A   2      10.161  12.250  18.634  0.00  0.00    +0.000 C 
BRANCH  10  11
ATOM     11  C   ARG A   2      11.158  12.510  17.495  0.00  0.00    +0.000 C 
ATOM     12  O   ARG A   2      11.040  13.410  16.673  0.00  0.00    +0.000 OA
BRANCH  11  13
ATOM     13  OXT ARG A   2      12.196  11.642  17.456  0.00  0.00    +0.000 OA
ATOM     14  HXT ARG A   2      12.460  11.264  18.317  0.00  0.00    +0.000 HD
ENDBRANCH  11  13
ENDBRANCH  10  11
BRANCH  10  15
ATOM     15  CB  ARG A   2      10.753  12.601  20.009  0.00  0.00    +0.000 C 
BRANCH  15  16
ATOM     16  CG  ARG A   2       9.996  13.734  20.712  0.00  0.00    +0.000 C 
BRANCH  16  17
ATOM     17  CD  ARG A   2      10.307  15.097  20.100  0.00  0.00    +0.000 C 
BRANCH  17  18
ATOM     18  NE  ARG A   2       9.066  15.747  19.731  0.00  0.00    +0.000 N 
ATOM     19  CZ  ARG A   2       8.687  15.992  18.460  0.00  0.00    +0.000 C 
ATOM     20  NH1 ARG A   2       9.262  15.635  17.374  0.00  0.00    +0.000 NA
ATOM     21  NH2 ARG A   2       7.539  16.692  18.413  0.00  0.00    +0.000 N 
ATOM     22  HE  ARG A   2       8.783  16.494  20.358  0.00  0.00    +0.000 HD
ATOM     23  HH1 ARG A   2      10.116  15.123  17.589  0.00  0.00    +0.000 HD
ATOM     24 HH21 ARG A   2       6.840  16.346  19.056  0.00  0.00    +0.000 HD
ATOM     25 HH22 ARG A   2       7.184  16.691  17.461  0.00  0.00    +0.000 HD
ENDBRANCH  17  18
ENDBRANCH  16  17
ENDBRANCH  15  16
ENDBRANCH  10  15
ENDBRANCH   8  10
ENDBRANCH   3   6
BRANCH   1  26
ATOM     26  C   UNK A   1       6.737   5.868  17.323  0.00  0.00    +0.000 C 
BRANCH  26  27
ATOM     27  N   UNK A   1       5.491   5.816  18.079  0.00  0.00    +0.000 N 
ATOM     28  C   UNK A   1       5.183   4.756  18.902  0.00  0.00    +0.000 C 
ATOM     29  O   UNK A   1       5.954   3.821  19.108  0.00  0.00    +0.000 OA
ATOM     30  H   UNK A   1       4.784   6.495  17.844  0.00  0.00    +0.000 HD
BRANCH  28  31
ATOM     31  C   UNK A   1       3.816   4.754  19.504  0.00  0.00    +0.000 A 
ATOM     32  C   UNK A   1       3.138   5.977  19.627  0.00  0.00    +0.000 A 
ATOM     33  C   UNK A   1       1.871   6.025  20.214  0.00  0.00    +0.000 A 
ATOM     34  C   UNK A   1       1.270   4.854  20.675  0.00  0.00    +0.000 A 
ATOM     35  C   UNK A   1       1.927   3.633  20.539  0.00  0.00    +0.000 A 
ATOM     36  C   UNK A   1       3.192   3.581  19.950  0.00  0.00    +0.000 A 
ENDBRANCH  28  31
ENDBRANCH  26  27
BRANCH  26  37
ATOM     37  C   UNK A   1       6.542   5.726  15.781  0.00  0.00    +0.000 C 
ATOM     38  C   UNK A   1       5.153   6.254  15.373  0.00  0.00    +0.000 C 
BRANCH  37  40
ATOM     39  C   UNK A   1       5.915   4.036  13.901  0.00  0.00    +0.000 C 
ATOM     40  C   UNK A   1       6.749   4.332  15.137  0.00  0.00    +0.000 C 
ENDBRANCH  37  40
ENDBRANCH  26  37
ENDBRANCH   1  26
TORSDOF 13
ENDMDL
MODEL 3
REMARK VINA RESULT:      -7.5      2.080      2.873
REMARK  Name = 
REMARK  15 active torsions:
REMARK  status: ('A' for Active; 'I' for Inactive)
REMARK    1  A    between atoms: C_1  and  C_2
REMARK    2  A    between atoms: C_2  and  C_3
REMARK    3  A    between atoms: C_3  and  C_4
REMARK    4  A    between atoms: C_3  and  C_5
REMARK    5  A    between atoms: C_5  and  N_6
REMARK    6  A    between atoms: C_5  and  C_15
REMARK    7  A    between atoms: C_7  and  C_9
REMARK    8  A    between atoms: C_17  and  C_18
REMARK    9  A    between atoms: N_20  and  CA_21
REMARK   10  A    between atoms: CA_21  and  CB_22
REMARK   11  A    between atoms: CA_21  and  C_29
REMARK   12  A    between atoms: CB_22  and  CG_23
REMARK   13  A    between atoms: CG_23  and  CD_24
REMARK   14  A    between atoms: CD_24  and  NE_25
REMARK   15  A    between atoms: C_29  and  OXT_31
REMARK                            x       y       z     vdW  Elec       q    Type
REMARK                         _______ _______ _______ _____ _____    ______ ____
ROOT
ATOM      1  C   UNK A   1       1.607   9.201  19.188  0.00  0.00    +0.000 A 
ATOM      2  N   UNK A   1       1.639   7.978  19.688  0.00  0.00    +0.000 NA
ATOM      3  C   UNK A   1       2.361   7.252  18.753  0.00  0.00    +0.000 A 
ATOM      4  C   UNK A   1       2.778   8.093  17.751  0.00  0.00    +0.000 A 
ATOM      5  O   UNK A   1       2.336   9.344  18.037  0.00  0.00    +0.000 OA
ENDROOT
BRANCH   3   6
ATOM      6  C   UNK A   1       2.624   5.823  18.835  0.00  0.00    +0.000 C 
ATOM      7  O   UNK A   1       2.020   5.072  19.593  0.00  0.00    +0.000 OA
ATOM      8  N   ARG A   2       3.602   5.397  17.975  0.00  0.00    +0.000 N 
ATOM      9  H   ARG A   2       4.084   6.103  17.419  0.00  0.00    +0.000 HD
BRANCH   8  10
ATOM     10  CA  ARG A   2       3.992   4.000  17.849  0.00  0.00    +0.000 C 
BRANCH  10  11
ATOM     11  C   ARG A   2       4.829   3.590  19.068  0.00  0.00    +0.000 C 
ATOM     12  O   ARG A   2       5.993   3.931  19.247  0.00  0.00    +0.000 OA
BRANCH  11  13
ATOM     13  OXT ARG A   2       4.179   2.792  19.947  0.00  0.00    +0.000 OA
ATOM     14  HXT ARG A   2       4.469   1.861  19.963  0.00  0.00    +0.000 HD
ENDBRANCH  11  13
ENDBRANCH  10  11
BRANCH  10  15
ATOM     15  CB  ARG A   2       4.739   3.753  16.528  0.00  0.00    +0.000 C 
BRANCH  15  16
ATOM     16  CG  ARG A   2       5.299   5.040  15.910  0.00  0.00    +0.000 C 
BRANCH  16  17
ATOM     17  CD  ARG A   2       6.824   5.078  15.950  0.00  0.00    +0.000 C 
BRANCH  17  18
ATOM     18  NE  ARG A   2       7.259   6.430  16.234  0.00  0.00    +0.000 N 
ATOM     19  CZ  ARG A   2       7.490   6.908  17.474  0.00  0.00    +0.000 C 
ATOM     20  NH1 ARG A   2       7.469   6.279  18.587  0.00  0.00    +0.000 NA
ATOM     21  NH2 ARG A   2       7.789   8.219  17.449  0.00  0.00    +0.000 N 
ATOM     22  HE  ARG A   2       6.851   7.136  15.628  0.00  0.00    +0.000 HD
ATOM     23  HH1 ARG A   2       7.219   5.303  18.427  0.00  0.00    +0.000 HD
ATOM     24 HH21 ARG A   2       8.447   8.460  16.720  0.00  0.00    +0.000 HD
ATOM     25 HH22 ARG A   2       8.142   8.501  18.359  0.00  0.00    +0.000 HD
ENDBRANCH  17  18
ENDBRANCH  16  17
ENDBRANCH  15  16
ENDBRANCH  10  15
ENDBRANCH   8  10
ENDBRANCH   3   6
BRANCH   1  26
ATOM     26  C   UNK A   1       0.850  10.405  19.691  0.00  0.00    +0.000 C 
BRANCH  26  27
ATOM     27  N   UNK A   1      -0.473  10.425  19.077  0.00  0.00    +0.000 N 
ATOM     28  C   UNK A   1      -0.980  11.557  18.479  0.00  0.00    +0.000 C 
ATOM     29  O   UNK A   1      -0.339  12.598  18.361  0.00  0.00    +0.000 OA
ATOM     30  H   UNK A   1      -1.075   9.638  19.261  0.00  0.00    +0.000 HD
BRANCH  28  31
ATOM     31  C   UNK A   1      -2.400  11.488  18.019  0.00  0.00    +0.000 A 
ATOM     32  C   UNK A   1      -2.662  11.002  16.729  0.00  0.00    +0.000 A 
ATOM     33  C   UNK A   1      -3.973  10.950  16.247  0.00  0.00    +0.000 A 
ATOM     34  C   UNK A   1      -5.030  11.377  17.051  0.00  0.00    +0.000 A 
ATOM     35  C   UNK A   1      -4.780  11.843  18.340  0.00  0.00    +0.000 A 
ATOM     36  C   UNK A   1      -3.473  11.892  18.826  0.00  0.00    +0.000 A 
ENDBRANCH  28  31
ENDBRANCH  26  27
BRANCH  26  37
ATOM     37  C   UNK A   1       0.824  10.565  21.243  0.00  0.00    +0.000 C 
ATOM     38  C   UNK A   1       1.461   9.332  21.912  0.00  0.00    +0.000 C 
BRANCH  37  40
ATOM     39  C   UNK A   1      -0.827  10.059  23.193  0.00  0.00    +0.000 C 
ATOM     40  C   UNK A   1      -0.533  10.856  21.932  0.00  0.00    +0.000 C 
ENDBRANCH  37  40
ENDBRANCH  26  37
ENDBRANCH   1  26
TORSDOF 13
ENDMDL
MODEL 4
REMARK VINA RESULT:      -7.5      5.521      9.800
REMARK  Name = 
REMARK  15 active torsions:
REMARK  status: ('A' for Active; 'I' for Inactive)
REMARK    1  A    between atoms: C_1  and  C_2
REMARK    2  A    between atoms: C_2  and  C_3
REMARK    3  A    between atoms: C_3  and  C_4
REMARK    4  A    between atoms: C_3  and  C_5
REMARK    5  A    between atoms: C_5  and  N_6
REMARK    6  A    between atoms: C_5  and  C_15
REMARK    7  A    between atoms: C_7  and  C_9
REMARK    8  A    between atoms: C_17  and  C_18
REMARK    9  A    between atoms: N_20  and  CA_21
REMARK   10  A    between atoms: CA_21  and  CB_22
REMARK   11  A    between atoms: CA_21  and  C_29
REMARK   12  A    between atoms: CB_22  and  CG_23
REMARK   13  A    between atoms: CG_23  and  CD_24
REMARK   14  A    between atoms: CD_24  and  NE_25
REMARK   15  A    between atoms: C_29  and  OXT_31
REMARK                            x       y       z     vdW  Elec       q    Type
REMARK                         _______ _______ _______ _____ _____    ______ ____
ROOT
ATOM      1  C   UNK A   1       7.135   6.289  17.309  0.00  0.00    +0.000 A 
ATOM      2  N   UNK A   1       7.207   7.563  16.962  0.00  0.00    +0.000 NA
ATOM      3  C   UNK A   1       7.963   8.142  17.970  0.00  0.00    +0.000 A 
ATOM      4  C   UNK A   1       8.358   7.169  18.855  0.00  0.00    +0.000 A 
ATOM      5  O   UNK A   1       7.868   5.979  18.423  0.00  0.00    +0.000 OA
ENDROOT
BRANCH   3   6
ATOM      6  C   UNK A   1       8.278   9.560  18.062  0.00  0.00    +0.000 C 
ATOM      7  O   UNK A   1       7.805  10.401  17.306  0.00  0.00    +0.000 OA
ATOM      8  N   ARG A   2       9.142   9.864  19.080  0.00  0.00    +0.000 N 
ATOM      9  H   ARG A   2       9.523   9.090  19.624  0.00  0.00    +0.000 HD
BRANCH   8  10
ATOM     10  CA  ARG A   2       9.553  11.225  19.390  0.00  0.00    +0.000 C 
BRANCH  10  11
ATOM     11  C   ARG A   2      10.892  11.526  18.702  0.00  0.00    +0.000 C 
ATOM     12  O   ARG A   2      11.987  11.319  19.213  0.00  0.00    +0.000 OA
BRANCH  11  13
ATOM     13  OXT ARG A   2      10.774  12.062  17.464  0.00  0.00    +0.000 OA
ATOM     14  HXT ARG A   2      11.316  11.640  16.772  0.00  0.00    +0.000 HD
ENDBRANCH  11  13
ENDBRANCH  10  11
BRANCH  10  15
ATOM     15  CB  ARG A   2       9.625  11.447  20.910  0.00  0.00    +0.000 C 
BRANCH  15  16
ATOM     16  CG  ARG A   2       9.597  12.930  21.298  0.00  0.00    +0.000 C 
BRANCH  16  17
ATOM     17  CD  ARG A   2       8.360  13.286  22.118  0.00  0.00    +0.000 C 
BRANCH  17  18
ATOM     18  NE  ARG A   2       8.696  13.254  23.526  0.00  0.00    +0.000 N 
ATOM     19  CZ  ARG A   2       8.291  12.294  24.382  0.00  0.00    +0.000 C 
ATOM     20  NH1 ARG A   2       7.644  11.220  24.126  0.00  0.00    +0.000 NA
ATOM     21  NH2 ARG A   2       8.668  12.566  25.644  0.00  0.00    +0.000 N 
ATOM     22  HE  ARG A   2       8.721  14.168  23.970  0.00  0.00    +0.000 HD
ATOM     23  HH1 ARG A   2       7.434  11.174  23.130  0.00  0.00    +0.000 HD
ATOM     24 HH21 ARG A   2       9.625  12.884  25.709  0.00  0.00    +0.000 HD
ATOM     25 HH22 ARG A   2       8.521  11.745  26.223  0.00  0.00    +0.000 HD
ENDBRANCH  17  18
ENDBRANCH  16  17
ENDBRANCH  15  16
ENDBRANCH  10  15
ENDBRANCH   8  10
ENDBRANCH   3   6
BRANCH   1  26
ATOM     26  C   UNK A   1       6.330   5.184  16.671  0.00  0.00    +0.000 C 
BRANCH  26  27
ATOM     27  N   UNK A   1       5.028   5.107  17.323  0.00  0.00    +0.000 N 
ATOM     28  C   UNK A   1       4.832   4.377  18.473  0.00  0.00    +0.000 C 
ATOM     29  O   UNK A   1       5.741   3.799  19.064  0.00  0.00    +0.000 OA
ATOM     30  H   UNK A   1       4.236   5.461  16.808  0.00  0.00    +0.000 HD
BRANCH  28  31
ATOM     31  C   UNK A   1       3.423   4.261  18.958  0.00  0.00    +0.000 A 
ATOM     32  C   UNK A   1       3.086   4.860  20.182  0.00  0.00    +0.000 A 
ATOM     33  C   UNK A   1       1.788   4.749  20.687  0.00  0.00    +0.000 A 
ATOM     34  C   UNK A   1       0.818   4.046  19.973  0.00  0.00    +0.000 A 
ATOM     35  C   UNK A   1       1.139   3.466  18.748  0.00  0.00    +0.000 A 
ATOM     36  C   UNK A   1       2.433   3.578  18.238  0.00  0.00    +0.000 A 
ENDBRANCH  28  31
ENDBRANCH  26  27
BRANCH  26  37
ATOM     37  C   UNK A   1       6.249   5.242  15.114  0.00  0.00    +0.000 C 
ATOM     38  C   UNK A   1       5.199   4.239  14.601  0.00  0.00    +0.000 C 
BRANCH  37  40
ATOM     39  C   UNK A   1       7.401   5.019  12.788  0.00  0.00    +0.000 C 
ATOM     40  C   UNK A   1       7.554   5.050  14.300  0.00  0.00    +0.000 C 
ENDBRANCH  37  40
ENDBRANCH  26  37
ENDBRANCH   1  26
TORSDOF 13
ENDMDL
MODEL 5
REMARK VINA RESULT:      -7.4      3.460      5.331
REMARK  Name = 
REMARK  15 active torsions:
REMARK  status: ('A' for Active; 'I' for Inactive)
REMARK    1  A    between atoms: C_1  and  C_2
REMARK    2  A    between atoms: C_2  and  C_3
REMARK    3  A    between atoms: C_3  and  C_4
REMARK    4  A    between atoms: C_3  and  C_5
REMARK    5  A    between atoms: C_5  and  N_6
REMARK    6  A    between atoms: C_5  and  C_15
REMARK    7  A    between atoms: C_7  and  C_9
REMARK    8  A    between atoms: C_17  and  C_18
REMARK    9  A    between atoms: N_20  and  CA_21
REMARK   10  A    between atoms: CA_21  and  CB_22
REMARK   11  A    between atoms: CA_21  and  C_29
REMARK   12  A    between atoms: CB_22  and  CG_23
REMARK   13  A    between atoms: CG_23  and  CD_24
REMARK   14  A    between atoms: CD_24  and  NE_25
REMARK   15  A    between atoms: C_29  and  OXT_31
REMARK                            x       y       z     vdW  Elec       q    Type
REMARK                         _______ _______ _______ _____ _____    ______ ____
ROOT
ATOM      1  C   UNK A   1       1.351   9.918  19.357  0.00  0.00    +0.000 A 
ATOM      2  N   UNK A   1       1.728   8.818  19.987  0.00  0.00    +0.000 NA
ATOM      3  C   UNK A   1       2.144   7.974  18.969  0.00  0.00    +0.000 A 
ATOM      4  C   UNK A   1       2.048   8.633  17.767  0.00  0.00    +0.000 A 
ATOM      5  O   UNK A   1       1.579   9.884  18.006  0.00  0.00    +0.000 OA
ENDROOT
BRANCH   3   6
ATOM      6  C   UNK A   1       2.608   6.609  19.160  0.00  0.00    +0.000 C 
ATOM      7  O   UNK A   1       2.142   5.856  20.009  0.00  0.00    +0.000 OA
ATOM      8  N   ARG A   2       3.602   6.241  18.294  0.00  0.00    +0.000 N 
ATOM      9  H   ARG A   2       3.961   6.952  17.656  0.00  0.00    +0.000 HD
BRANCH   8  10
ATOM     10  CA  ARG A   2       4.179   4.904  18.269  0.00  0.00    +0.000 C 
BRANCH  10  11
ATOM     11  C   ARG A   2       5.683   5.001  17.981  0.00  0.00    +0.000 C 
ATOM     12  O   ARG A   2       6.187   5.836  17.238  0.00  0.00    +0.000 OA
BRANCH  11  13
ATOM     13  OXT ARG A   2       6.432   4.065  18.610  0.00  0.00    +0.000 OA
ATOM     14  HXT ARG A   2       6.942   3.473  18.025  0.00  0.00    +0.000 HD
ENDBRANCH  11  13
ENDBRANCH  10  11
BRANCH  10  15
ATOM     15  CB  ARG A   2       3.453   4.010  17.251  0.00  0.00    +0.000 C 
BRANCH  15  16
ATOM     16  CG  ARG A   2       3.372   2.545  17.696  0.00  0.00    +0.000 C 
BRANCH  16  17
ATOM     17  CD  ARG A   2       2.024   2.212  18.330  0.00  0.00    +0.000 C 
BRANCH  17  18
ATOM     18  NE  ARG A   2       2.191   2.084  19.763  0.00  0.00    +0.000 N 
ATOM     19  CZ  ARG A   2       1.471   2.768  20.676  0.00  0.00    +0.000 C 
ATOM     20  NH1 ARG A   2       0.480   3.554  20.482  0.00  0.00    +0.000 NA
ATOM     21  NH2 ARG A   2       1.901   2.526  21.927  0.00  0.00    +0.000 N 
ATOM     22  HE  ARG A   2       3.154   1.958  20.062  0.00  0.00    +0.000 HD
ATOM     23  HH1 ARG A   2       0.291   3.630  19.483  0.00  0.00    +0.000 HD
ATOM     24 HH21 ARG A   2       2.075   1.545  22.101  0.00  0.00    +0.000 HD
ATOM     25 HH22 ARG A   2       1.227   2.895  22.591  0.00  0.00    +0.000 HD
ENDBRANCH  17  18
ENDBRANCH  16  17
ENDBRANCH  15  16
ENDBRANCH  10  15
ENDBRANCH   8  10
ENDBRANCH   3   6
BRANCH   1  26
ATOM     26  C   UNK A   1       0.679  11.145  19.922  0.00  0.00    +0.000 C 
BRANCH  26  27
ATOM     27  N   UNK A   1       1.156  12.322  19.205  0.00  0.00    +0.000 N 
ATOM     28  C   UNK A   1       1.978  13.252  19.799  0.00  0.00    +0.000 C 
ATOM     29  O   UNK A   1       2.418  13.127  20.940  0.00  0.00    +0.000 OA
ATOM     30  H   UNK A   1       0.722  12.524  18.318  0.00  0.00    +0.000 HD
BRANCH  28  31
ATOM     31  C   UNK A   1       2.276  14.482  19.006  0.00  0.00    +0.000 A 
ATOM     32  C   UNK A   1       3.380  14.469  18.140  0.00  0.00    +0.000 A 
ATOM     33  C   UNK A   1       3.712  15.608  17.403  0.00  0.00    +0.000 A 
ATOM     34  C   UNK A   1       2.943  16.765  17.520  0.00  0.00    +0.000 A 
ATOM     35  C   UNK A   1       1.833  16.781  18.362  0.00  0.00    +0.000 A 
ATOM     36  C   UNK A   1       1.495  15.643  19.097  0.00  0.00    +0.000 A 
ENDBRANCH  28  31
ENDBRANCH  26  27
BRANCH  26  37
ATOM     37  C   UNK A   1      -0.876  11.057  20.021  0.00  0.00    +0.000 C 
ATOM     38  C   UNK A   1      -1.524  11.844  18.866  0.00  0.00    +0.000 C 
BRANCH  37  40
ATOM     39  C   UNK A   1      -0.716  12.328  22.290  0.00  0.00    +0.000 C 
ATOM     40  C   UNK A   1      -1.555  11.478  21.348  0.00  0.00    +0.000 C 
ENDBRANCH  37  40
ENDBRANCH  26  37
ENDBRANCH   1  26
TORSDOF 13
ENDMDL
MODEL 6
REMARK VINA RESULT:      -7.4      2.844      3.810
REMARK  Name = 
REMARK  15 active torsions:
REMARK  status: ('A' for Active; 'I' for Inactive)
REMARK    1  A    between atoms: C_1  and  C_2
REMARK    2  A    between atoms: C_2  and  C_3
REMARK    3  A    between atoms: C_3  and  C_4
REMARK    4  A    between atoms: C_3  and  C_5
REMARK    5  A    between atoms: C_5  and  N_6
REMARK    6  A    between atoms: C_5  and  C_15
REMARK    7  A    between atoms: C_7  and  C_9
REMARK    8  A    between atoms: C_17  and  C_18
REMARK    9  A    between atoms: N_20  and  CA_21
REMARK   10  A    between atoms: CA_21  and  CB_22
REMARK   11  A    between atoms: CA_21  and  C_29
REMARK   12  A    between atoms: CB_22  and  CG_23
REMARK   13  A    between atoms: CG_23  and  CD_24
REMARK   14  A    between atoms: CD_24  and  NE_25
REMARK   15  A    between atoms: C_29  and  OXT_31
REMARK                            x       y       z     vdW  Elec       q    Type
REMARK                         _______ _______ _______ _____ _____    ______ ____
ROOT
ATOM      1  C   UNK A   1       1.512   9.560  19.076  0.00  0.00    +0.000 A 
ATOM      2  N   UNK A   1       1.698   8.367  19.616  0.00  0.00    +0.000 NA
ATOM      3  C   UNK A   1       2.321   7.639  18.614  0.00  0.00    +0.000 A 
ATOM      4  C   UNK A   1       2.531   8.452  17.527  0.00  0.00    +0.000 A 
ATOM      5  O   UNK A   1       2.054   9.688  17.824  0.00  0.00    +0.000 OA
ENDROOT
BRANCH   3   6
ATOM      6  C   UNK A   1       2.688   6.235  18.714  0.00  0.00    +0.000 C 
ATOM      7  O   UNK A   1       2.135   5.451  19.479  0.00  0.00    +0.000 OA
ATOM      8  N   ARG A   2       3.698   5.871  17.865  0.00  0.00    +0.000 N 
ATOM      9  H   ARG A   2       4.131   6.604  17.303  0.00  0.00    +0.000 HD
BRANCH   8  10
ATOM     10  CA  ARG A   2       4.190   4.504  17.757  0.00  0.00    +0.000 C 
BRANCH  10  11
ATOM     11  C   ARG A   2       5.232   4.247  18.854  0.00  0.00    +0.000 C 
ATOM     12  O   ARG A   2       5.909   5.125  19.376  0.00  0.00    +0.000 OA
BRANCH  11  13
ATOM     13  OXT ARG A   2       5.363   2.946  19.204  0.00  0.00    +0.000 OA
ATOM     14  HXT ARG A   2       4.681   2.346  18.847  0.00  0.00    +0.000 HD
ENDBRANCH  11  13
ENDBRANCH  10  11
BRANCH  10  15
ATOM     15  CB  ARG A   2       4.752   4.229  16.353  0.00  0.00    +0.000 C 
BRANCH  15  16
ATOM     16  CG  ARG A   2       6.206   4.686  16.193  0.00  0.00    +0.000 C 
BRANCH  16  17
ATOM     17  CD  ARG A   2       6.740   4.421  14.788  0.00  0.00    +0.000 C 
BRANCH  17  18
ATOM     18  NE  ARG A   2       5.636   4.067  13.919  0.00  0.00    +0.000 N 
ATOM     19  CZ  ARG A   2       5.780   3.501  12.703  0.00  0.00    +0.000 C 
ATOM     20  NH1 ARG A   2       6.851   3.090  12.137  0.00  0.00    +0.000 NA
ATOM     21  NH2 ARG A   2       4.596   3.369  12.077  0.00  0.00    +0.000 N 
ATOM     22  HE  ARG A   2       4.862   4.724  13.939  0.00  0.00    +0.000 HD
ATOM     23  HH1 ARG A   2       7.651   3.271  12.742  0.00  0.00    +0.000 HD
ATOM     24 HH21 ARG A   2       3.868   3.014  12.681  0.00  0.00    +0.000 HD
ATOM     25 HH22 ARG A   2       4.711   2.773  11.263  0.00  0.00    +0.000 HD
ENDBRANCH  17  18
ENDBRANCH  16  17
ENDBRANCH  15  16
ENDBRANCH  10  15
ENDBRANCH   8  10
ENDBRANCH   3   6
BRANCH   1  26
ATOM     26  C   UNK A   1       0.759  10.741  19.636  0.00  0.00    +0.000 C 
BRANCH  26  27
ATOM     27  N   UNK A   1       1.277  11.964  19.035  0.00  0.00    +0.000 N 
ATOM     28  C   UNK A   1       1.815  12.978  19.796  0.00  0.00    +0.000 C 
ATOM     29  O   UNK A   1       1.955  12.899  21.014  0.00  0.00    +0.000 OA
ATOM     30  H   UNK A   1       1.069  12.121  18.062  0.00  0.00    +0.000 HD
BRANCH  28  31
ATOM     31  C   UNK A   1       2.175  14.235  19.074  0.00  0.00    +0.000 A 
ATOM     32  C   UNK A   1       3.328  14.240  18.275  0.00  0.00    +0.000 A 
ATOM     33  C   UNK A   1       3.719  15.403  17.608  0.00  0.00    +0.000 A 
ATOM     34  C   UNK A   1       2.959  16.566  17.727  0.00  0.00    +0.000 A 
ATOM     35  C   UNK A   1       1.801  16.565  18.503  0.00  0.00    +0.000 A 
ATOM     36  C   UNK A   1       1.406  15.403  19.168  0.00  0.00    +0.000 A 
ENDBRANCH  28  31
ENDBRANCH  26  27
BRANCH  26  37
ATOM     37  C   UNK A   1      -0.796  10.621  19.573  0.00  0.00    +0.000 C 
ATOM     38  C   UNK A   1      -1.246  10.350  18.125  0.00  0.00    +0.000 C 
BRANCH  37  40
ATOM     39  C   UNK A   1      -1.449  12.089  21.624  0.00  0.00    +0.000 C 
ATOM     40  C   UNK A   1      -1.649  11.779  20.148  0.00  0.00    +0.000 C 
ENDBRANCH  37  40
ENDBRANCH  26  37
ENDBRANCH   1  26
TORSDOF 13
ENDMDL
MODEL 7
REMARK VINA RESULT:      -7.4      3.459      5.241
REMARK  Name = 
REMARK  15 active torsions:
REMARK  status: ('A' for Active; 'I' for Inactive)
REMARK    1  A    between atoms: C_1  and  C_2
REMARK    2  A    between atoms: C_2  and  C_3
REMARK    3  A    between atoms: C_3  and  C_4
REMARK    4  A    between atoms: C_3  and  C_5
REMARK    5  A    between atoms: C_5  and  N_6
REMARK    6  A    between atoms: C_5  and  C_15
REMARK    7  A    between atoms: C_7  and  C_9
REMARK    8  A    between atoms: C_17  and  C_18
REMARK    9  A    between atoms: N_20  and  CA_21
REMARK   10  A    between atoms: CA_21  and  CB_22
REMARK   11  A    between atoms: CA_21  and  C_29
REMARK   12  A    between atoms: CB_22  and  CG_23
REMARK   13  A    between atoms: CG_23  and  CD_24
REMARK   14  A    between atoms: CD_24  and  NE_25
REMARK   15  A    between atoms: C_29  and  OXT_31
REMARK                            x       y       z     vdW  Elec       q    Type
REMARK                         _______ _______ _______ _____ _____    ______ ____
ROOT
ATOM      1  C   UNK A   1       1.413   9.752  19.325  0.00  0.00    +0.000 A 
ATOM      2  N   UNK A   1       1.685   8.621  19.952  0.00  0.00    +0.000 NA
ATOM      3  C   UNK A   1       2.171   7.792  18.953  0.00  0.00    +0.000 A 
ATOM      4  C   UNK A   1       2.220   8.489  17.771  0.00  0.00    +0.000 A 
ATOM      5  O   UNK A   1       1.774   9.750  18.004  0.00  0.00    +0.000 OA
ENDROOT
BRANCH   3   6
ATOM      6  C   UNK A   1       2.563   6.404  19.144  0.00  0.00    +0.000 C 
ATOM      7  O   UNK A   1       2.013   5.656  19.946  0.00  0.00    +0.000 OA
ATOM      8  N   ARG A   2       3.594   6.010  18.333  0.00  0.00    +0.000 N 
ATOM      9  H   ARG A   2       4.022   6.716  17.734  0.00  0.00    +0.000 HD
BRANCH   8  10
ATOM     10  CA  ARG A   2       4.114   4.650  18.316  0.00  0.00    +0.000 C 
BRANCH  10  11
ATOM     11  C   ARG A   2       5.511   4.644  17.679  0.00  0.00    +0.000 C 
ATOM     12  O   ARG A   2       5.752   5.059  16.551  0.00  0.00    +0.000 OA
BRANCH  11  13
ATOM     13  OXT ARG A   2       6.479   4.121  18.467  0.00  0.00    +0.000 OA
ATOM     14  HXT ARG A   2       6.482   4.434  19.391  0.00  0.00    +0.000 HD
ENDBRANCH  11  13
ENDBRANCH  10  11
BRANCH  10  15
ATOM     15  CB  ARG A   2       3.147   3.699  17.592  0.00  0.00    +0.000 C 
BRANCH  15  16
ATOM     16  CG  ARG A   2       3.598   2.235  17.647  0.00  0.00    +0.000 C 
BRANCH  16  17
ATOM     17  CD  ARG A   2       3.246   1.576  18.978  0.00  0.00    +0.000 C 
BRANCH  17  18
ATOM     18  NE  ARG A   2       2.095   2.244  19.550  0.00  0.00    +0.000 N 
ATOM     19  CZ  ARG A   2       1.977   2.568  20.854  0.00  0.00    +0.000 C 
ATOM     20  NH1 ARG A   2       2.845   2.451  21.787  0.00  0.00    +0.000 NA
ATOM     21  NH2 ARG A   2       0.768   3.092  21.125  0.00  0.00    +0.000 N 
ATOM     22  HE  ARG A   2       1.206   1.958  19.151  0.00  0.00    +0.000 HD
ATOM     23  HH1 ARG A   2       3.697   2.033  21.413  0.00  0.00    +0.000 HD
ATOM     24 HH21 ARG A   2       0.470   3.773  20.439  0.00  0.00    +0.000 HD
ATOM     25 HH22 ARG A   2       0.778   3.499  22.056  0.00  0.00    +0.000 HD
ENDBRANCH  17  18
ENDBRANCH  16  17
ENDBRANCH  15  16
ENDBRANCH  10  15
ENDBRANCH   8  10
ENDBRANCH   3   6
BRANCH   1  26
ATOM     26  C   UNK A   1       0.732  10.987  19.862  0.00  0.00    +0.000 C 
BRANCH  26  27
ATOM     27  N   UNK A   1       1.266  12.160  19.179  0.00  0.00    +0.000 N 
ATOM     28  C   UNK A   1       1.976  13.131  19.849  0.00  0.00    +0.000 C 
ATOM     29  O   UNK A   1       2.265  13.049  21.040  0.00  0.00    +0.000 OA
ATOM     30  H   UNK A   1       0.948  12.326  18.237  0.00  0.00    +0.000 HD
BRANCH  28  31
ATOM     31  C   UNK A   1       2.341  14.349  19.065  0.00  0.00    +0.000 A 
ATOM     32  C   UNK A   1       1.507  15.474  19.151  0.00  0.00    +0.000 A 
ATOM     33  C   UNK A   1       1.794  16.624  18.411  0.00  0.00    +0.000 A 
ATOM     34  C   UNK A   1       2.918  16.661  17.586  0.00  0.00    +0.000 A 
ATOM     35  C   UNK A   1       3.763  15.556  17.510  0.00  0.00    +0.000 A 
ATOM     36  C   UNK A   1       3.481  14.407  18.251  0.00  0.00    +0.000 A 
ENDBRANCH  28  31
ENDBRANCH  26  27
BRANCH  26  37
ATOM     37  C   UNK A   1      -0.827  10.925  19.876  0.00  0.00    +0.000 C 
ATOM     38  C   UNK A   1      -1.387  11.396  18.521  0.00  0.00    +0.000 C 
BRANCH  37  40
ATOM     39  C   UNK A   1      -0.891  11.707  22.360  0.00  0.00    +0.000 C 
ATOM     40  C   UNK A   1      -1.584  11.665  21.007  0.00  0.00    +0.000 C 
ENDBRANCH  37  40
ENDBRANCH  26  37
ENDBRANCH   1  26
TORSDOF 13
ENDMDL
MODEL 8
REMARK VINA RESULT:      -7.3      1.950      2.666
REMARK  Name = 
REMARK  15 active torsions:
REMARK  status: ('A' for Active; 'I' for Inactive)
REMARK    1  A    between atoms: C_1  and  C_2
REMARK    2  A    between atoms: C_2  and  C_3
REMARK    3  A    between atoms: C_3  and  C_4
REMARK    4  A    between atoms: C_3  and  C_5
REMARK    5  A    between atoms: C_5  and  N_6
REMARK    6  A    between atoms: C_5  and  C_15
REMARK    7  A    between atoms: C_7  and  C_9
REMARK    8  A    between atoms: C_17  and  C_18
REMARK    9  A    between atoms: N_20  and  CA_21
REMARK   10  A    between atoms: CA_21  and  CB_22
REMARK   11  A    between atoms: CA_21  and  C_29
REMARK   12  A    between atoms: CB_22  and  CG_23
REMARK   13  A    between atoms: CG_23  and  CD_24
REMARK   14  A    between atoms: CD_24  and  NE_25
REMARK   15  A    between atoms: C_29  and  OXT_31
REMARK                            x       y       z     vdW  Elec       q    Type
REMARK                         _______ _______ _______ _____ _____    ______ ____
ROOT
ATOM      1  C   UNK A   1       1.088   9.372  19.765  0.00  0.00    +0.000 A 
ATOM      2  N   UNK A   1       1.472   8.205  20.257  0.00  0.00    +0.000 NA
ATOM      3  C   UNK A   1       2.157   7.610  19.209  0.00  0.00    +0.000 A 
ATOM      4  C   UNK A   1       2.198   8.477  18.144  0.00  0.00    +0.000 A 
ATOM      5  O   UNK A   1       1.553   9.617  18.501  0.00  0.00    +0.000 OA
ENDROOT
BRANCH   3   6
ATOM      6  C   UNK A   1       2.734   6.274  19.246  0.00  0.00    +0.000 C 
ATOM      7  O   UNK A   1       2.708   5.562  20.244  0.00  0.00    +0.000 OA
ATOM      8  N   ARG A   2       3.295   5.887  18.059  0.00  0.00    +0.000 N 
ATOM      9  H   ARG A   2       3.313   6.568  17.299  0.00  0.00    +0.000 HD
BRANCH   8  10
ATOM     10  CA  ARG A   2       3.882   4.571  17.852  0.00  0.00    +0.000 C 
BRANCH  10  11
ATOM     11  C   ARG A   2       2.799   3.495  18.014  0.00  0.00    +0.000 C 
ATOM     12  O   ARG A   2       2.895   2.535  18.768  0.00  0.00    +0.000 OA
BRANCH  11  13
ATOM     13  OXT ARG A   2       1.709   3.681  17.232  0.00  0.00    +0.000 OA
ATOM     14  HXT ARG A   2       1.174   4.470  17.440  0.00  0.00    +0.000 HD
ENDBRANCH  11  13
ENDBRANCH  10  11
BRANCH  10  15
ATOM     15  CB  ARG A   2       5.069   4.341  18.802  0.00  0.00    +0.000 C 
BRANCH  15  16
ATOM     16  CG  ARG A   2       6.230   5.309  18.551  0.00  0.00    +0.000 C 
BRANCH  16  17
ATOM     17  CD  ARG A   2       7.404   4.628  17.851  0.00  0.00    +0.000 C 
BRANCH  17  18
ATOM     18  NE  ARG A   2       7.534   5.161  16.511  0.00  0.00    +0.000 N 
ATOM     19  CZ  ARG A   2       7.052   4.558  15.404  0.00  0.00    +0.000 C 
ATOM     20  NH1 ARG A   2       6.335   3.502  15.321  0.00  0.00    +0.000 NA
ATOM     21  NH2 ARG A   2       7.399   5.224  14.289  0.00  0.00    +0.000 N 
ATOM     22  HE  ARG A   2       8.419   5.626  16.331  0.00  0.00    +0.000 HD
ATOM     23  HH1 ARG A   2       6.172   3.122  16.252  0.00  0.00    +0.000 HD
ATOM     24 HH21 ARG A   2       7.278   6.225  14.373  0.00  0.00    +0.000 HD
ATOM     25 HH22 ARG A   2       6.868   4.863  13.502  0.00  0.00    +0.000 HD
ENDBRANCH  17  18
ENDBRANCH  16  17
ENDBRANCH  15  16
ENDBRANCH  10  15
ENDBRANCH   8  10
ENDBRANCH   3   6
BRANCH   1  26
ATOM     26  C   UNK A   1       0.189  10.408  20.394  0.00  0.00    +0.000 C 
BRANCH  26  27
ATOM     27  N   UNK A   1      -1.055  10.480  19.637  0.00  0.00    +0.000 N 
ATOM     28  C   UNK A   1      -1.430  11.618  18.959  0.00  0.00    +0.000 C 
ATOM     29  O   UNK A   1      -0.723  12.620  18.889  0.00  0.00    +0.000 OA
ATOM     30  H   UNK A   1      -1.716   9.731  19.771  0.00  0.00    +0.000 HD
BRANCH  28  31
ATOM     31  C   UNK A   1      -2.792  11.611  18.346  0.00  0.00    +0.000 A 
ATOM     32  C   UNK A   1      -2.921  11.213  17.007  0.00  0.00    +0.000 A 
ATOM     33  C   UNK A   1      -4.172  11.222  16.385  0.00  0.00    +0.000 A 
ATOM     34  C   UNK A   1      -5.303  11.621  17.097  0.00  0.00    +0.000 A 
ATOM     35  C   UNK A   1      -5.188  11.998  18.433  0.00  0.00    +0.000 A 
ATOM     36  C   UNK A   1      -3.940  11.986  19.059  0.00  0.00    +0.000 A 
ENDBRANCH  28  31
ENDBRANCH  26  27
BRANCH  26  37
ATOM     37  C   UNK A   1      -0.020  10.253  21.932  0.00  0.00    +0.000 C 
ATOM     38  C   UNK A   1      -0.508   8.828  22.258  0.00  0.00    +0.000 C 
BRANCH  37  40
ATOM     39  C   UNK A   1      -0.636  12.738  22.411  0.00  0.00    +0.000 C 
ATOM     40  C   UNK A   1      -0.938  11.268  22.658  0.00  0.00    +0.000 C 
ENDBRANCH  37  40
ENDBRANCH  26  37
ENDBRANCH   1  26
TORSDOF 13
ENDMDL
MODEL 9
REMARK VINA RESULT:      -7.3      6.523      9.233
REMARK  Name = 
REMARK  15 active torsions:
REMARK  status: ('A' for Active; 'I' for Inactive)
REMARK    1  A    between atoms: C_1  and  C_2
REMARK    2  A    between atoms: C_2  and  C_3
REMARK    3  A    between atoms: C_3  and  C_4
REMARK    4  A    between atoms: C_3  and  C_5
REMARK    5  A    between atoms: C_5  and  N_6
REMARK    6  A    between atoms: C_5  and  C_15
REMARK    7  A    between atoms: C_7  and  C_9
REMARK    8  A    between atoms: C_17  and  C_18
REMARK    9  A    between atoms: N_20  and  CA_21
REMARK   10  A    between atoms: CA_21  and  CB_22
REMARK   11  A    between atoms: CA_21  and  C_29
REMARK   12  A    between atoms: CB_22  and  CG_23
REMARK   13  A    between atoms: CG_23  and  CD_24
REMARK   14  A    between atoms: CD_24  and  NE_25
REMARK   15  A    between atoms: C_29  and  OXT_31
REMARK                            x       y       z     vdW  Elec       q    Type
REMARK                         _______ _______ _______ _____ _____    ______ ____
ROOT
ATOM      1  C   UNK A   1       9.158  10.927  18.523  0.00  0.00    +0.000 A 
ATOM      2  N   UNK A   1       9.260   9.646  18.837  0.00  0.00    +0.000 NA
ATOM      3  C   UNK A   1       8.238   9.044  18.121  0.00  0.00    +0.000 A 
ATOM      4  C   UNK A   1       7.597   9.992  17.361  0.00  0.00    +0.000 A 
ATOM      5  O   UNK A   1       8.199  11.189  17.581  0.00  0.00    +0.000 OA
ENDROOT
BRANCH   3   6
ATOM      6  C   UNK A   1       7.907   7.628  18.176  0.00  0.00    +0.000 C 
ATOM      7  O   UNK A   1       8.393   6.859  18.999  0.00  0.00    +0.000 OA
ATOM      8  N   ARG A   2       6.994   7.241  17.232  0.00  0.00    +0.000 N 
ATOM      9  H   ARG A   2       6.685   7.942  16.558  0.00  0.00    +0.000 HD
BRANCH   8  10
ATOM     10  CA  ARG A   2       6.478   5.883  17.138  0.00  0.00    +0.000 C 
BRANCH  10  11
ATOM     11  C   ARG A   2       7.380   5.056  16.211  0.00  0.00    +0.000 C 
ATOM     12  O   ARG A   2       7.574   5.319  15.030  0.00  0.00    +0.000 OA
BRANCH  11  13
ATOM     13  OXT ARG A   2       7.949   3.980  16.803  0.00  0.00    +0.000 OA
ATOM     14  HXT ARG A   2       7.332   3.377  17.259  0.00  0.00    +0.000 HD
ENDBRANCH  11  13
ENDBRANCH  10  11
BRANCH  10  15
ATOM     15  CB  ARG A   2       5.014   5.880  16.669  0.00  0.00    +0.000 C 
BRANCH  15  16
ATOM     16  CG  ARG A   2       4.567   4.521  16.120  0.00  0.00    +0.000 C 
BRANCH  16  17
ATOM     17  CD  ARG A   2       3.599   3.811  17.063  0.00  0.00    +0.000 C 
BRANCH  17  18
ATOM     18  NE  ARG A   2       4.353   2.994  17.992  0.00  0.00    +0.000 N 
ATOM     19  CZ  ARG A   2       4.147   2.974  19.325  0.00  0.00    +0.000 C 
ATOM     20  NH1 ARG A   2       3.232   3.562  19.999  0.00  0.00    +0.000 NA
ATOM     21  NH2 ARG A   2       5.051   2.200  19.952  0.00  0.00    +0.000 N 
ATOM     22  HE  ARG A   2       5.338   2.901  17.762  0.00  0.00    +0.000 HD
ATOM     23  HH1 ARG A   2       2.641   4.108  19.373  0.00  0.00    +0.000 HD
ATOM     24 HH21 ARG A   2       5.207   1.317  19.485  0.00  0.00    +0.000 HD
ATOM     25 HH22 ARG A   2       4.757   2.051  20.913  0.00  0.00    +0.000 HD
ENDBRANCH  17  18
ENDBRANCH  16  17
ENDBRANCH  15  16
ENDBRANCH  10  15
ENDBRANCH   8  10
ENDBRANCH   3   6
BRANCH   1  26
ATOM     26  C   UNK A   1       9.915  12.100  19.096  0.00  0.00    +0.000 C 
BRANCH  26  27
ATOM     27  N   UNK A   1       9.599  12.222  20.515  0.00  0.00    +0.000 N 
ATOM     28  C   UNK A   1       8.901  13.299  21.014  0.00  0.00    +0.000 C 
ATOM     29  O   UNK A   1       8.442  14.189  20.303  0.00  0.00    +0.000 OA
ATOM     30  H   UNK A   1      10.061  11.584  21.143  0.00  0.00    +0.000 HD
BRANCH  28  31
ATOM     31  C   UNK A   1       8.771  13.377  22.500  0.00  0.00    +0.000 A 
ATOM     32  C   UNK A   1       8.599  12.185  23.220  0.00  0.00    +0.000 A 
ATOM     33  C   UNK A   1       8.441  12.215  24.608  0.00  0.00    +0.000 A 
ATOM     34  C   UNK A   1       8.461  13.433  25.287  0.00  0.00    +0.000 A 
ATOM     35  C   UNK A   1       8.652  14.620  24.582  0.00  0.00    +0.000 A 
ATOM     36  C   UNK A   1       8.813  14.593  23.197  0.00  0.00    +0.000 A 
ENDBRANCH  28  31
ENDBRANCH  26  27
BRANCH  26  37
ATOM     37  C   UNK A   1      11.445  12.109  18.791  0.00  0.00    +0.000 C 
ATOM     38  C   UNK A   1      12.246  11.941  20.096  0.00  0.00    +0.000 C 
BRANCH  37  40
ATOM     39  C   UNK A   1      11.557  13.458  16.565  0.00  0.00    +0.000 C 
ATOM     40  C   UNK A   1      12.033  13.305  18.001  0.00  0.00    +0.000 C 
ENDBRANCH  37  40
ENDBRANCH  26  37
ENDBRANCH   1  26
TORSDOF 13
ENDMDL
