MODEL 1
REMARK VINA RESULT:      -9.1      0.000      0.000
REMARK  Name = 
REMARK  3 active torsions:
REMARK  status: ('A' for Active; 'I' for Inactive)
REMARK    1  A    between atoms: C_2  and  C_4
REMARK    2  A    between atoms: C_14  and  O_15
REMARK    3  A    between atoms: O_15  and  C_16
REMARK                            x       y       z     vdW  Elec       q    Type
REMARK                         _______ _______ _______ _____ _____    ______ ____
ROOT
ATOM      1  C   UNL     1       2.516   2.811  19.550  0.00  0.00    +0.000 A 
ATOM      2  N   UNL     1       2.914   1.664  19.018  0.00  0.00    +0.000 NA
ATOM      3  N   UNL     1       3.685   1.943  17.916  0.00  0.00    +0.000 NA
ATOM      4  C   UNL     1       3.741   3.251  17.799  0.00  0.00    +0.000 A 
ATOM      5  C   UNL     1       4.454   4.071  16.847  0.00  0.00    +0.000 A 
ATOM      6  C   UNL     1       5.224   3.527  15.816  0.00  0.00    +0.000 A 
ATOM      7  C   UNL     1       5.955   4.373  14.981  0.00  0.00    +0.000 A 
ATOM      8  C   UNL     1       5.936   5.753  15.193  0.00  0.00    +0.000 A 
ATOM      9  C   UNL     1       5.151   6.303  16.213  0.00  0.00    +0.000 A 
ATOM     10  C   UNL     1       4.384   5.461  17.024  0.00  0.00    +0.000 A 
ATOM     11  C   UNL     1       3.500   5.937  18.129  0.00  0.00    +0.000 A 
ATOM     12  N   UNL     1       2.863   5.203  18.993  0.00  0.00    +0.000 NA
ATOM     13  N   UNL     1       3.019   3.854  18.809  0.00  0.00    +0.000 N 
ENDROOT
BRANCH   1  15
ATOM     14  N   UNL     1       0.493   3.544  20.514  0.00  0.00    +0.000 N 
ATOM     15  C   UNL     1       1.684   2.897  20.720  0.00  0.00    +0.000 C 
ATOM     16  O   UNL     1       1.944   2.451  21.830  0.00  0.00    +0.000 OA
ATOM     17  H   UNL     1      -0.148   3.639  21.287  0.00  0.00    +0.000 HD
ATOM     18  H   UNL     1       0.252   3.905  19.599  0.00  0.00    +0.000 HD
ENDBRANCH   1  15
BRANCH  11  19
ATOM     19  O   UNL     1       3.396   7.321  18.090  0.00  0.00    +0.000 OA
BRANCH  19  20
ATOM     20  C   UNL     1       2.270   8.007  18.604  0.00  0.00    +0.000 A 
ATOM     21  C   UNL     1       1.602   8.882  17.745  0.00  0.00    +0.000 A 
ATOM     22  C   UNL     1       0.654   9.768  18.266  0.00  0.00    +0.000 A 
ATOM     23  C   UNL     1       0.392   9.780  19.638  0.00  0.00    +0.000 A 
ATOM     24  C   UNL     1       1.048   8.877  20.478  0.00  0.00    +0.000 A 
ATOM     25 CL   UNL     1       0.747   8.920  22.173  0.00  0.00    +0.000 Cl
ATOM     26  C   UNL     1       1.985   7.982  19.968  0.00  0.00    +0.000 A 
ENDBRANCH  19  20
ENDBRANCH  11  19
TORSDOF 3
ENDMDL
MODEL 2
REMARK VINA RESULT:      -9.0      1.426      1.426
REMARK  Name = 
REMARK  3 active torsions:
REMARK  status: ('A' for Active; 'I' for Inactive)
REMARK    1  A    between atoms: C_2  and  C_4
REMARK    2  A    between atoms: C_14  and  O_15
REMARK    3  A    between atoms: O_15  and  C_16
REMARK                            x       y       z     vdW  Elec       q    Type
REMARK                         _______ _______ _______ _____ _____    ______ ____
ROOT
ATOM      1  C   UNL     1       2.900   3.119  20.414  0.00  0.00    +0.000 A 
ATOM      2  N   UNL     1       3.911   2.273  20.562  0.00  0.00    +0.000 NA
ATOM      3  N   UNL     1       4.983   2.753  19.850  0.00  0.00    +0.000 NA
ATOM      4  C   UNL     1       4.605   3.878  19.284  0.00  0.00    +0.000 A 
ATOM      5  C   UNL     1       5.354   4.808  18.471  0.00  0.00    +0.000 A 
ATOM      6  C   UNL     1       6.691   4.597  18.127  0.00  0.00    +0.000 A 
ATOM      7  C   UNL     1       7.382   5.574  17.409  0.00  0.00    +0.000 A 
ATOM      8  C   UNL     1       6.744   6.767  17.059  0.00  0.00    +0.000 A 
ATOM      9  C   UNL     1       5.399   6.974  17.386  0.00  0.00    +0.000 A 
ATOM     10  C   UNL     1       4.693   5.978  18.068  0.00  0.00    +0.000 A 
ATOM     11  C   UNL     1       3.254   6.083  18.453  0.00  0.00    +0.000 A 
ATOM     12  N   UNL     1       2.579   5.253  19.191  0.00  0.00    +0.000 NA
ATOM     13  N   UNL     1       3.294   4.161  19.608  0.00  0.00    +0.000 N 
ENDROOT
BRANCH   1  15
ATOM     14  N   UNL     1       0.554   3.201  20.190  0.00  0.00    +0.000 N 
ATOM     15  C   UNL     1       1.611   2.928  21.021  0.00  0.00    +0.000 C 
ATOM     16  O   UNL     1       1.395   2.552  22.166  0.00  0.00    +0.000 OA
ATOM     17  H   UNL     1      -0.384   3.084  20.542  0.00  0.00    +0.000 HD
ATOM     18  H   UNL     1       0.711   3.497  19.234  0.00  0.00    +0.000 HD
ENDBRANCH   1  15
BRANCH  11  19
ATOM     19  O   UNL     1       2.685   7.202  17.860  0.00  0.00    +0.000 OA
BRANCH  19  20
ATOM     20  C   UNL     1       1.889   8.118  18.587  0.00  0.00    +0.000 A 
ATOM     21  C   UNL     1       1.387   9.224  17.899  0.00  0.00    +0.000 A 
ATOM     22  C   UNL     1       0.818  10.281  18.614  0.00  0.00    +0.000 A 
ATOM     23  C   UNL     1       0.767  10.229  20.010  0.00  0.00    +0.000 A 
ATOM     24  C   UNL     1       1.247   9.102  20.681  0.00  0.00    +0.000 A 
ATOM     25 CL   UNL     1       1.215   9.059  22.401  0.00  0.00    +0.000 Cl
ATOM     26  C   UNL     1       1.805   8.038  19.976  0.00  0.00    +0.000 A 
ENDBRANCH  19  20
ENDBRANCH  11  19
TORSDOF 3
ENDMDL
MODEL 3
REMARK VINA RESULT:      -9.0      1.696      1.962
REMARK  Name = 
REMARK  3 active torsions:
REMARK  status: ('A' for Active; 'I' for Inactive)
REMARK    1  A    between atoms: C_2  and  C_4
REMARK    2  A    between atoms: C_14  and  O_15
REMARK    3  A    between atoms: O_15  and  C_16
REMARK                            x       y       z     vdW  Elec       q    Type
REMARK                         _______ _______ _______ _____ _____    ______ ____
ROOT
ATOM      1  C   UNL     1       2.876   3.087  20.440  0.00  0.00    +0.000 A 
ATOM      2  N   UNL     1       3.893   2.240  20.518  0.00  0.00    +0.000 NA
ATOM      3  N   UNL     1       4.932   2.743  19.775  0.00  0.00    +0.000 NA
ATOM      4  C   UNL     1       4.528   3.883  19.259  0.00  0.00    +0.000 A 
ATOM      5  C   UNL     1       5.238   4.840  18.443  0.00  0.00    +0.000 A 
ATOM      6  C   UNL     1       6.560   4.643  18.033  0.00  0.00    +0.000 A 
ATOM      7  C   UNL     1       7.216   5.642  17.315  0.00  0.00    +0.000 A 
ATOM      8  C   UNL     1       6.562   6.843  17.029  0.00  0.00    +0.000 A 
ATOM      9  C   UNL     1       5.232   7.037  17.422  0.00  0.00    +0.000 A 
ATOM     10  C   UNL     1       4.559   6.019  18.104  0.00  0.00    +0.000 A 
ATOM     11  C   UNL     1       3.138   6.109  18.555  0.00  0.00    +0.000 A 
ATOM     12  N   UNL     1       2.497   5.255  19.298  0.00  0.00    +0.000 NA
ATOM     13  N   UNL     1       3.232   4.153  19.650  0.00  0.00    +0.000 N 
ENDROOT
BRANCH   1  15
ATOM     14  N   UNL     1       0.522   3.140  20.314  0.00  0.00    +0.000 N 
ATOM     15  C   UNL     1       1.615   2.874  21.098  0.00  0.00    +0.000 C 
ATOM     16  O   UNL     1       1.451   2.486  22.247  0.00  0.00    +0.000 OA
ATOM     17  H   UNL     1      -0.399   3.008  20.703  0.00  0.00    +0.000 HD
ATOM     18  H   UNL     1       0.636   3.445  19.355  0.00  0.00    +0.000 HD
ENDBRANCH   1  15
BRANCH  11  19
ATOM     19  O   UNL     1       2.542   7.243  18.021  0.00  0.00    +0.000 OA
BRANCH  19  20
ATOM     20  C   UNL     1       1.933   8.227  18.835  0.00  0.00    +0.000 A 
ATOM     21  C   UNL     1       1.870   7.980  20.208  0.00  0.00    +0.000 A 
ATOM     22  C   UNL     1       1.063   8.784  21.017  0.00  0.00    +0.000 A 
ATOM     23  C   UNL     1       0.317   9.819  20.447  0.00  0.00    +0.000 A 
ATOM     24  C   UNL     1       0.414  10.071  19.076  0.00  0.00    +0.000 A 
ATOM     25 CL   UNL     1      -0.534  11.324  18.373  0.00  0.00    +0.000 Cl
ATOM     26  C   UNL     1       1.226   9.283  18.263  0.00  0.00    +0.000 A 
ENDBRANCH  19  20
ENDBRANCH  11  19
TORSDOF 3
ENDMDL
MODEL 4
REMARK VINA RESULT:      -9.0      2.860      4.486
REMARK  Name = 
REMARK  3 active torsions:
REMARK  status: ('A' for Active; 'I' for Inactive)
REMARK    1  A    between atoms: C_2  and  C_4
REMARK    2  A    between atoms: C_14  and  O_15
REMARK    3  A    between atoms: O_15  and  C_16
REMARK                            x       y       z     vdW  Elec       q    Type
REMARK                         _______ _______ _______ _____ _____    ______ ____
ROOT
ATOM      1  C   UNL     1       6.952   6.082  18.113  0.00  0.00    +0.000 A 
ATOM      2  N   UNL     1       7.514   4.909  18.375  0.00  0.00    +0.000 NA
ATOM      3  N   UNL     1       6.517   3.979  18.532  0.00  0.00    +0.000 NA
ATOM      4  C   UNL     1       5.370   4.601  18.363  0.00  0.00    +0.000 A 
ATOM      5  C   UNL     1       4.021   4.085  18.373  0.00  0.00    +0.000 A 
ATOM      6  C   UNL     1       3.733   2.739  18.613  0.00  0.00    +0.000 A 
ATOM      7  C   UNL     1       2.416   2.289  18.526  0.00  0.00    +0.000 A 
ATOM      8  C   UNL     1       1.395   3.176  18.176  0.00  0.00    +0.000 A 
ATOM      9  C   UNL     1       1.676   4.528  17.953  0.00  0.00    +0.000 A 
ATOM     10  C   UNL     1       2.990   4.990  18.082  0.00  0.00    +0.000 A 
ATOM     11  C   UNL     1       3.403   6.411  17.883  0.00  0.00    +0.000 A 
ATOM     12  N   UNL     1       4.617   6.878  17.865  0.00  0.00    +0.000 NA
ATOM     13  N   UNL     1       5.585   5.937  18.093  0.00  0.00    +0.000 N 
ENDROOT
BRANCH   1  15
ATOM     14  N   UNL     1       8.565   7.605  18.913  0.00  0.00    +0.000 N 
ATOM     15  C   UNL     1       7.702   7.289  17.895  0.00  0.00    +0.000 C 
ATOM     16  O   UNL     1       7.636   8.018  16.914  0.00  0.00    +0.000 OA
ATOM     17  H   UNL     1       9.131   8.435  18.831  0.00  0.00    +0.000 HD
ATOM     18  H   UNL     1       8.647   7.005  19.726  0.00  0.00    +0.000 HD
ENDBRANCH   1  15
BRANCH  11  19
ATOM     19  O   UNL     1       2.280   7.219  17.763  0.00  0.00    +0.000 OA
BRANCH  19  20
ATOM     20  C   UNL     1       1.937   8.183  18.740  0.00  0.00    +0.000 A 
ATOM     21  C   UNL     1       1.834   7.749  20.064  0.00  0.00    +0.000 A 
ATOM     22  C   UNL     1       1.255   8.587  21.021  0.00  0.00    +0.000 A 
ATOM     23  C   UNL     1       0.774   9.844  20.645  0.00  0.00    +0.000 A 
ATOM     24  C   UNL     1       0.912  10.273  19.323  0.00  0.00    +0.000 A 
ATOM     25 CL   UNL     1       0.285  11.808  18.858  0.00  0.00    +0.000 Cl
ATOM     26  C   UNL     1       1.499   9.451  18.365  0.00  0.00    +0.000 A 
ENDBRANCH  19  20
ENDBRANCH  11  19
TORSDOF 3
ENDMDL
MODEL 5
REMARK VINA RESULT:      -8.7      1.180      1.202
REMARK  Name = 
REMARK  3 active torsions:
REMARK  status: ('A' for Active; 'I' for Inactive)
REMARK    1  A    between atoms: C_2  and  C_4
REMARK    2  A    between atoms: C_14  and  O_15
REMARK    3  A    between atoms: O_15  and  C_16
REMARK                            x       y       z     vdW  Elec       q    Type
REMARK                         _______ _______ _______ _____ _____    ______ ____
ROOT
ATOM      1  C   UNL     1       2.172   3.006  18.568  0.00  0.00    +0.000 A 
ATOM      2  N   UNL     1       2.880   1.937  18.228  0.00  0.00    +0.000 NA
ATOM      3  N   UNL     1       4.062   2.361  17.674  0.00  0.00    +0.000 NA
ATOM      4  C   UNL     1       4.052   3.676  17.687  0.00  0.00    +0.000 A 
ATOM      5  C   UNL     1       5.064   4.619  17.270  0.00  0.00    +0.000 A 
ATOM      6  C   UNL     1       6.285   4.218  16.722  0.00  0.00    +0.000 A 
ATOM      7  C   UNL     1       7.252   5.175  16.417  0.00  0.00    +0.000 A 
ATOM      8  C   UNL     1       7.009   6.525  16.682  0.00  0.00    +0.000 A 
ATOM      9  C   UNL     1       5.780   6.933  17.214  0.00  0.00    +0.000 A 
ATOM     10  C   UNL     1       4.793   5.979  17.480  0.00  0.00    +0.000 A 
ATOM     11  C   UNL     1       3.443   6.300  18.031  0.00  0.00    +0.000 A 
ATOM     12  N   UNL     1       2.533   5.455  18.415  0.00  0.00    +0.000 NA
ATOM     13  N   UNL     1       2.878   4.140  18.245  0.00  0.00    +0.000 N 
ENDROOT
BRANCH   1  15
ATOM     14  N   UNL     1       0.705   3.777  20.245  0.00  0.00    +0.000 N 
ATOM     15  C   UNL     1       0.871   2.935  19.175  0.00  0.00    +0.000 C 
ATOM     16  O   UNL     1      -0.058   2.219  18.822  0.00  0.00    +0.000 OA
ATOM     17  H   UNL     1      -0.185   3.789  20.720  0.00  0.00    +0.000 HD
ATOM     18  H   UNL     1       1.454   4.390  20.541  0.00  0.00    +0.000 HD
ENDBRANCH   1  15
BRANCH  11  19
ATOM     19  O   UNL     1       3.248   7.675  18.039  0.00  0.00    +0.000 OA
BRANCH  19  20
ATOM     20  C   UNL     1       2.101   8.271  18.614  0.00  0.00    +0.000 A 
ATOM     21  C   UNL     1       1.345   9.124  17.806  0.00  0.00    +0.000 A 
ATOM     22  C   UNL     1       0.363   9.930  18.387  0.00  0.00    +0.000 A 
ATOM     23  C   UNL     1       0.152   9.887  19.768  0.00  0.00    +0.000 A 
ATOM     24  C   UNL     1       0.897   9.006  20.556  0.00  0.00    +0.000 A 
ATOM     25 CL   UNL     1       0.659   8.982  22.260  0.00  0.00    +0.000 Cl
ATOM     26  C   UNL     1       1.870   8.189  19.985  0.00  0.00    +0.000 A 
ENDBRANCH  19  20
ENDBRANCH  11  19
TORSDOF 3
ENDMDL
MODEL 6
REMARK VINA RESULT:      -8.6      2.153      4.268
REMARK  Name = 
REMARK  3 active torsions:
REMARK  status: ('A' for Active; 'I' for Inactive)
REMARK    1  A    between atoms: C_2  and  C_4
REMARK    2  A    between atoms: C_14  and  O_15
REMARK    3  A    between atoms: O_15  and  C_16
REMARK                            x       y       z     vdW  Elec       q    Type
REMARK                         _______ _______ _______ _____ _____    ______ ____
ROOT
ATOM      1  C   UNL     1       5.975   4.786  16.394  0.00  0.00    +0.000 A 
ATOM      2  N   UNL     1       5.936   3.592  15.818  0.00  0.00    +0.000 NA
ATOM      3  N   UNL     1       4.879   2.893  16.346  0.00  0.00    +0.000 NA
ATOM      4  C   UNL     1       4.296   3.673  17.231  0.00  0.00    +0.000 A 
ATOM      5  C   UNL     1       3.117   3.450  18.035  0.00  0.00    +0.000 A 
ATOM      6  C   UNL     1       2.394   2.255  17.993  0.00  0.00    +0.000 A 
ATOM      7  C   UNL     1       1.218   2.134  18.733  0.00  0.00    +0.000 A 
ATOM      8  C   UNL     1       0.753   3.212  19.490  0.00  0.00    +0.000 A 
ATOM      9  C   UNL     1       1.484   4.405  19.549  0.00  0.00    +0.000 A 
ATOM     10  C   UNL     1       2.686   4.512  18.843  0.00  0.00    +0.000 A 
ATOM     11  C   UNL     1       3.555   5.727  18.846  0.00  0.00    +0.000 A 
ATOM     12  N   UNL     1       4.612   5.935  18.117  0.00  0.00    +0.000 NA
ATOM     13  N   UNL     1       4.948   4.887  17.302  0.00  0.00    +0.000 N 
ENDROOT
BRANCH   1  15
ATOM     14  N   UNL     1       7.024   6.813  16.987  0.00  0.00    +0.000 N 
ATOM     15  C   UNL     1       6.963   5.784  16.083  0.00  0.00    +0.000 C 
ATOM     16  O   UNL     1       7.721   5.781  15.122  0.00  0.00    +0.000 OA
ATOM     17  H   UNL     1       7.697   7.549  16.841  0.00  0.00    +0.000 HD
ATOM     18  H   UNL     1       6.417   6.825  17.799  0.00  0.00    +0.000 HD
ENDBRANCH   1  15
BRANCH  11  19
ATOM     19  O   UNL     1       3.104   6.630  19.799  0.00  0.00    +0.000 OA
BRANCH  19  20
ATOM     20  C   UNL     1       2.171   7.648  19.491  0.00  0.00    +0.000 A 
ATOM     21  C   UNL     1       2.214   8.193  18.206  0.00  0.00    +0.000 A 
ATOM     22  C   UNL     1       1.500   9.362  17.930  0.00  0.00    +0.000 A 
ATOM     23  C   UNL     1       0.761   9.983  18.940  0.00  0.00    +0.000 A 
ATOM     24  C   UNL     1       0.707   9.408  20.212  0.00  0.00    +0.000 A 
ATOM     25 CL   UNL     1      -0.176  10.195  21.464  0.00  0.00    +0.000 Cl
ATOM     26  C   UNL     1       1.404   8.236  20.495  0.00  0.00    +0.000 A 
ENDBRANCH  19  20
ENDBRANCH  11  19
TORSDOF 3
ENDMDL
MODEL 7
REMARK VINA RESULT:      -8.5      2.504      4.307
REMARK  Name = 
REMARK  3 active torsions:
REMARK  status: ('A' for Active; 'I' for Inactive)
REMARK    1  A    between atoms: C_2  and  C_4
REMARK    2  A    between atoms: C_14  and  O_15
REMARK    3  A    between atoms: O_15  and  C_16
REMARK                            x       y       z     vdW  Elec       q    Type
REMARK                         _______ _______ _______ _____ _____    ______ ____
ROOT
ATOM      1  C   UNL     1       6.960   6.024  17.617  0.00  0.00    +0.000 A 
ATOM      2  N   UNL     1       7.425   4.995  16.921  0.00  0.00    +0.000 NA
ATOM      3  N   UNL     1       6.468   4.011  16.914  0.00  0.00    +0.000 NA
ATOM      4  C   UNL     1       5.441   4.458  17.604  0.00  0.00    +0.000 A 
ATOM      5  C   UNL     1       4.158   3.848  17.864  0.00  0.00    +0.000 A 
ATOM      6  C   UNL     1       3.824   2.574  17.398  0.00  0.00    +0.000 A 
ATOM      7  C   UNL     1       2.539   2.076  17.614  0.00  0.00    +0.000 A 
ATOM      8  C   UNL     1       1.586   2.858  18.270  0.00  0.00    +0.000 A 
ATOM      9  C   UNL     1       1.922   4.128  18.755  0.00  0.00    +0.000 A 
ATOM     10  C   UNL     1       3.222   4.611  18.578  0.00  0.00    +0.000 A 
ATOM     11  C   UNL     1       3.697   5.940  19.067  0.00  0.00    +0.000 A 
ATOM     12  N   UNL     1       4.847   6.497  18.827  0.00  0.00    +0.000 NA
ATOM     13  N   UNL     1       5.696   5.731  18.072  0.00  0.00    +0.000 N 
ENDROOT
BRANCH   1  15
ATOM     14  N   UNL     1       8.471   7.224  18.972  0.00  0.00    +0.000 N 
ATOM     15  C   UNL     1       7.704   7.235  17.836  0.00  0.00    +0.000 C 
ATOM     16  O   UNL     1       7.709   8.225  17.115  0.00  0.00    +0.000 OA
ATOM     17  H   UNL     1       9.028   8.036  19.191  0.00  0.00    +0.000 HD
ATOM     18  H   UNL     1       8.495   6.408  19.572  0.00  0.00    +0.000 HD
ENDBRANCH   1  15
BRANCH  11  19
ATOM     19  O   UNL     1       2.734   6.515  19.886  0.00  0.00    +0.000 OA
BRANCH  19  20
ATOM     20  C   UNL     1       2.020   7.676  19.507  0.00  0.00    +0.000 A 
ATOM     21  C   UNL     1       2.181   8.134  18.197  0.00  0.00    +0.000 A 
ATOM     22  C   UNL     1       1.710   9.402  17.848  0.00  0.00    +0.000 A 
ATOM     23  C   UNL     1       1.094  10.206  18.810  0.00  0.00    +0.000 A 
ATOM     24  C   UNL     1       0.915   9.721  20.108  0.00  0.00    +0.000 A 
ATOM     25 CL   UNL     1       0.187  10.728  21.299  0.00  0.00    +0.000 Cl
ATOM     26  C   UNL     1       1.369   8.453  20.464  0.00  0.00    +0.000 A 
ENDBRANCH  19  20
ENDBRANCH  11  19
TORSDOF 3
ENDMDL
MODEL 8
REMARK VINA RESULT:      -8.5      2.936      5.783
REMARK  Name = 
REMARK  3 active torsions:
REMARK  status: ('A' for Active; 'I' for Inactive)
REMARK    1  A    between atoms: C_2  and  C_4
REMARK    2  A    between atoms: C_14  and  O_15
REMARK    3  A    between atoms: O_15  and  C_16
REMARK                            x       y       z     vdW  Elec       q    Type
REMARK                         _______ _______ _______ _____ _____    ______ ____
ROOT
ATOM      1  C   UNL     1       3.579   3.101  20.147  0.00  0.00    +0.000 A 
ATOM      2  N   UNL     1       2.840   3.270  21.235  0.00  0.00    +0.000 NA
ATOM      3  N   UNL     1       2.336   4.547  21.221  0.00  0.00    +0.000 NA
ATOM      4  C   UNL     1       2.776   5.129  20.127  0.00  0.00    +0.000 A 
ATOM      5  C   UNL     1       2.509   6.448  19.602  0.00  0.00    +0.000 A 
ATOM      6  C   UNL     1       1.696   7.370  20.267  0.00  0.00    +0.000 A 
ATOM      7  C   UNL     1       1.410   8.597  19.667  0.00  0.00    +0.000 A 
ATOM      8  C   UNL     1       1.915   8.889  18.397  0.00  0.00    +0.000 A 
ATOM      9  C   UNL     1       2.744   7.975  17.736  0.00  0.00    +0.000 A 
ATOM     10  C   UNL     1       3.067   6.763  18.355  0.00  0.00    +0.000 A 
ATOM     11  C   UNL     1       3.953   5.724  17.752  0.00  0.00    +0.000 A 
ATOM     12  N   UNL     1       4.190   4.532  18.216  0.00  0.00    +0.000 NA
ATOM     13  N   UNL     1       3.568   4.258  19.406  0.00  0.00    +0.000 N 
ENDROOT
BRANCH   1  15
ATOM     14  N   UNL     1       3.897   1.312  18.644  0.00  0.00    +0.000 N 
ATOM     15  C   UNL     1       4.267   1.876  19.838  0.00  0.00    +0.000 C 
ATOM     16  O   UNL     1       5.121   1.330  20.523  0.00  0.00    +0.000 OA
ATOM     17  H   UNL     1       4.341   0.454  18.354  0.00  0.00    +0.000 HD
ATOM     18  H   UNL     1       3.205   1.757  18.054  0.00  0.00    +0.000 HD
ENDBRANCH   1  15
BRANCH  11  19
ATOM     19  O   UNL     1       4.561   6.224  16.608  0.00  0.00    +0.000 OA
BRANCH  19  20
ATOM     20  C   UNL     1       5.389   5.425  15.785  0.00  0.00    +0.000 A 
ATOM     21  C   UNL     1       6.770   5.525  15.970  0.00  0.00    +0.000 A 
ATOM     22  C   UNL     1       7.634   4.963  15.026  0.00  0.00    +0.000 A 
ATOM     23  C   UNL     1       7.112   4.318  13.902  0.00  0.00    +0.000 A 
ATOM     24  C   UNL     1       5.729   4.201  13.748  0.00  0.00    +0.000 A 
ATOM     25 CL   UNL     1       5.091   3.436  12.344  0.00  0.00    +0.000 Cl
ATOM     26  C   UNL     1       4.859   4.747  14.689  0.00  0.00    +0.000 A 
ENDBRANCH  19  20
ENDBRANCH  11  19
TORSDOF 3
ENDMDL
MODEL 9
REMARK VINA RESULT:      -8.5      1.734      2.008
REMARK  Name = 
REMARK  3 active torsions:
REMARK  status: ('A' for Active; 'I' for Inactive)
REMARK    1  A    between atoms: C_2  and  C_4
REMARK    2  A    between atoms: C_14  and  O_15
REMARK    3  A    between atoms: O_15  and  C_16
REMARK                            x       y       z     vdW  Elec       q    Type
REMARK                         _______ _______ _______ _____ _____    ______ ____
ROOT
ATOM      1  C   UNL     1       2.307   2.890  18.815  0.00  0.00    +0.000 A 
ATOM      2  N   UNL     1       3.221   1.930  18.851  0.00  0.00    +0.000 NA
ATOM      3  N   UNL     1       4.431   2.473  18.495  0.00  0.00    +0.000 NA
ATOM      4  C   UNL     1       4.231   3.749  18.251  0.00  0.00    +0.000 A 
ATOM      5  C   UNL     1       5.170   4.786  17.889  0.00  0.00    +0.000 A 
ATOM      6  C   UNL     1       6.532   4.536  17.708  0.00  0.00    +0.000 A 
ATOM      7  C   UNL     1       7.399   5.596  17.441  0.00  0.00    +0.000 A 
ATOM      8  C   UNL     1       6.909   6.902  17.380  0.00  0.00    +0.000 A 
ATOM      9  C   UNL     1       5.542   7.155  17.543  0.00  0.00    +0.000 A 
ATOM     10  C   UNL     1       4.665   6.089  17.768  0.00  0.00    +0.000 A 
ATOM     11  C   UNL     1       3.189   6.238  17.939  0.00  0.00    +0.000 A 
ATOM     12  N   UNL     1       2.342   5.310  18.273  0.00  0.00    +0.000 NA
ATOM     13  N   UNL     1       2.902   4.071  18.439  0.00  0.00    +0.000 N 
ENDROOT
BRANCH   1  15
ATOM     14  N   UNL     1       0.503   3.291  20.279  0.00  0.00    +0.000 N 
ATOM     15  C   UNL     1       0.920   2.676  19.127  0.00  0.00    +0.000 C 
ATOM     16  O   UNL     1       0.120   2.023  18.469  0.00  0.00    +0.000 OA
ATOM     17  H   UNL     1      -0.460   3.192  20.562  0.00  0.00    +0.000 HD
ATOM     18  H   UNL     1       1.145   3.850  20.828  0.00  0.00    +0.000 HD
ENDBRANCH   1  15
BRANCH  11  19
ATOM     19  O   UNL     1       2.806   7.538  17.638  0.00  0.00    +0.000 OA
BRANCH  19  20
ATOM     20  C   UNL     1       2.096   8.346  18.557  0.00  0.00    +0.000 A 
ATOM     21  C   UNL     1       2.042   7.916  19.885  0.00  0.00    +0.000 A 
ATOM     22  C   UNL     1       1.152   8.528  20.771  0.00  0.00    +0.000 A 
ATOM     23  C   UNL     1       0.317   9.555  20.322  0.00  0.00    +0.000 A 
ATOM     24  C   UNL     1       0.406   9.993  18.999  0.00  0.00    +0.000 A 
ATOM     25 CL   UNL     1      -0.648  11.234  18.441  0.00  0.00    +0.000 Cl
ATOM     26  C   UNL     1       1.299   9.398  18.110  0.00  0.00    +0.000 A 
ENDBRANCH  19  20
ENDBRANCH  11  19
TORSDOF 3
ENDMDL
