MODEL 1
REMARK VINA RESULT:      -7.0      0.000      0.000
REMARK  Name = 
REMARK  8 active torsions:
REMARK  status: ('A' for Active; 'I' for Inactive)
REMARK    1  A    between atoms: C_1  and  N_2
REMARK    2  A    between atoms: N_2  and  C_3
REMARK    3  A    between atoms: C_9  and  C_10
REMARK    4  A    between atoms: C_10  and  O_12
REMARK    5  A    between atoms: O_12  and  C_13
REMARK    6  A    between atoms: C_13  and  C_14
REMARK    7  A    between atoms: C_13  and  C_15
REMARK    8  A    between atoms: C_13  and  C_16
REMARK                            x       y       z     vdW  Elec       q    Type
REMARK                         _______ _______ _______ _____ _____    ______ ____
ROOT
ATOM      1  C   UNL     1       3.110   2.178  21.397  0.00  0.00    +0.000 C 
ATOM      2  N   UNL     1       2.742   3.447  20.775  0.00  0.00    +0.000 N 
ATOM      3  C   UNL     1       1.380   3.874  21.070  0.00  0.00    +0.000 C 
ATOM      4  C   UNL     1       3.579   3.863  19.726  0.00  0.00    +0.000 C 
ATOM      5  O   UNL     1       4.562   3.164  19.465  0.00  0.00    +0.000 OA
ATOM      6  N   UNL     1       3.302   5.060  19.028  0.00  0.00    +0.000 N 
ATOM      7  C   UNL     1       2.487   6.086  19.656  0.00  0.00    +0.000 C 
ATOM      8  C   UNL     1       2.472   7.407  19.027  0.00  0.00    +0.000 A 
ATOM      9  C   UNL     1       1.766   8.554  19.356  0.00  0.00    +0.000 A 
ATOM     10  N   UNL     1       2.023   9.525  18.410  0.00  0.00    +0.000 NA
ATOM     11  C   UNL     1       2.841   8.962  17.541  0.00  0.00    +0.000 A 
ATOM     12  N   UNL     1       3.141   7.664  17.876  0.00  0.00    +0.000 N 
ATOM     13  C   UNL     1       3.912   6.698  17.216  0.00  0.00    +0.000 A 
ATOM     14  C   UNL     1       4.584   7.037  16.026  0.00  0.00    +0.000 A 
ATOM     15  C   UNL     1       5.325   6.075  15.350  0.00  0.00    +0.000 A 
ATOM     16  C   UNL     1       5.374   4.779  15.849  0.00  0.00    +0.000 A 
ATOM     17 CL   UNL     1       6.269   3.581  14.993  0.00  0.00    +0.000 Cl
ATOM     18  C   UNL     1       4.702   4.440  17.030  0.00  0.00    +0.000 A 
ATOM     19  C   UNL     1       3.979   5.394  17.772  0.00  0.00    +0.000 A 
ENDROOT
BRANCH   9  20
ATOM     20  C   UNL     1       0.858   8.680  20.503  0.00  0.00    +0.000 C 
ATOM     21  O   UNL     1       1.058   8.082  21.554  0.00  0.00    +0.000 OA
BRANCH  20  22
ATOM     22  O   UNL     1      -0.218   9.486  20.258  0.00  0.00    +0.000 OA
BRANCH  22  23
ATOM     23  C   UNL     1      -0.310  10.787  20.893  0.00  0.00    +0.000 C 
ATOM     24  C   UNL     1      -1.345  11.677  20.192  0.00  0.00    +0.000 C 
ATOM     25  C   UNL     1      -0.800  10.510  22.324  0.00  0.00    +0.000 C 
ATOM     26  C   UNL     1       1.061  11.470  20.987  0.00  0.00    +0.000 C 
ENDBRANCH  22  23
ENDBRANCH  20  22
ENDBRANCH   9  20
TORSDOF 3
ENDMDL
MODEL 2
REMARK VINA RESULT:      -6.7      7.659      9.452
REMARK  Name = 
REMARK  8 active torsions:
REMARK  status: ('A' for Active; 'I' for Inactive)
REMARK    1  A    between atoms: C_1  and  N_2
REMARK    2  A    between atoms: N_2  and  C_3
REMARK    3  A    between atoms: C_9  and  C_10
REMARK    4  A    between atoms: C_10  and  O_12
REMARK    5  A    between atoms: O_12  and  C_13
REMARK    6  A    between atoms: C_13  and  C_14
REMARK    7  A    between atoms: C_13  and  C_15
REMARK    8  A    between atoms: C_13  and  C_16
REMARK                            x       y       z     vdW  Elec       q    Type
REMARK                         _______ _______ _______ _____ _____    ______ ____
ROOT
ATOM      1  C   UNL     1       1.139  13.142  20.646  0.00  0.00    +0.000 C 
ATOM      2  N   UNL     1      -0.266  12.861  20.931  0.00  0.00    +0.000 N 
ATOM      3  C   UNL     1      -0.514  12.428  22.301  0.00  0.00    +0.000 C 
ATOM      4  C   UNL     1      -1.081  12.689  19.800  0.00  0.00    +0.000 C 
ATOM      5  O   UNL     1      -0.564  12.843  18.690  0.00  0.00    +0.000 OA
ATOM      6  N   UNL     1      -2.452  12.382  19.953  0.00  0.00    +0.000 N 
ATOM      7  C   UNL     1      -3.127  12.705  21.198  0.00  0.00    +0.000 C 
ATOM      8  C   UNL     1      -4.588  12.640  21.204  0.00  0.00    +0.000 A 
ATOM      9  C   UNL     1      -5.495  12.841  22.234  0.00  0.00    +0.000 A 
ATOM     10  N   UNL     1      -6.768  12.585  21.766  0.00  0.00    +0.000 NA
ATOM     11  C   UNL     1      -6.614  12.228  20.505  0.00  0.00    +0.000 A 
ATOM     12  N   UNL     1      -5.297  12.245  20.118  0.00  0.00    +0.000 N 
ATOM     13  C   UNL     1      -4.689  11.891  18.906  0.00  0.00    +0.000 A 
ATOM     14  C   UNL     1      -5.487  11.494  17.817  0.00  0.00    +0.000 A 
ATOM     15  C   UNL     1      -4.889  11.112  16.622  0.00  0.00    +0.000 A 
ATOM     16  C   UNL     1      -3.503  11.106  16.525  0.00  0.00    +0.000 A 
ATOM     17 CL   UNL     1      -2.764  10.604  15.053  0.00  0.00    +0.000 Cl
ATOM     18  C   UNL     1      -2.708  11.497  17.610  0.00  0.00    +0.000 A 
ATOM     19  C   UNL     1      -3.273  11.937  18.823  0.00  0.00    +0.000 A 
ENDROOT
BRANCH   9  20
ATOM     20  C   UNL     1      -5.136  13.216  23.607  0.00  0.00    +0.000 C 
ATOM     21  O   UNL     1      -4.766  12.384  24.429  0.00  0.00    +0.000 OA
BRANCH  20  22
ATOM     22  O   UNL     1      -5.289  14.549  23.864  0.00  0.00    +0.000 OA
BRANCH  22  23
ATOM     23  C   UNL     1      -4.138  15.432  23.834  0.00  0.00    +0.000 C 
ATOM     24  C   UNL     1      -3.982  16.099  22.461  0.00  0.00    +0.000 C 
ATOM     25  C   UNL     1      -4.434  16.526  24.872  0.00  0.00    +0.000 C 
ATOM     26  C   UNL     1      -2.856  14.706  24.264  0.00  0.00    +0.000 C 
ENDBRANCH  22  23
ENDBRANCH  20  22
ENDBRANCH   9  20
TORSDOF 3
ENDMDL
MODEL 3
REMARK VINA RESULT:      -6.5      2.183      4.133
REMARK  Name = 
REMARK  8 active torsions:
REMARK  status: ('A' for Active; 'I' for Inactive)
REMARK    1  A    between atoms: C_1  and  N_2
REMARK    2  A    between atoms: N_2  and  C_3
REMARK    3  A    between atoms: C_9  and  C_10
REMARK    4  A    between atoms: C_10  and  O_12
REMARK    5  A    between atoms: O_12  and  C_13
REMARK    6  A    between atoms: C_13  and  C_14
REMARK    7  A    between atoms: C_13  and  C_15
REMARK    8  A    between atoms: C_13  and  C_16
REMARK                            x       y       z     vdW  Elec       q    Type
REMARK                         _______ _______ _______ _____ _____    ______ ____
ROOT
ATOM      1  C   UNL     1       5.864   5.156  14.727  0.00  0.00    +0.000 C 
ATOM      2  N   UNL     1       5.154   5.748  15.858  0.00  0.00    +0.000 N 
ATOM      3  C   UNL     1       5.375   7.181  16.009  0.00  0.00    +0.000 C 
ATOM      4  C   UNL     1       4.687   4.831  16.816  0.00  0.00    +0.000 C 
ATOM      5  O   UNL     1       4.865   3.630  16.595  0.00  0.00    +0.000 OA
ATOM      6  N   UNL     1       4.013   5.291  17.970  0.00  0.00    +0.000 N 
ATOM      7  C   UNL     1       3.382   6.599  17.960  0.00  0.00    +0.000 C 
ATOM      8  C   UNL     1       2.460   6.906  19.054  0.00  0.00    +0.000 A 
ATOM      9  C   UNL     1       1.756   8.066  19.341  0.00  0.00    +0.000 A 
ATOM     10  N   UNL     1       1.080   7.896  20.532  0.00  0.00    +0.000 NA
ATOM     11  C   UNL     1       1.390   6.681  20.942  0.00  0.00    +0.000 A 
ATOM     12  N   UNL     1       2.234   6.038  20.071  0.00  0.00    +0.000 N 
ATOM     13  C   UNL     1       2.846   4.779  20.141  0.00  0.00    +0.000 A 
ATOM     14  C   UNL     1       2.561   3.926  21.224  0.00  0.00    +0.000 A 
ATOM     15  C   UNL     1       3.188   2.689  21.316  0.00  0.00    +0.000 A 
ATOM     16  C   UNL     1       4.108   2.318  20.343  0.00  0.00    +0.000 A 
ATOM     17 CL   UNL     1       4.905   0.797  20.475  0.00  0.00    +0.000 Cl
ATOM     18  C   UNL     1       4.395   3.168  19.267  0.00  0.00    +0.000 A 
ATOM     19  C   UNL     1       3.748   4.409  19.110  0.00  0.00    +0.000 A 
ENDROOT
BRANCH   9  20
ATOM     20  C   UNL     1       1.779   9.285  18.524  0.00  0.00    +0.000 C 
ATOM     21  O   UNL     1       2.085   9.261  17.337  0.00  0.00    +0.000 OA
BRANCH  20  22
ATOM     22  O   UNL     1       1.465  10.415  19.225  0.00  0.00    +0.000 OA
BRANCH  22  23
ATOM     23  C   UNL     1       0.168  11.040  19.053  0.00  0.00    +0.000 C 
ATOM     24  C   UNL     1      -0.736  10.207  18.135  0.00  0.00    +0.000 C 
ATOM     25  C   UNL     1      -0.462  11.070  20.454  0.00  0.00    +0.000 C 
ATOM     26  C   UNL     1       0.298  12.489  18.562  0.00  0.00    +0.000 C 
ENDBRANCH  22  23
ENDBRANCH  20  22
ENDBRANCH   9  20
TORSDOF 3
ENDMDL
MODEL 4
REMARK VINA RESULT:      -6.5      7.102      9.300
REMARK  Name = 
REMARK  8 active torsions:
REMARK  status: ('A' for Active; 'I' for Inactive)
REMARK    1  A    between atoms: C_1  and  N_2
REMARK    2  A    between atoms: N_2  and  C_3
REMARK    3  A    between atoms: C_9  and  C_10
REMARK    4  A    between atoms: C_10  and  O_12
REMARK    5  A    between atoms: O_12  and  C_13
REMARK    6  A    between atoms: C_13  and  C_14
REMARK    7  A    between atoms: C_13  and  C_15
REMARK    8  A    between atoms: C_13  and  C_16
REMARK                            x       y       z     vdW  Elec       q    Type
REMARK                         _______ _______ _______ _____ _____    ______ ____
ROOT
ATOM      1  C   UNL     1       1.472  12.494  20.388  0.00  0.00    +0.000 C 
ATOM      2  N   UNL     1       0.047  12.369  20.682  0.00  0.00    +0.000 N 
ATOM      3  C   UNL     1      -0.239  11.981  22.058  0.00  0.00    +0.000 C 
ATOM      4  C   UNL     1      -0.790  12.274  19.557  0.00  0.00    +0.000 C 
ATOM      5  O   UNL     1      -0.265  12.358  18.443  0.00  0.00    +0.000 OA
ATOM      6  N   UNL     1      -2.185  12.118  19.720  0.00  0.00    +0.000 N 
ATOM      7  C   UNL     1      -2.813  12.526  20.965  0.00  0.00    +0.000 C 
ATOM      8  C   UNL     1      -4.273  12.619  20.979  0.00  0.00    +0.000 A 
ATOM      9  C   UNL     1      -5.147  12.927  22.011  0.00  0.00    +0.000 A 
ATOM     10  N   UNL     1      -6.443  12.805  21.552  0.00  0.00    +0.000 NA
ATOM     11  C   UNL     1      -6.335  12.420  20.295  0.00  0.00    +0.000 A 
ATOM     12  N   UNL     1      -5.026  12.290  19.901  0.00  0.00    +0.000 N 
ATOM     13  C   UNL     1      -4.468  11.858  18.690  0.00  0.00    +0.000 A 
ATOM     14  C   UNL     1      -5.310  11.538  17.610  0.00  0.00    +0.000 A 
ATOM     15  C   UNL     1      -4.764  11.080  16.417  0.00  0.00    +0.000 A 
ATOM     16  C   UNL     1      -3.388  10.924  16.314  0.00  0.00    +0.000 A 
ATOM     17 CL   UNL     1      -2.715  10.329  14.844  0.00  0.00    +0.000 Cl
ATOM     18  C   UNL     1      -2.548  11.239  17.390  0.00  0.00    +0.000 A 
ATOM     19  C   UNL     1      -3.055  11.751  18.600  0.00  0.00    +0.000 A 
ENDROOT
BRANCH   9  20
ATOM     20  C   UNL     1      -4.740  13.277  23.378  0.00  0.00    +0.000 C 
ATOM     21  O   UNL     1      -4.966  12.537  24.328  0.00  0.00    +0.000 OA
BRANCH  20  22
ATOM     22  O   UNL     1      -4.133  14.498  23.468  0.00  0.00    +0.000 OA
BRANCH  22  23
ATOM     23  C   UNL     1      -4.923  15.684  23.738  0.00  0.00    +0.000 C 
ATOM     24  C   UNL     1      -4.355  16.475  24.924  0.00  0.00    +0.000 C 
ATOM     25  C   UNL     1      -4.803  16.553  22.476  0.00  0.00    +0.000 C 
ATOM     26  C   UNL     1      -6.406  15.343  23.938  0.00  0.00    +0.000 C 
ENDBRANCH  22  23
ENDBRANCH  20  22
ENDBRANCH   9  20
TORSDOF 3
ENDMDL
MODEL 5
REMARK VINA RESULT:      -6.2      6.170     10.720
REMARK  Name = 
REMARK  8 active torsions:
REMARK  status: ('A' for Active; 'I' for Inactive)
REMARK    1  A    between atoms: C_1  and  N_2
REMARK    2  A    between atoms: N_2  and  C_3
REMARK    3  A    between atoms: C_9  and  C_10
REMARK    4  A    between atoms: C_10  and  O_12
REMARK    5  A    between atoms: O_12  and  C_13
REMARK    6  A    between atoms: C_13  and  C_14
REMARK    7  A    between atoms: C_13  and  C_15
REMARK    8  A    between atoms: C_13  and  C_16
REMARK                            x       y       z     vdW  Elec       q    Type
REMARK                         _______ _______ _______ _____ _____    ______ ____
ROOT
ATOM      1  C   UNL     1      -7.167  12.992  17.176  0.00  0.00    +0.000 C 
ATOM      2  N   UNL     1      -5.959  12.628  17.913  0.00  0.00    +0.000 N 
ATOM      3  C   UNL     1      -5.135  11.633  17.239  0.00  0.00    +0.000 C 
ATOM      4  C   UNL     1      -5.956  12.989  19.271  0.00  0.00    +0.000 C 
ATOM      5  O   UNL     1      -6.929  13.616  19.700  0.00  0.00    +0.000 OA
ATOM      6  N   UNL     1      -4.853  12.661  20.091  0.00  0.00    +0.000 N 
ATOM      7  C   UNL     1      -3.558  12.402  19.484  0.00  0.00    +0.000 C 
ATOM      8  C   UNL     1      -2.399  12.357  20.375  0.00  0.00    +0.000 A 
ATOM      9  C   UNL     1      -1.066  12.086  20.106  0.00  0.00    +0.000 A 
ATOM     10  N   UNL     1      -0.362  12.080  21.293  0.00  0.00    +0.000 NA
ATOM     11  C   UNL     1      -1.255  12.322  22.233  0.00  0.00    +0.000 A 
ATOM     12  N   UNL     1      -2.517  12.496  21.718  0.00  0.00    +0.000 N 
ATOM     13  C   UNL     1      -3.748  12.713  22.352  0.00  0.00    +0.000 A 
ATOM     14  C   UNL     1      -3.795  12.853  23.752  0.00  0.00    +0.000 A 
ATOM     15  C   UNL     1      -5.016  13.038  24.389  0.00  0.00    +0.000 A 
ATOM     16  C   UNL     1      -6.181  13.061  23.634  0.00  0.00    +0.000 A 
ATOM     17 CL   UNL     1      -7.696  13.262  24.429  0.00  0.00    +0.000 Cl
ATOM     18  C   UNL     1      -6.136  12.918  22.241  0.00  0.00    +0.000 A 
ATOM     19  C   UNL     1      -4.917  12.776  21.550  0.00  0.00    +0.000 A 
ENDROOT
BRANCH   9  20
ATOM     20  C   UNL     1      -0.520  11.804  18.773  0.00  0.00    +0.000 C 
ATOM     21  O   UNL     1      -0.352  12.691  17.943  0.00  0.00    +0.000 OA
BRANCH  20  22
ATOM     22  O   UNL     1      -0.262  10.479  18.560  0.00  0.00    +0.000 OA
BRANCH  22  23
ATOM     23  C   UNL     1       1.094   9.975  18.671  0.00  0.00    +0.000 C 
ATOM     24  C   UNL     1       2.115  11.121  18.688  0.00  0.00    +0.000 C 
ATOM     25  C   UNL     1       1.153   9.255  20.028  0.00  0.00    +0.000 C 
ATOM     26  C   UNL     1       1.408   8.947  17.576  0.00  0.00    +0.000 C 
ENDBRANCH  22  23
ENDBRANCH  20  22
ENDBRANCH   9  20
TORSDOF 3
ENDMDL
MODEL 6
REMARK VINA RESULT:      -6.2      0.896      1.123
REMARK  Name = 
REMARK  8 active torsions:
REMARK  status: ('A' for Active; 'I' for Inactive)
REMARK    1  A    between atoms: C_1  and  N_2
REMARK    2  A    between atoms: N_2  and  C_3
REMARK    3  A    between atoms: C_9  and  C_10
REMARK    4  A    between atoms: C_10  and  O_12
REMARK    5  A    between atoms: O_12  and  C_13
REMARK    6  A    between atoms: C_13  and  C_14
REMARK    7  A    between atoms: C_13  and  C_15
REMARK    8  A    between atoms: C_13  and  C_16
REMARK                            x       y       z     vdW  Elec       q    Type
REMARK                         _______ _______ _______ _____ _____    ______ ____
ROOT
ATOM      1  C   UNL     1       4.275   1.775  21.004  0.00  0.00    +0.000 C 
ATOM      2  N   UNL     1       3.665   3.006  20.508  0.00  0.00    +0.000 N 
ATOM      3  C   UNL     1       2.277   3.182  20.916  0.00  0.00    +0.000 C 
ATOM      4  C   UNL     1       4.348   3.625  19.447  0.00  0.00    +0.000 C 
ATOM      5  O   UNL     1       5.408   3.118  19.074  0.00  0.00    +0.000 OA
ATOM      6  N   UNL     1       3.834   4.806  18.865  0.00  0.00    +0.000 N 
ATOM      7  C   UNL     1       2.913   5.639  19.620  0.00  0.00    +0.000 C 
ATOM      8  C   UNL     1       2.642   6.978  19.100  0.00  0.00    +0.000 A 
ATOM      9  C   UNL     1       1.787   7.968  19.561  0.00  0.00    +0.000 A 
ATOM     10  N   UNL     1       1.818   9.032  18.681  0.00  0.00    +0.000 NA
ATOM     11  C   UNL     1       2.651   8.672  17.723  0.00  0.00    +0.000 A 
ATOM     12  N   UNL     1       3.178   7.422  17.936  0.00  0.00    +0.000 N 
ATOM     13  C   UNL     1       4.043   6.643  17.155  0.00  0.00    +0.000 A 
ATOM     14  C   UNL     1       4.566   7.169  15.959  0.00  0.00    +0.000 A 
ATOM     15  C   UNL     1       5.401   6.391  15.166  0.00  0.00    +0.000 A 
ATOM     16  C   UNL     1       5.692   5.090  15.556  0.00  0.00    +0.000 A 
ATOM     17 CL   UNL     1       6.703   4.117  14.556  0.00  0.00    +0.000 Cl
ATOM     18  C   UNL     1       5.169   4.564  16.744  0.00  0.00    +0.000 A 
ATOM     19  C   UNL     1       4.358   5.333  17.602  0.00  0.00    +0.000 A 
ENDROOT
BRANCH   9  20
ATOM     20  C   UNL     1       0.956   7.864  20.766  0.00  0.00    +0.000 C 
ATOM     21  O   UNL     1       1.031   6.901  21.522  0.00  0.00    +0.000 OA
BRANCH  20  22
ATOM     22  O   UNL     1       0.092   8.911  20.922  0.00  0.00    +0.000 OA
BRANCH  22  23
ATOM     23  C   UNL     1       0.358   9.929  21.920  0.00  0.00    +0.000 C 
ATOM     24  C   UNL     1      -0.764   9.994  22.965  0.00  0.00    +0.000 C 
ATOM     25  C   UNL     1       1.649   9.484  22.626  0.00  0.00    +0.000 C 
ATOM     26  C   UNL     1       0.618  11.299  21.277  0.00  0.00    +0.000 C 
ENDBRANCH  22  23
ENDBRANCH  20  22
ENDBRANCH   9  20
TORSDOF 3
ENDMDL
MODEL 7
REMARK VINA RESULT:      -6.2      3.942      5.859
REMARK  Name = 
REMARK  8 active torsions:
REMARK  status: ('A' for Active; 'I' for Inactive)
REMARK    1  A    between atoms: C_1  and  N_2
REMARK    2  A    between atoms: N_2  and  C_3
REMARK    3  A    between atoms: C_9  and  C_10
REMARK    4  A    between atoms: C_10  and  O_12
REMARK    5  A    between atoms: O_12  and  C_13
REMARK    6  A    between atoms: C_13  and  C_14
REMARK    7  A    between atoms: C_13  and  C_15
REMARK    8  A    between atoms: C_13  and  C_16
REMARK                            x       y       z     vdW  Elec       q    Type
REMARK                         _______ _______ _______ _____ _____    ______ ____
ROOT
ATOM      1  C   UNL     1       8.675   7.944  18.918  0.00  0.00    +0.000 C 
ATOM      2  N   UNL     1       7.856   6.747  18.744  0.00  0.00    +0.000 N 
ATOM      3  C   UNL     1       7.886   5.842  19.886  0.00  0.00    +0.000 C 
ATOM      4  C   UNL     1       7.477   6.470  17.420  0.00  0.00    +0.000 C 
ATOM      5  O   UNL     1       7.815   7.273  16.546  0.00  0.00    +0.000 OA
ATOM      6  N   UNL     1       6.710   5.320  17.127  0.00  0.00    +0.000 N 
ATOM      7  C   UNL     1       5.917   4.698  18.173  0.00  0.00    +0.000 C 
ATOM      8  C   UNL     1       4.926   3.704  17.761  0.00  0.00    +0.000 A 
ATOM      9  C   UNL     1       4.070   2.918  18.518  0.00  0.00    +0.000 A 
ATOM     10  N   UNL     1       3.380   2.069  17.676  0.00  0.00    +0.000 NA
ATOM     11  C   UNL     1       3.828   2.336  16.464  0.00  0.00    +0.000 A 
ATOM     12  N   UNL     1       4.778   3.328  16.468  0.00  0.00    +0.000 N 
ATOM     13  C   UNL     1       5.543   3.873  15.428  0.00  0.00    +0.000 A 
ATOM     14  C   UNL     1       5.332   3.438  14.106  0.00  0.00    +0.000 A 
ATOM     15  C   UNL     1       6.109   3.954  13.075  0.00  0.00    +0.000 A 
ATOM     16  C   UNL     1       7.102   4.879  13.367  0.00  0.00    +0.000 A 
ATOM     17 CL   UNL     1       8.082   5.494  12.091  0.00  0.00    +0.000 Cl
ATOM     18  C   UNL     1       7.315   5.310  14.683  0.00  0.00    +0.000 A 
ATOM     19  C   UNL     1       6.520   4.850  15.751  0.00  0.00    +0.000 A 
ENDROOT
BRANCH   9  20
ATOM     20  C   UNL     1       3.965   2.961  19.981  0.00  0.00    +0.000 C 
ATOM     21  O   UNL     1       4.404   2.060  20.688  0.00  0.00    +0.000 OA
BRANCH  20  22
ATOM     22  O   UNL     1       3.313   4.068  20.447  0.00  0.00    +0.000 OA
BRANCH  22  23
ATOM     23  C   UNL     1       1.874   4.042  20.624  0.00  0.00    +0.000 C 
ATOM     24  C   UNL     1       1.469   3.114  21.777  0.00  0.00    +0.000 C 
ATOM     25  C   UNL     1       1.481   5.480  21.001  0.00  0.00    +0.000 C 
ATOM     26  C   UNL     1       1.149   3.681  19.320  0.00  0.00    +0.000 C 
ENDBRANCH  22  23
ENDBRANCH  20  22
ENDBRANCH   9  20
TORSDOF 3
ENDMDL
MODEL 8
REMARK VINA RESULT:      -6.0      7.414     10.337
REMARK  Name = 
REMARK  8 active torsions:
REMARK  status: ('A' for Active; 'I' for Inactive)
REMARK    1  A    between atoms: C_1  and  N_2
REMARK    2  A    between atoms: N_2  and  C_3
REMARK    3  A    between atoms: C_9  and  C_10
REMARK    4  A    between atoms: C_10  and  O_12
REMARK    5  A    between atoms: O_12  and  C_13
REMARK    6  A    between atoms: C_13  and  C_14
REMARK    7  A    between atoms: C_13  and  C_15
REMARK    8  A    between atoms: C_13  and  C_16
REMARK                            x       y       z     vdW  Elec       q    Type
REMARK                         _______ _______ _______ _____ _____    ______ ____
ROOT
ATOM      1  C   UNL     1       2.195  13.444  19.909  0.00  0.00    +0.000 C 
ATOM      2  N   UNL     1       0.735  13.426  19.889  0.00  0.00    +0.000 N 
ATOM      3  C   UNL     1       0.160  13.696  18.577  0.00  0.00    +0.000 C 
ATOM      4  C   UNL     1       0.119  13.522  21.149  0.00  0.00    +0.000 C 
ATOM      5  O   UNL     1       0.849  13.557  22.143  0.00  0.00    +0.000 OA
ATOM      6  N   UNL     1      -1.290  13.547  21.251  0.00  0.00    +0.000 N 
ATOM      7  C   UNL     1      -2.098  13.004  20.172  0.00  0.00    +0.000 C 
ATOM      8  C   UNL     1      -3.519  12.786  20.445  0.00  0.00    +0.000 A 
ATOM      9  C   UNL     1      -4.536  12.336  19.617  0.00  0.00    +0.000 A 
ATOM     10  N   UNL     1      -5.729  12.376  20.311  0.00  0.00    +0.000 NA
ATOM     11  C   UNL     1      -5.425  12.851  21.504  0.00  0.00    +0.000 A 
ATOM     12  N   UNL     1      -4.084  13.119  21.631  0.00  0.00    +0.000 N 
ATOM     13  C   UNL     1      -3.353  13.676  22.689  0.00  0.00    +0.000 A 
ATOM     14  C   UNL     1      -4.005  13.993  23.895  0.00  0.00    +0.000 A 
ATOM     15  C   UNL     1      -3.291  14.574  24.937  0.00  0.00    +0.000 A 
ATOM     16  C   UNL     1      -1.941  14.854  24.764  0.00  0.00    +0.000 A 
ATOM     17 CL   UNL     1      -1.066  15.601  26.046  0.00  0.00    +0.000 Cl
ATOM     18  C   UNL     1      -1.292  14.543  23.563  0.00  0.00    +0.000 A 
ATOM     19  C   UNL     1      -1.966  13.910  22.499  0.00  0.00    +0.000 A 
ENDROOT
BRANCH   9  20
ATOM     20  C   UNL     1      -4.362  11.933  18.217  0.00  0.00    +0.000 C 
ATOM     21  O   UNL     1      -5.319  11.750  17.473  0.00  0.00    +0.000 OA
BRANCH  20  22
ATOM     22  O   UNL     1      -3.054  11.758  17.860  0.00  0.00    +0.000 OA
BRANCH  22  23
ATOM     23  C   UNL     1      -2.598  10.466  17.384  0.00  0.00    +0.000 C 
ATOM     24  C   UNL     1      -3.548   9.343  17.819  0.00  0.00    +0.000 C 
ATOM     25  C   UNL     1      -2.631  10.560  15.850  0.00  0.00    +0.000 C 
ATOM     26  C   UNL     1      -1.150  10.186  17.809  0.00  0.00    +0.000 C 
ENDBRANCH  22  23
ENDBRANCH  20  22
ENDBRANCH   9  20
TORSDOF 3
ENDMDL
MODEL 9
REMARK VINA RESULT:      -5.9      4.345      8.809
REMARK  Name = 
REMARK  8 active torsions:
REMARK  status: ('A' for Active; 'I' for Inactive)
REMARK    1  A    between atoms: C_1  and  N_2
REMARK    2  A    between atoms: N_2  and  C_3
REMARK    3  A    between atoms: C_9  and  C_10
REMARK    4  A    between atoms: C_10  and  O_12
REMARK    5  A    between atoms: O_12  and  C_13
REMARK    6  A    between atoms: C_13  and  C_14
REMARK    7  A    between atoms: C_13  and  C_15
REMARK    8  A    between atoms: C_13  and  C_16
REMARK                            x       y       z     vdW  Elec       q    Type
REMARK                         _______ _______ _______ _____ _____    ______ ____
ROOT
ATOM      1  C   UNL     1       3.263  14.831  18.700  0.00  0.00    +0.000 C 
ATOM      2  N   UNL     1       2.586  13.573  19.005  0.00  0.00    +0.000 N 
ATOM      3  C   UNL     1       2.577  12.625  17.898  0.00  0.00    +0.000 C 
ATOM      4  C   UNL     1       1.752  13.603  20.135  0.00  0.00    +0.000 C 
ATOM      5  O   UNL     1       1.708  14.648  20.789  0.00  0.00    +0.000 OA
ATOM      6  N   UNL     1       1.021  12.452  20.509  0.00  0.00    +0.000 N 
ATOM      7  C   UNL     1       1.463  11.143  20.061  0.00  0.00    +0.000 C 
ATOM      8  C   UNL     1       0.858   9.976  20.704  0.00  0.00    +0.000 A 
ATOM      9  C   UNL     1       1.034   8.622  20.462  0.00  0.00    +0.000 A 
ATOM     10  N   UNL     1       0.176   7.907  21.275  0.00  0.00    +0.000 NA
ATOM     11  C   UNL     1      -0.495   8.813  21.960  0.00  0.00    +0.000 A 
ATOM     12  N   UNL     1      -0.114  10.093  21.642  0.00  0.00    +0.000 N 
ATOM     13  C   UNL     1      -0.597  11.334  22.081  0.00  0.00    +0.000 A 
ATOM     14  C   UNL     1      -1.604  11.380  23.062  0.00  0.00    +0.000 A 
ATOM     15  C   UNL     1      -2.109  12.606  23.480  0.00  0.00    +0.000 A 
ATOM     16  C   UNL     1      -1.624  13.774  22.905  0.00  0.00    +0.000 A 
ATOM     17 CL   UNL     1      -2.271  15.290  23.403  0.00  0.00    +0.000 Cl
ATOM     18  C   UNL     1      -0.623  13.728  21.925  0.00  0.00    +0.000 A 
ATOM     19  C   UNL     1      -0.051  12.511  21.507  0.00  0.00    +0.000 A 
ENDROOT
BRANCH   9  20
ATOM     20  C   UNL     1       1.952   8.060  19.465  0.00  0.00    +0.000 C 
ATOM     21  O   UNL     1       1.894   8.376  18.282  0.00  0.00    +0.000 OA
BRANCH  20  22
ATOM     22  O   UNL     1       2.827   7.148  19.985  0.00  0.00    +0.000 OA
BRANCH  22  23
ATOM     23  C   UNL     1       2.731   5.751  19.607  0.00  0.00    +0.000 C 
ATOM     24  C   UNL     1       2.110   5.592  18.213  0.00  0.00    +0.000 C 
ATOM     25  C   UNL     1       4.180   5.241  19.552  0.00  0.00    +0.000 C 
ATOM     26  C   UNL     1       1.980   4.929  20.663  0.00  0.00    +0.000 C 
ENDBRANCH  22  23
ENDBRANCH  20  22
ENDBRANCH   9  20
TORSDOF 3
ENDMDL
