MODEL 1
REMARK VINA RESULT:      -7.3      0.000      0.000
REMARK  Name = 
REMARK  8 active torsions:
REMARK  status: ('A' for Active; 'I' for Inactive)
REMARK    1  A    between atoms: C_1  and  O_2
REMARK    2  A    between atoms: O_2  and  C_3
REMARK    3  A    between atoms: C_3  and  C_5
REMARK    4  A    between atoms: C_14  and  C_16
REMARK    5  A    between atoms: C_16  and  N_17
REMARK    6  A    between atoms: N_20  and  C_21
REMARK    7  A    between atoms: C_21  and  C_22
REMARK    8  A    between atoms: C_25  and  C_26
REMARK                            x       y       z     vdW  Elec       q    Type
REMARK                         _______ _______ _______ _____ _____    ______ ____
ROOT
ATOM      1  C   UNL     1       2.779   4.383  18.026  0.00  0.00    +0.000 C 
ATOM      2  C   UNL     1       3.854   3.298  17.759  0.00  0.00    +0.000 C 
ATOM      3  C   UNL     1       4.760   3.995  16.793  0.00  0.00    +0.000 A 
ATOM      4  C   UNL     1       5.849   3.489  16.101  0.00  0.00    +0.000 A 
ATOM      5  C   UNL     1       6.578   4.355  15.278  0.00  0.00    +0.000 A 
ATOM      6  C   UNL     1       6.190   5.693  15.126  0.00  0.00    +0.000 A 
ATOM      7  C   UNL     1       5.120   6.200  15.861  0.00  0.00    +0.000 A 
ATOM      8  C   UNL     1       4.457   5.354  16.735  0.00  0.00    +0.000 A 
ATOM      9  N   UNL     1       3.448   5.670  17.667  0.00  0.00    +0.000 N 
ATOM     10  C   UNL     1       3.146   6.972  18.031  0.00  0.00    +0.000 C 
ATOM     11  O   UNL     1       3.899   7.924  17.790  0.00  0.00    +0.000 OA
ENDROOT
BRANCH   1  12
ATOM     12  C   UNL     1       2.338   4.248  19.475  0.00  0.00    +0.000 C 
ATOM     13  O   UNL     1       3.068   4.419  20.444  0.00  0.00    +0.000 OA
BRANCH  12  15
ATOM     14  C   UNL     1       0.691   2.618  19.038  0.00  0.00    +0.000 C 
ATOM     15  O   UNL     1       1.022   3.927  19.541  0.00  0.00    +0.000 OA
ENDBRANCH  12  15
ENDBRANCH   1  12
BRANCH  10  16
ATOM     16  C   UNL     1       1.872   7.269  18.821  0.00  0.00    +0.000 C 
BRANCH  16  17
ATOM     17  N   UNL     1       1.954   8.517  19.598  0.00  0.00    +0.000 NA
ATOM     18  C   UNL     1       1.295   9.628  18.887  0.00  0.00    +0.000 C 
ATOM     19  C   UNL     1      -0.208   9.840  19.179  0.00  0.00    +0.000 C 
ATOM     20  N   UNL     1      -0.583   9.898  20.600  0.00  0.00    +0.000 NA
ATOM     21  C   UNL     1      -0.012   8.726  21.290  0.00  0.00    +0.000 C 
ATOM     22  C   UNL     1       1.466   8.387  20.985  0.00  0.00    +0.000 C 
BRANCH  20  23
ATOM     23  C   UNL     1      -0.186  11.147  21.274  0.00  0.00    +0.000 C 
BRANCH  23  24
ATOM     24  C   UNL     1      -1.314  11.999  21.836  0.00  0.00    +0.000 A 
ATOM     25  C   UNL     1      -1.840  13.117  21.176  0.00  0.00    +0.000 A 
ATOM     26  C   UNL     1      -2.885  13.861  21.745  0.00  0.00    +0.000 A 
ATOM     27  C   UNL     1      -3.446  13.478  22.969  0.00  0.00    +0.000 A 
ATOM     28  C   UNL     1      -4.519  14.288  23.637  0.00  0.00    +0.000 C 
ATOM     29  C   UNL     1      -2.965  12.328  23.599  0.00  0.00    +0.000 A 
ATOM     30  C   UNL     1      -1.917  11.595  23.040  0.00  0.00    +0.000 A 
ENDBRANCH  23  24
ENDBRANCH  20  23
ENDBRANCH  16  17
ENDBRANCH  10  16
TORSDOF 6
ENDMDL
MODEL 2
REMARK VINA RESULT:      -7.1      0.812      1.254
REMARK  Name = 
REMARK  8 active torsions:
REMARK  status: ('A' for Active; 'I' for Inactive)
REMARK    1  A    between atoms: C_1  and  O_2
REMARK    2  A    between atoms: O_2  and  C_3
REMARK    3  A    between atoms: C_3  and  C_5
REMARK    4  A    between atoms: C_14  and  C_16
REMARK    5  A    between atoms: C_16  and  N_17
REMARK    6  A    between atoms: N_20  and  C_21
REMARK    7  A    between atoms: C_21  and  C_22
REMARK    8  A    between atoms: C_25  and  C_26
REMARK                            x       y       z     vdW  Elec       q    Type
REMARK                         _______ _______ _______ _____ _____    ______ ____
ROOT
ATOM      1  C   UNL     1       2.620   4.385  17.830  0.00  0.00    +0.000 C 
ATOM      2  C   UNL     1       3.582   3.214  17.503  0.00  0.00    +0.000 C 
ATOM      3  C   UNL     1       4.595   3.884  16.629  0.00  0.00    +0.000 A 
ATOM      4  C   UNL     1       5.650   3.320  15.929  0.00  0.00    +0.000 A 
ATOM      5  C   UNL     1       6.499   4.166  15.206  0.00  0.00    +0.000 A 
ATOM      6  C   UNL     1       6.263   5.546  15.159  0.00  0.00    +0.000 A 
ATOM      7  C   UNL     1       5.225   6.106  15.902  0.00  0.00    +0.000 A 
ATOM      8  C   UNL     1       4.442   5.268  16.680  0.00  0.00    +0.000 A 
ATOM      9  N   UNL     1       3.437   5.616  17.604  0.00  0.00    +0.000 N 
ATOM     10  C   UNL     1       3.262   6.908  18.070  0.00  0.00    +0.000 C 
ATOM     11  O   UNL     1       4.121   7.788  17.934  0.00  0.00    +0.000 OA
ENDROOT
BRANCH   1  12
ATOM     12  C   UNL     1       2.111   4.180  19.249  0.00  0.00    +0.000 C 
ATOM     13  O   UNL     1       0.930   4.188  19.573  0.00  0.00    +0.000 OA
BRANCH  12  15
ATOM     14  C   UNL     1       2.954   2.900  21.041  0.00  0.00    +0.000 C 
ATOM     15  O   UNL     1       3.148   3.972  20.098  0.00  0.00    +0.000 OA
ENDBRANCH  12  15
ENDBRANCH   1  12
BRANCH  10  16
ATOM     16  C   UNL     1       1.997   7.278  18.844  0.00  0.00    +0.000 C 
BRANCH  16  17
ATOM     17  N   UNL     1       1.974   8.686  19.273  0.00  0.00    +0.000 NA
ATOM     18  C   UNL     1       1.438   9.555  18.209  0.00  0.00    +0.000 C 
ATOM     19  C   UNL     1      -0.091   9.790  18.216  0.00  0.00    +0.000 C 
ATOM     20  N   UNL     1      -0.671  10.203  19.503  0.00  0.00    +0.000 NA
ATOM     21  C   UNL     1      -0.218   9.266  20.549  0.00  0.00    +0.000 C 
ATOM     22  C   UNL     1       1.286   8.905  20.560  0.00  0.00    +0.000 C 
BRANCH  20  23
ATOM     23  C   UNL     1      -0.366  11.595  19.879  0.00  0.00    +0.000 C 
BRANCH  23  24
ATOM     24  C   UNL     1      -1.187  12.181  21.017  0.00  0.00    +0.000 A 
ATOM     25  C   UNL     1      -0.651  12.503  22.271  0.00  0.00    +0.000 A 
ATOM     26  C   UNL     1      -1.460  13.046  23.281  0.00  0.00    +0.000 A 
ATOM     27  C   UNL     1      -2.814  13.309  23.041  0.00  0.00    +0.000 A 
ATOM     28  C   UNL     1      -3.722  13.828  24.118  0.00  0.00    +0.000 C 
ATOM     29  C   UNL     1      -3.337  13.048  21.772  0.00  0.00    +0.000 A 
ATOM     30  C   UNL     1      -2.535  12.496  20.773  0.00  0.00    +0.000 A 
ENDBRANCH  23  24
ENDBRANCH  20  23
ENDBRANCH  16  17
ENDBRANCH  10  16
TORSDOF 6
ENDMDL
MODEL 3
REMARK VINA RESULT:      -7.1      3.938     10.243
REMARK  Name = 
REMARK  8 active torsions:
REMARK  status: ('A' for Active; 'I' for Inactive)
REMARK    1  A    between atoms: C_1  and  O_2
REMARK    2  A    between atoms: O_2  and  C_3
REMARK    3  A    between atoms: C_3  and  C_5
REMARK    4  A    between atoms: C_14  and  C_16
REMARK    5  A    between atoms: C_16  and  N_17
REMARK    6  A    between atoms: N_20  and  C_21
REMARK    7  A    between atoms: C_21  and  C_22
REMARK    8  A    between atoms: C_25  and  C_26
REMARK                            x       y       z     vdW  Elec       q    Type
REMARK                         _______ _______ _______ _____ _____    ______ ____
ROOT
ATOM      1  C   UNL     1      -4.682  10.816  18.126  0.00  0.00    +0.000 C 
ATOM      2  C   UNL     1      -6.204  11.113  18.105  0.00  0.00    +0.000 C 
ATOM      3  C   UNL     1      -6.407  11.766  19.437  0.00  0.00    +0.000 A 
ATOM      4  C   UNL     1      -7.591  12.157  20.043  0.00  0.00    +0.000 A 
ATOM      5  C   UNL     1      -7.524  12.795  21.287  0.00  0.00    +0.000 A 
ATOM      6  C   UNL     1      -6.291  12.997  21.922  0.00  0.00    +0.000 A 
ATOM      7  C   UNL     1      -5.106  12.640  21.282  0.00  0.00    +0.000 A 
ATOM      8  C   UNL     1      -5.180  12.084  20.015  0.00  0.00    +0.000 A 
ATOM      9  N   UNL     1      -4.127  11.771  19.131  0.00  0.00    +0.000 N 
ATOM     10  C   UNL     1      -2.834  12.232  19.314  0.00  0.00    +0.000 C 
ATOM     11  O   UNL     1      -2.559  13.158  20.088  0.00  0.00    +0.000 OA
ENDROOT
BRANCH   1  12
ATOM     12  C   UNL     1      -4.164  10.975  16.705  0.00  0.00    +0.000 C 
ATOM     13  O   UNL     1      -4.298  11.983  16.022  0.00  0.00    +0.000 OA
BRANCH  12  15
ATOM     14  C   UNL     1      -3.044   9.870  14.948  0.00  0.00    +0.000 C 
ATOM     15  O   UNL     1      -3.519   9.849  16.308  0.00  0.00    +0.000 OA
ENDBRANCH  12  15
ENDBRANCH   1  12
BRANCH  10  16
ATOM     16  C   UNL     1      -1.688  11.641  18.493  0.00  0.00    +0.000 C 
BRANCH  16  17
ATOM     17  N   UNL     1      -1.318  10.281  18.918  0.00  0.00    +0.000 NA
ATOM     18  C   UNL     1      -0.578   9.576  17.855  0.00  0.00    +0.000 C 
ATOM     19  C   UNL     1       0.961   9.729  17.868  0.00  0.00    +0.000 C 
ATOM     20  N   UNL     1       1.620   9.469  19.156  0.00  0.00    +0.000 NA
ATOM     21  C   UNL     1       0.945  10.259  20.203  0.00  0.00    +0.000 C 
ATOM     22  C   UNL     1      -0.602  10.235  20.208  0.00  0.00    +0.000 C 
BRANCH  20  23
ATOM     23  C   UNL     1       1.670   8.044  19.527  0.00  0.00    +0.000 C 
BRANCH  23  24
ATOM     24  C   UNL     1       2.558   7.154  18.671  0.00  0.00    +0.000 A 
ATOM     25  C   UNL     1       3.607   7.641  17.879  0.00  0.00    +0.000 A 
ATOM     26  C   UNL     1       4.394   6.768  17.113  0.00  0.00    +0.000 A 
ATOM     27  C   UNL     1       4.168   5.387  17.153  0.00  0.00    +0.000 A 
ATOM     28  C   UNL     1       4.948   4.431  16.297  0.00  0.00    +0.000 C 
ATOM     29  C   UNL     1       3.164   4.893  17.990  0.00  0.00    +0.000 A 
ATOM     30  C   UNL     1       2.373   5.762  18.741  0.00  0.00    +0.000 A 
ENDBRANCH  23  24
ENDBRANCH  20  23
ENDBRANCH  16  17
ENDBRANCH  10  16
TORSDOF 6
ENDMDL
MODEL 4
REMARK VINA RESULT:      -7.0      3.356     10.357
REMARK  Name = 
REMARK  8 active torsions:
REMARK  status: ('A' for Active; 'I' for Inactive)
REMARK    1  A    between atoms: C_1  and  O_2
REMARK    2  A    between atoms: O_2  and  C_3
REMARK    3  A    between atoms: C_3  and  C_5
REMARK    4  A    between atoms: C_14  and  C_16
REMARK    5  A    between atoms: C_16  and  N_17
REMARK    6  A    between atoms: N_20  and  C_21
REMARK    7  A    between atoms: C_21  and  C_22
REMARK    8  A    between atoms: C_25  and  C_26
REMARK                            x       y       z     vdW  Elec       q    Type
REMARK                         _______ _______ _______ _____ _____    ______ ____
ROOT
ATOM      1  C   UNL     1      -2.652  13.209  22.712  0.00  0.00    +0.000 C 
ATOM      2  C   UNL     1      -3.532  12.764  23.908  0.00  0.00    +0.000 C 
ATOM      3  C   UNL     1      -4.901  12.776  23.303  0.00  0.00    +0.000 A 
ATOM      4  C   UNL     1      -6.126  12.574  23.919  0.00  0.00    +0.000 A 
ATOM      5  C   UNL     1      -7.281  12.589  23.128  0.00  0.00    +0.000 A 
ATOM      6  C   UNL     1      -7.201  12.842  21.752  0.00  0.00    +0.000 A 
ATOM      7  C   UNL     1      -5.960  13.000  21.138  0.00  0.00    +0.000 A 
ATOM      8  C   UNL     1      -4.819  12.900  21.918  0.00  0.00    +0.000 A 
ATOM      9  N   UNL     1      -3.472  12.892  21.504  0.00  0.00    +0.000 N 
ATOM     10  C   UNL     1      -3.095  12.717  20.183  0.00  0.00    +0.000 C 
ATOM     11  O   UNL     1      -3.871  12.288  19.319  0.00  0.00    +0.000 OA
ENDROOT
BRANCH   1  12
ATOM     12  C   UNL     1      -1.323  12.477  22.821  0.00  0.00    +0.000 C 
ATOM     13  O   UNL     1      -0.252  13.012  23.084  0.00  0.00    +0.000 OA
BRANCH  12  15
ATOM     14  C   UNL     1      -0.636  10.291  23.376  0.00  0.00    +0.000 C 
ATOM     15  O   UNL     1      -1.494  11.150  22.601  0.00  0.00    +0.000 OA
ENDBRANCH  12  15
ENDBRANCH   1  12
BRANCH  10  16
ATOM     16  C   UNL     1      -1.654  12.994  19.756  0.00  0.00    +0.000 C 
BRANCH  16  17
ATOM     17  N   UNL     1      -1.154  12.031  18.760  0.00  0.00    +0.000 NA
ATOM     18  C   UNL     1       0.261  12.288  18.438  0.00  0.00    +0.000 C 
ATOM     19  C   UNL     1       1.311  11.555  19.305  0.00  0.00    +0.000 C 
ATOM     20  N   UNL     1       1.117  10.106  19.459  0.00  0.00    +0.000 NA
ATOM     21  C   UNL     1      -0.273   9.856  19.887  0.00  0.00    +0.000 C 
ATOM     22  C   UNL     1      -1.385  10.620  19.129  0.00  0.00    +0.000 C 
BRANCH  20  23
ATOM     23  C   UNL     1       1.440   9.326  18.251  0.00  0.00    +0.000 C 
BRANCH  23  24
ATOM     24  C   UNL     1       2.295   8.085  18.458  0.00  0.00    +0.000 A 
ATOM     25  C   UNL     1       2.134   7.207  19.538  0.00  0.00    +0.000 A 
ATOM     26  C   UNL     1       2.951   6.074  19.672  0.00  0.00    +0.000 A 
ATOM     27  C   UNL     1       3.924   5.782  18.708  0.00  0.00    +0.000 A 
ATOM     28  C   UNL     1       4.859   4.617  18.854  0.00  0.00    +0.000 C 
ATOM     29  C   UNL     1       4.045   6.622  17.598  0.00  0.00    +0.000 A 
ATOM     30  C   UNL     1       3.240   7.755  17.472  0.00  0.00    +0.000 A 
ENDBRANCH  23  24
ENDBRANCH  20  23
ENDBRANCH  16  17
ENDBRANCH  10  16
TORSDOF 6
ENDMDL
MODEL 5
REMARK VINA RESULT:      -6.8      2.820     10.341
REMARK  Name = 
REMARK  8 active torsions:
REMARK  status: ('A' for Active; 'I' for Inactive)
REMARK    1  A    between atoms: C_1  and  O_2
REMARK    2  A    between atoms: O_2  and  C_3
REMARK    3  A    between atoms: C_3  and  C_5
REMARK    4  A    between atoms: C_14  and  C_16
REMARK    5  A    between atoms: C_16  and  N_17
REMARK    6  A    between atoms: N_20  and  C_21
REMARK    7  A    between atoms: C_21  and  C_22
REMARK    8  A    between atoms: C_25  and  C_26
REMARK                            x       y       z     vdW  Elec       q    Type
REMARK                         _______ _______ _______ _____ _____    ______ ____
ROOT
ATOM      1  C   UNL     1      -1.595  12.968  20.107  0.00  0.00    +0.000 C 
ATOM      2  C   UNL     1      -2.569  14.110  20.499  0.00  0.00    +0.000 C 
ATOM      3  C   UNL     1      -3.130  13.605  21.791  0.00  0.00    +0.000 A 
ATOM      4  C   UNL     1      -4.143  14.142  22.569  0.00  0.00    +0.000 A 
ATOM      5  C   UNL     1      -4.467  13.508  23.774  0.00  0.00    +0.000 A 
ATOM      6  C   UNL     1      -3.808  12.334  24.164  0.00  0.00    +0.000 A 
ATOM      7  C   UNL     1      -2.762  11.829  23.394  0.00  0.00    +0.000 A 
ATOM      8  C   UNL     1      -2.395  12.512  22.246  0.00  0.00    +0.000 A 
ATOM      9  N   UNL     1      -1.298  12.271  21.394  0.00  0.00    +0.000 N 
ATOM     10  C   UNL     1      -0.246  11.441  21.745  0.00  0.00    +0.000 C 
ATOM     11  O   UNL     1      -0.046  11.072  22.909  0.00  0.00    +0.000 OA
ENDROOT
BRANCH   1  12
ATOM     12  C   UNL     1      -0.403  13.601  19.407  0.00  0.00    +0.000 C 
ATOM     13  O   UNL     1      -0.048  13.343  18.263  0.00  0.00    +0.000 OA
BRANCH  12  15
ATOM     14  C   UNL     1       0.822  15.611  19.544  0.00  0.00    +0.000 C 
ATOM     15  O   UNL     1       0.202  14.501  20.222  0.00  0.00    +0.000 OA
ENDBRANCH  12  15
ENDBRANCH   1  12
BRANCH  10  16
ATOM     16  C   UNL     1       0.764  10.999  20.686  0.00  0.00    +0.000 C 
BRANCH  16  17
ATOM     17  N   UNL     1       0.333   9.803  19.942  0.00  0.00    +0.000 NA
ATOM     18  C   UNL     1       0.764   9.871  18.534  0.00  0.00    +0.000 C 
ATOM     19  C   UNL     1       2.150   9.268  18.207  0.00  0.00    +0.000 C 
ATOM     20  N   UNL     1       2.393   7.908  18.711  0.00  0.00    +0.000 NA
ATOM     21  C   UNL     1       2.062   7.870  20.149  0.00  0.00    +0.000 C 
ATOM     22  C   UNL     1       0.732   8.532  20.578  0.00  0.00    +0.000 C 
BRANCH  20  23
ATOM     23  C   UNL     1       1.664   6.858  17.979  0.00  0.00    +0.000 C 
BRANCH  23  24
ATOM     24  C   UNL     1       2.240   5.452  18.063  0.00  0.00    +0.000 A 
ATOM     25  C   UNL     1       3.506   5.105  17.573  0.00  0.00    +0.000 A 
ATOM     26  C   UNL     1       3.984   3.791  17.685  0.00  0.00    +0.000 A 
ATOM     27  C   UNL     1       3.217   2.807  18.321  0.00  0.00    +0.000 A 
ATOM     28  C   UNL     1       3.670   1.378  18.400  0.00  0.00    +0.000 C 
ATOM     29  C   UNL     1       1.982   3.165  18.866  0.00  0.00    +0.000 A 
ATOM     30  C   UNL     1       1.501   4.469  18.743  0.00  0.00    +0.000 A 
ENDBRANCH  23  24
ENDBRANCH  20  23
ENDBRANCH  16  17
ENDBRANCH  10  16
TORSDOF 6
ENDMDL
MODEL 6
REMARK VINA RESULT:      -6.8      3.626     10.613
REMARK  Name = 
REMARK  8 active torsions:
REMARK  status: ('A' for Active; 'I' for Inactive)
REMARK    1  A    between atoms: C_1  and  O_2
REMARK    2  A    between atoms: O_2  and  C_3
REMARK    3  A    between atoms: C_3  and  C_5
REMARK    4  A    between atoms: C_14  and  C_16
REMARK    5  A    between atoms: C_16  and  N_17
REMARK    6  A    between atoms: N_20  and  C_21
REMARK    7  A    between atoms: C_21  and  C_22
REMARK    8  A    between atoms: C_25  and  C_26
REMARK                            x       y       z     vdW  Elec       q    Type
REMARK                         _______ _______ _______ _____ _____    ______ ____
ROOT
ATOM      1  C   UNL     1      -2.918  13.606  23.026  0.00  0.00    +0.000 C 
ATOM      2  C   UNL     1      -3.805  13.116  24.200  0.00  0.00    +0.000 C 
ATOM      3  C   UNL     1      -5.150  13.022  23.550  0.00  0.00    +0.000 A 
ATOM      4  C   UNL     1      -6.378  12.742  24.128  0.00  0.00    +0.000 A 
ATOM      5  C   UNL     1      -7.503  12.663  23.299  0.00  0.00    +0.000 A 
ATOM      6  C   UNL     1      -7.395  12.902  21.922  0.00  0.00    +0.000 A 
ATOM      7  C   UNL     1      -6.148  13.139  21.348  0.00  0.00    +0.000 A 
ATOM      8  C   UNL     1      -5.030  13.132  22.166  0.00  0.00    +0.000 A 
ATOM      9  N   UNL     1      -3.672  13.214  21.798  0.00  0.00    +0.000 N 
ATOM     10  C   UNL     1      -3.239  13.048  20.493  0.00  0.00    +0.000 C 
ATOM     11  O   UNL     1      -3.952  12.552  19.611  0.00  0.00    +0.000 OA
ENDROOT
BRANCH   1  12
ATOM     12  C   UNL     1      -1.545  12.973  23.192  0.00  0.00    +0.000 C 
ATOM     13  O   UNL     1      -1.309  11.778  23.065  0.00  0.00    +0.000 OA
BRANCH  12  15
ATOM     14  C   UNL     1      -1.029  15.274  23.207  0.00  0.00    +0.000 C 
ATOM     15  O   UNL     1      -0.620  13.920  23.483  0.00  0.00    +0.000 OA
ENDBRANCH  12  15
ENDBRANCH   1  12
BRANCH  10  16
ATOM     16  C   UNL     1      -1.807  13.420  20.109  0.00  0.00    +0.000 C 
BRANCH  16  17
ATOM     17  N   UNL     1      -1.235  12.529  19.086  0.00  0.00    +0.000 NA
ATOM     18  C   UNL     1       0.197  12.811  18.878  0.00  0.00    +0.000 C 
ATOM     19  C   UNL     1       1.192  12.022  19.762  0.00  0.00    +0.000 C 
ATOM     20  N   UNL     1       0.997  10.565  19.803  0.00  0.00    +0.000 NA
ATOM     21  C   UNL     1      -0.417  10.284  20.118  0.00  0.00    +0.000 C 
ATOM     22  C   UNL     1      -1.480  11.096  19.342  0.00  0.00    +0.000 C 
BRANCH  20  23
ATOM     23  C   UNL     1       1.406   9.871  18.569  0.00  0.00    +0.000 C 
BRANCH  23  24
ATOM     24  C   UNL     1       1.980   8.472  18.741  0.00  0.00    +0.000 A 
ATOM     25  C   UNL     1       2.743   7.825  17.760  0.00  0.00    +0.000 A 
ATOM     26  C   UNL     1       3.249   6.534  17.979  0.00  0.00    +0.000 A 
ATOM     27  C   UNL     1       3.028   5.882  19.199  0.00  0.00    +0.000 A 
ATOM     28  C   UNL     1       3.498   4.478  19.442  0.00  0.00    +0.000 C 
ATOM     29  C   UNL     1       2.320   6.551  20.201  0.00  0.00    +0.000 A 
ATOM     30  C   UNL     1       1.807   7.829  19.978  0.00  0.00    +0.000 A 
ENDBRANCH  23  24
ENDBRANCH  20  23
ENDBRANCH  16  17
ENDBRANCH  10  16
TORSDOF 6
ENDMDL
MODEL 7
REMARK VINA RESULT:      -6.8      1.400      2.190
REMARK  Name = 
REMARK  8 active torsions:
REMARK  status: ('A' for Active; 'I' for Inactive)
REMARK    1  A    between atoms: C_1  and  O_2
REMARK    2  A    between atoms: O_2  and  C_3
REMARK    3  A    between atoms: C_3  and  C_5
REMARK    4  A    between atoms: C_14  and  C_16
REMARK    5  A    between atoms: C_16  and  N_17
REMARK    6  A    between atoms: N_20  and  C_21
REMARK    7  A    between atoms: C_21  and  C_22
REMARK    8  A    between atoms: C_25  and  C_26
REMARK                            x       y       z     vdW  Elec       q    Type
REMARK                         _______ _______ _______ _____ _____    ______ ____
ROOT
ATOM      1  C   UNL     1       2.524   4.261  17.889  0.00  0.00    +0.000 C 
ATOM      2  C   UNL     1       3.514   3.120  17.539  0.00  0.00    +0.000 C 
ATOM      3  C   UNL     1       4.510   3.831  16.678  0.00  0.00    +0.000 A 
ATOM      4  C   UNL     1       5.578   3.305  15.967  0.00  0.00    +0.000 A 
ATOM      5  C   UNL     1       6.406   4.185  15.260  0.00  0.00    +0.000 A 
ATOM      6  C   UNL     1       6.137   5.560  15.240  0.00  0.00    +0.000 A 
ATOM      7  C   UNL     1       5.087   6.080  15.994  0.00  0.00    +0.000 A 
ATOM      8  C   UNL     1       4.324   5.209  16.755  0.00  0.00    +0.000 A 
ATOM      9  N   UNL     1       3.311   5.515  17.686  0.00  0.00    +0.000 N 
ATOM     10  C   UNL     1       3.106   6.794  18.177  0.00  0.00    +0.000 C 
ATOM     11  O   UNL     1       3.944   7.697  18.058  0.00  0.00    +0.000 OA
ENDROOT
BRANCH   1  12
ATOM     12  C   UNL     1       2.021   4.017  19.303  0.00  0.00    +0.000 C 
ATOM     13  O   UNL     1       0.841   4.005  19.631  0.00  0.00    +0.000 OA
BRANCH  12  15
ATOM     14  C   UNL     1       2.767   2.942  21.265  0.00  0.00    +0.000 C 
ATOM     15  O   UNL     1       3.062   3.798  20.144  0.00  0.00    +0.000 OA
ENDBRANCH  12  15
ENDBRANCH   1  12
BRANCH  10  16
ATOM     16  C   UNL     1       1.832   7.118  18.958  0.00  0.00    +0.000 C 
BRANCH  16  17
ATOM     17  N   UNL     1       1.972   8.303  19.820  0.00  0.00    +0.000 NA
ATOM     18  C   UNL     1       1.435   9.506  19.158  0.00  0.00    +0.000 C 
ATOM     19  C   UNL     1      -0.060   9.817  19.399  0.00  0.00    +0.000 C 
ATOM     20  N   UNL     1      -0.498   9.814  20.802  0.00  0.00    +0.000 NA
ATOM     21  C   UNL     1      -0.052   8.559  21.436  0.00  0.00    +0.000 C 
ATOM     22  C   UNL     1       1.410   8.124  21.173  0.00  0.00    +0.000 C 
BRANCH  20  23
ATOM     23  C   UNL     1      -0.040  10.982  21.576  0.00  0.00    +0.000 C 
BRANCH  23  24
ATOM     24  C   UNL     1      -0.186  12.338  20.902  0.00  0.00    +0.000 A 
ATOM     25  C   UNL     1      -1.416  12.988  20.733  0.00  0.00    +0.000 A 
ATOM     26  C   UNL     1      -1.486  14.241  20.106  0.00  0.00    +0.000 A 
ATOM     27  C   UNL     1      -0.321  14.883  19.668  0.00  0.00    +0.000 A 
ATOM     28  C   UNL     1      -0.366  16.193  18.936  0.00  0.00    +0.000 C 
ATOM     29  C   UNL     1       0.912  14.265  19.892  0.00  0.00    +0.000 A 
ATOM     30  C   UNL     1       0.980  13.013  20.504  0.00  0.00    +0.000 A 
ENDBRANCH  23  24
ENDBRANCH  20  23
ENDBRANCH  16  17
ENDBRANCH  10  16
TORSDOF 6
ENDMDL
MODEL 8
REMARK VINA RESULT:      -6.8      2.719     10.272
REMARK  Name = 
REMARK  8 active torsions:
REMARK  status: ('A' for Active; 'I' for Inactive)
REMARK    1  A    between atoms: C_1  and  O_2
REMARK    2  A    between atoms: O_2  and  C_3
REMARK    3  A    between atoms: C_3  and  C_5
REMARK    4  A    between atoms: C_14  and  C_16
REMARK    5  A    between atoms: C_16  and  N_17
REMARK    6  A    between atoms: N_20  and  C_21
REMARK    7  A    between atoms: C_21  and  C_22
REMARK    8  A    between atoms: C_25  and  C_26
REMARK                            x       y       z     vdW  Elec       q    Type
REMARK                         _______ _______ _______ _____ _____    ______ ____
ROOT
ATOM      1  C   UNL     1      -0.736  13.329  20.388  0.00  0.00    +0.000 C 
ATOM      2  C   UNL     1      -1.454  14.594  20.925  0.00  0.00    +0.000 C 
ATOM      3  C   UNL     1      -2.295  14.025  22.025  0.00  0.00    +0.000 A 
ATOM      4  C   UNL     1      -3.249  14.656  22.807  0.00  0.00    +0.000 A 
ATOM      5  C   UNL     1      -3.880  13.919  23.815  0.00  0.00    +0.000 A 
ATOM      6  C   UNL     1      -3.581  12.562  24.003  0.00  0.00    +0.000 A 
ATOM      7  C   UNL     1      -2.588  11.951  23.240  0.00  0.00    +0.000 A 
ATOM      8  C   UNL     1      -1.912  12.713  22.301  0.00  0.00    +0.000 A 
ATOM      9  N   UNL     1      -0.797  12.354  21.518  0.00  0.00    +0.000 N 
ATOM     10  C   UNL     1      -0.033  11.228  21.775  0.00  0.00    +0.000 C 
ATOM     11  O   UNL     1      -0.091  10.613  22.847  0.00  0.00    +0.000 OA
ENDROOT
BRANCH   1  12
ATOM     12  C   UNL     1       0.659  13.745  19.947  0.00  0.00    +0.000 C 
ATOM     13  O   UNL     1       1.484  14.292  20.668  0.00  0.00    +0.000 OA
BRANCH  12  15
ATOM     14  C   UNL     1       2.244  13.407  18.233  0.00  0.00    +0.000 C 
ATOM     15  O   UNL     1       0.864  13.411  18.648  0.00  0.00    +0.000 OA
ENDBRANCH  12  15
ENDBRANCH   1  12
BRANCH  10  16
ATOM     16  C   UNL     1       0.981  10.739  20.741  0.00  0.00    +0.000 C 
BRANCH  16  17
ATOM     17  N   UNL     1       0.508   9.572  19.978  0.00  0.00    +0.000 NA
ATOM     18  C   UNL     1       0.884   9.680  18.557  0.00  0.00    +0.000 C 
ATOM     19  C   UNL     1       2.249   9.074  18.155  0.00  0.00    +0.000 C 
ATOM     20  N   UNL     1       2.497   7.697  18.607  0.00  0.00    +0.000 NA
ATOM     21  C   UNL     1       2.223   7.616  20.055  0.00  0.00    +0.000 C 
ATOM     22  C   UNL     1       0.918   8.277  20.557  0.00  0.00    +0.000 C 
BRANCH  20  23
ATOM     23  C   UNL     1       1.728   6.677  17.872  0.00  0.00    +0.000 C 
BRANCH  23  24
ATOM     24  C   UNL     1       2.215   5.241  18.002  0.00  0.00    +0.000 A 
ATOM     25  C   UNL     1       1.397   4.182  18.416  0.00  0.00    +0.000 A 
ATOM     26  C   UNL     1       1.904   2.878  18.512  0.00  0.00    +0.000 A 
ATOM     27  C   UNL     1       3.232   2.604  18.161  0.00  0.00    +0.000 A 
ATOM     28  C   UNL     1       3.824   1.233  18.313  0.00  0.00    +0.000 C 
ATOM     29  C   UNL     1       4.031   3.646  17.687  0.00  0.00    +0.000 A 
ATOM     30  C   UNL     1       3.530   4.946  17.604  0.00  0.00    +0.000 A 
ENDBRANCH  23  24
ENDBRANCH  20  23
ENDBRANCH  16  17
ENDBRANCH  10  16
TORSDOF 6
ENDMDL
MODEL 9
REMARK VINA RESULT:      -6.8      1.091      1.171
REMARK  Name = 
REMARK  8 active torsions:
REMARK  status: ('A' for Active; 'I' for Inactive)
REMARK    1  A    between atoms: C_1  and  O_2
REMARK    2  A    between atoms: O_2  and  C_3
REMARK    3  A    between atoms: C_3  and  C_5
REMARK    4  A    between atoms: C_14  and  C_16
REMARK    5  A    between atoms: C_16  and  N_17
REMARK    6  A    between atoms: N_20  and  C_21
REMARK    7  A    between atoms: C_21  and  C_22
REMARK    8  A    between atoms: C_25  and  C_26
REMARK                            x       y       z     vdW  Elec       q    Type
REMARK                         _______ _______ _______ _____ _____    ______ ____
ROOT
ATOM      1  C   UNL     1       2.755   4.407  17.931  0.00  0.00    +0.000 C 
ATOM      2  C   UNL     1       3.766   3.267  17.646  0.00  0.00    +0.000 C 
ATOM      3  C   UNL     1       4.706   3.924  16.684  0.00  0.00    +0.000 A 
ATOM      4  C   UNL     1       5.763   3.367  15.981  0.00  0.00    +0.000 A 
ATOM      5  C   UNL     1       6.534   4.201  15.165  0.00  0.00    +0.000 A 
ATOM      6  C   UNL     1       6.221   5.561  15.031  0.00  0.00    +0.000 A 
ATOM      7  C   UNL     1       5.183   6.117  15.777  0.00  0.00    +0.000 A 
ATOM      8  C   UNL     1       4.479   5.299  16.644  0.00  0.00    +0.000 A 
ATOM      9  N   UNL     1       3.492   5.659  17.584  0.00  0.00    +0.000 N 
ATOM     10  C   UNL     1       3.265   6.971  17.965  0.00  0.00    +0.000 C 
ATOM     11  O   UNL     1       4.068   7.883  17.732  0.00  0.00    +0.000 OA
ENDROOT
BRANCH   1  12
ATOM     12  C   UNL     1       2.314   4.279  19.381  0.00  0.00    +0.000 C 
ATOM     13  O   UNL     1       3.046   4.439  20.350  0.00  0.00    +0.000 OA
BRANCH  12  15
ATOM     14  C   UNL     1       0.656   2.633  19.059  0.00  0.00    +0.000 C 
ATOM     15  O   UNL     1       0.993   3.978  19.449  0.00  0.00    +0.000 OA
ENDBRANCH  12  15
ENDBRANCH   1  12
BRANCH  10  16
ATOM     16  C   UNL     1       2.012   7.329  18.765  0.00  0.00    +0.000 C 
BRANCH  16  17
ATOM     17  N   UNL     1       2.001   8.728  19.222  0.00  0.00    +0.000 NA
ATOM     18  C   UNL     1       1.477   9.623  18.174  0.00  0.00    +0.000 C 
ATOM     19  C   UNL     1      -0.050   9.872  18.179  0.00  0.00    +0.000 C 
ATOM     20  N   UNL     1      -0.631  10.264  19.472  0.00  0.00    +0.000 NA
ATOM     21  C   UNL     1      -0.191   9.303  20.501  0.00  0.00    +0.000 C 
ATOM     22  C   UNL     1       1.310   8.928  20.511  0.00  0.00    +0.000 C 
BRANCH  20  23
ATOM     23  C   UNL     1      -0.316  11.646  19.877  0.00  0.00    +0.000 C 
BRANCH  23  24
ATOM     24  C   UNL     1      -1.492  12.507  20.311  0.00  0.00    +0.000 A 
ATOM     25  C   UNL     1      -2.819  12.240  19.951  0.00  0.00    +0.000 A 
ATOM     26  C   UNL     1      -3.863  13.071  20.387  0.00  0.00    +0.000 A 
ATOM     27  C   UNL     1      -3.600  14.165  21.220  0.00  0.00    +0.000 A 
ATOM     28  C   UNL     1      -4.682  15.111  21.651  0.00  0.00    +0.000 C 
ATOM     29  C   UNL     1      -2.285  14.396  21.631  0.00  0.00    +0.000 A 
ATOM     30  C   UNL     1      -1.246  13.578  21.187  0.00  0.00    +0.000 A 
ENDBRANCH  23  24
ENDBRANCH  20  23
ENDBRANCH  16  17
ENDBRANCH  10  16
TORSDOF 6
ENDMDL
