MODEL 1
REMARK VINA RESULT:      -6.6      0.000      0.000
REMARK  Name = 
REMARK  6 active torsions:
REMARK  status: ('A' for Active; 'I' for Inactive)
REMARK    1  A    between atoms: C_1  and  O_2
REMARK    2  A    between atoms: O_2  and  C_3
REMARK    3  A    between atoms: C_3  and  C_5
REMARK    4  A    between atoms: C_5  and  C_6
REMARK    5  A    between atoms: C_5  and  C_8
REMARK    6  A    between atoms: C_6  and  N_7
REMARK                            x       y       z     vdW  Elec       q    Type
REMARK                         _______ _______ _______ _____ _____    ______ ____
ROOT
ATOM      1  C   UNL     1       4.885   5.091  17.600  0.00  0.00    +0.000 A 
ATOM      2  C   UNL     1       4.951   4.025  18.483  0.00  0.00    +0.000 A 
ATOM      3  N   UNL     1       4.078   4.247  19.509  0.00  0.00    +0.000 N 
ATOM      4  C   UNL     1       3.424   5.442  19.324  0.00  0.00    +0.000 A 
ATOM      5  C   UNL     1       2.414   6.034  20.092  0.00  0.00    +0.000 A 
ATOM      6  C   UNL     1       1.913   7.267  19.668  0.00  0.00    +0.000 A 
ATOM      7  C   UNL     1       2.428   7.884  18.533  0.00  0.00    +0.000 A 
ATOM      8 BR   UNL     1       1.724   9.553  17.982  0.00  0.00    +0.000 Br
ATOM      9  C   UNL     1       3.446   7.288  17.780  0.00  0.00    +0.000 A 
ATOM     10  C   UNL     1       3.944   6.023  18.164  0.00  0.00    +0.000 A 
ATOM     11  H   UNL     1       3.910   3.614  20.279  0.00  0.00    +0.000 HD
ENDROOT
BRANCH   1  12
ATOM     12  C   UNL     1       5.644   5.170  16.283  0.00  0.00    +0.000 C 
BRANCH  12  13
ATOM     13  C   UNL     1       7.144   5.325  16.497  0.00  0.00    +0.000 C 
ATOM     14  O   UNL     1       7.907   4.414  16.795  0.00  0.00    +0.000 OA
BRANCH  13  16
ATOM     15  C   UNL     1       7.574   7.379  17.545  0.00  0.00    +0.000 C 
ATOM     16  O   UNL     1       7.531   6.625  16.334  0.00  0.00    +0.000 OA
ENDBRANCH  13  16
ENDBRANCH  12  13
BRANCH  12  17
ATOM     17  C   UNL     1       5.384   3.966  15.353  0.00  0.00    +0.000 C 
BRANCH  17  18
ATOM     18  N   UNL     1       6.426   3.749  14.336  0.00  0.00    +0.000 NA
ATOM     19  H   UNL     1       6.880   4.644  14.140  0.00  0.00    +0.000 HD
ATOM     20  H   UNL     1       5.981   3.468  13.463  0.00  0.00    +0.000 HD
ENDBRANCH  17  18
ENDBRANCH  12  17
ENDBRANCH   1  12
TORSDOF 5
ENDMDL
MODEL 2
REMARK VINA RESULT:      -6.5      2.804      3.610
REMARK  Name = 
REMARK  6 active torsions:
REMARK  status: ('A' for Active; 'I' for Inactive)
REMARK    1  A    between atoms: C_1  and  O_2
REMARK    2  A    between atoms: O_2  and  C_3
REMARK    3  A    between atoms: C_3  and  C_5
REMARK    4  A    between atoms: C_5  and  C_6
REMARK    5  A    between atoms: C_5  and  C_8
REMARK    6  A    between atoms: C_6  and  N_7
REMARK                            x       y       z     vdW  Elec       q    Type
REMARK                         _______ _______ _______ _____ _____    ______ ____
ROOT
ATOM      1  C   UNL     1       5.277   5.271  16.636  0.00  0.00    +0.000 A 
ATOM      2  C   UNL     1       5.272   6.653  16.546  0.00  0.00    +0.000 A 
ATOM      3  N   UNL     1       4.181   7.134  17.211  0.00  0.00    +0.000 N 
ATOM      4  C   UNL     1       3.459   6.097  17.750  0.00  0.00    +0.000 A 
ATOM      5  C   UNL     1       2.310   6.130  18.551  0.00  0.00    +0.000 A 
ATOM      6  C   UNL     1       1.777   4.911  18.975  0.00  0.00    +0.000 A 
ATOM      7  C   UNL     1       2.364   3.712  18.585  0.00  0.00    +0.000 A 
ATOM      8 BR   UNL     1       1.620   2.076  19.180  0.00  0.00    +0.000 Br
ATOM      9  C   UNL     1       3.505   3.691  17.775  0.00  0.00    +0.000 A 
ATOM     10  C   UNL     1       4.088   4.910  17.365  0.00  0.00    +0.000 A 
ATOM     11  H   UNL     1       3.950   8.112  17.322  0.00  0.00    +0.000 HD
ENDROOT
BRANCH   1  12
ATOM     12  C   UNL     1       6.382   4.373  16.097  0.00  0.00    +0.000 C 
BRANCH  12  13
ATOM     13  C   UNL     1       6.696   4.670  14.637  0.00  0.00    +0.000 C 
ATOM     14  O   UNL     1       7.633   5.357  14.247  0.00  0.00    +0.000 OA
BRANCH  13  16
ATOM     15  C   UNL     1       6.331   3.582  12.591  0.00  0.00    +0.000 C 
ATOM     16  O   UNL     1       5.780   4.085  13.809  0.00  0.00    +0.000 OA
ENDBRANCH  13  16
ENDBRANCH  12  13
BRANCH  12  17
ATOM     17  C   UNL     1       7.684   4.442  16.922  0.00  0.00    +0.000 C 
BRANCH  17  18
ATOM     18  N   UNL     1       7.483   4.391  18.379  0.00  0.00    +0.000 NA
ATOM     19  H   UNL     1       7.676   5.317  18.767  0.00  0.00    +0.000 HD
ATOM     20  H   UNL     1       8.182   3.770  18.787  0.00  0.00    +0.000 HD
ENDBRANCH  17  18
ENDBRANCH  12  17
ENDBRANCH   1  12
TORSDOF 5
ENDMDL
MODEL 3
REMARK VINA RESULT:      -6.5      1.617      1.948
REMARK  Name = 
REMARK  6 active torsions:
REMARK  status: ('A' for Active; 'I' for Inactive)
REMARK    1  A    between atoms: C_1  and  O_2
REMARK    2  A    between atoms: O_2  and  C_3
REMARK    3  A    between atoms: C_3  and  C_5
REMARK    4  A    between atoms: C_5  and  C_6
REMARK    5  A    between atoms: C_5  and  C_8
REMARK    6  A    between atoms: C_6  and  N_7
REMARK                            x       y       z     vdW  Elec       q    Type
REMARK                         _______ _______ _______ _____ _____    ______ ____
ROOT
ATOM      1  C   UNL     1       4.593   4.910  17.143  0.00  0.00    +0.000 A 
ATOM      2  C   UNL     1       4.579   3.535  16.970  0.00  0.00    +0.000 A 
ATOM      3  N   UNL     1       3.678   2.991  17.840  0.00  0.00    +0.000 N 
ATOM      4  C   UNL     1       3.085   3.980  18.588  0.00  0.00    +0.000 A 
ATOM      5  C   UNL     1       2.072   3.884  19.551  0.00  0.00    +0.000 A 
ATOM      6  C   UNL     1       1.642   5.064  20.161  0.00  0.00    +0.000 A 
ATOM      7  C   UNL     1       2.227   6.282  19.831  0.00  0.00    +0.000 A 
ATOM      8 BR   UNL     1       1.618   7.864  20.674  0.00  0.00    +0.000 Br
ATOM      9  C   UNL     1       3.246   6.364  18.875  0.00  0.00    +0.000 A 
ATOM     10  C   UNL     1       3.673   5.191  18.214  0.00  0.00    +0.000 A 
ATOM     11  H   UNL     1       3.453   2.007  17.907  0.00  0.00    +0.000 HD
ENDROOT
BRANCH   1  12
ATOM     12  C   UNL     1       5.404   5.879  16.294  0.00  0.00    +0.000 C 
BRANCH  12  13
ATOM     13  C   UNL     1       6.596   6.443  17.055  0.00  0.00    +0.000 C 
ATOM     14  O   UNL     1       7.003   7.596  16.966  0.00  0.00    +0.000 OA
BRANCH  13  16
ATOM     15  C   UNL     1       7.760   5.995  19.042  0.00  0.00    +0.000 C 
ATOM     16  O   UNL     1       7.173   5.488  17.843  0.00  0.00    +0.000 OA
ENDBRANCH  13  16
ENDBRANCH  12  13
BRANCH  12  17
ATOM     17  C   UNL     1       5.893   5.267  14.964  0.00  0.00    +0.000 C 
BRANCH  17  18
ATOM     18  N   UNL     1       7.356   5.250  14.805  0.00  0.00    +0.000 NA
ATOM     19  H   UNL     1       7.690   4.298  14.972  0.00  0.00    +0.000 HD
ATOM     20  H   UNL     1       7.774   5.822  15.538  0.00  0.00    +0.000 HD
ENDBRANCH  17  18
ENDBRANCH  12  17
ENDBRANCH   1  12
TORSDOF 5
ENDMDL
MODEL 4
REMARK VINA RESULT:      -6.4      1.613      1.805
REMARK  Name = 
REMARK  6 active torsions:
REMARK  status: ('A' for Active; 'I' for Inactive)
REMARK    1  A    between atoms: C_1  and  O_2
REMARK    2  A    between atoms: O_2  and  C_3
REMARK    3  A    between atoms: C_3  and  C_5
REMARK    4  A    between atoms: C_5  and  C_6
REMARK    5  A    between atoms: C_5  and  C_8
REMARK    6  A    between atoms: C_6  and  N_7
REMARK                            x       y       z     vdW  Elec       q    Type
REMARK                         _______ _______ _______ _____ _____    ______ ____
ROOT
ATOM      1  C   UNL     1       4.545   4.878  17.314  0.00  0.00    +0.000 A 
ATOM      2  C   UNL     1       4.519   3.507  17.118  0.00  0.00    +0.000 A 
ATOM      3  N   UNL     1       3.593   2.959  17.958  0.00  0.00    +0.000 N 
ATOM      4  C   UNL     1       2.994   3.942  18.709  0.00  0.00    +0.000 A 
ATOM      5  C   UNL     1       1.960   3.842  19.649  0.00  0.00    +0.000 A 
ATOM      6  C   UNL     1       1.530   5.017  20.269  0.00  0.00    +0.000 A 
ATOM      7  C   UNL     1       2.136   6.233  19.972  0.00  0.00    +0.000 A 
ATOM      8 BR   UNL     1       1.525   7.809  20.827  0.00  0.00    +0.000 Br
ATOM      9  C   UNL     1       3.176   6.319  19.041  0.00  0.00    +0.000 A 
ATOM     10  C   UNL     1       3.604   5.152  18.369  0.00  0.00    +0.000 A 
ATOM     11  H   UNL     1       3.355   1.977  18.004  0.00  0.00    +0.000 HD
ENDROOT
BRANCH   1  12
ATOM     12  C   UNL     1       5.386   5.852  16.499  0.00  0.00    +0.000 C 
BRANCH  12  13
ATOM     13  C   UNL     1       6.578   6.374  17.289  0.00  0.00    +0.000 C 
ATOM     14  O   UNL     1       7.165   5.751  18.167  0.00  0.00    +0.000 OA
BRANCH  13  16
ATOM     15  C   UNL     1       7.921   8.253  17.702  0.00  0.00    +0.000 C 
ATOM     16  O   UNL     1       6.902   7.645  16.907  0.00  0.00    +0.000 OA
ENDBRANCH  13  16
ENDBRANCH  12  13
BRANCH  12  17
ATOM     17  C   UNL     1       5.880   5.264  15.161  0.00  0.00    +0.000 C 
BRANCH  17  18
ATOM     18  N   UNL     1       7.326   5.406  14.933  0.00  0.00    +0.000 NA
ATOM     19  H   UNL     1       7.823   4.858  15.639  0.00  0.00    +0.000 HD
ATOM     20  H   UNL     1       7.592   6.377  15.099  0.00  0.00    +0.000 HD
ENDBRANCH  17  18
ENDBRANCH  12  17
ENDBRANCH   1  12
TORSDOF 5
ENDMDL
MODEL 5
REMARK VINA RESULT:      -6.4      2.359      3.527
REMARK  Name = 
REMARK  6 active torsions:
REMARK  status: ('A' for Active; 'I' for Inactive)
REMARK    1  A    between atoms: C_1  and  O_2
REMARK    2  A    between atoms: O_2  and  C_3
REMARK    3  A    between atoms: C_3  and  C_5
REMARK    4  A    between atoms: C_5  and  C_6
REMARK    5  A    between atoms: C_5  and  C_8
REMARK    6  A    between atoms: C_6  and  N_7
REMARK                            x       y       z     vdW  Elec       q    Type
REMARK                         _______ _______ _______ _____ _____    ______ ____
ROOT
ATOM      1  C   UNL     1       6.294   4.855  17.493  0.00  0.00    +0.000 A 
ATOM      2  C   UNL     1       6.418   4.254  16.251  0.00  0.00    +0.000 A 
ATOM      3  N   UNL     1       5.208   3.734  15.890  0.00  0.00    +0.000 N 
ATOM      4  C   UNL     1       4.275   3.981  16.868  0.00  0.00    +0.000 A 
ATOM      5  C   UNL     1       2.907   3.680  16.894  0.00  0.00    +0.000 A 
ATOM      6  C   UNL     1       2.180   4.056  18.025  0.00  0.00    +0.000 A 
ATOM      7  C   UNL     1       2.812   4.685  19.092  0.00  0.00    +0.000 A 
ATOM      8 BR   UNL     1       1.796   5.187  20.609  0.00  0.00    +0.000 Br
ATOM      9  C   UNL     1       4.181   4.970  19.061  0.00  0.00    +0.000 A 
ATOM     10  C   UNL     1       4.933   4.636  17.912  0.00  0.00    +0.000 A 
ATOM     11  H   UNL     1       5.013   3.262  15.017  0.00  0.00    +0.000 HD
ENDROOT
BRANCH   1  12
ATOM     12  C   UNL     1       7.403   5.626  18.195  0.00  0.00    +0.000 C 
BRANCH  12  13
ATOM     13  C   UNL     1       7.495   7.065  17.704  0.00  0.00    +0.000 C 
ATOM     14  O   UNL     1       6.902   7.512  16.729  0.00  0.00    +0.000 OA
BRANCH  13  16
ATOM     15  C   UNL     1       8.370   9.190  18.174  0.00  0.00    +0.000 C 
ATOM     16  O   UNL     1       8.346   7.796  18.483  0.00  0.00    +0.000 OA
ENDBRANCH  13  16
ENDBRANCH  12  13
BRANCH  12  17
ATOM     17  C   UNL     1       7.275   5.620  19.733  0.00  0.00    +0.000 C 
BRANCH  17  18
ATOM     18  N   UNL     1       8.506   5.237  20.442  0.00  0.00    +0.000 NA
ATOM     19  H   UNL     1       9.274   5.818  20.098  0.00  0.00    +0.000 HD
ATOM     20  H   UNL     1       8.749   4.280  20.188  0.00  0.00    +0.000 HD
ENDBRANCH  17  18
ENDBRANCH  12  17
ENDBRANCH   1  12
TORSDOF 5
ENDMDL
MODEL 6
REMARK VINA RESULT:      -6.4      2.683      3.408
REMARK  Name = 
REMARK  6 active torsions:
REMARK  status: ('A' for Active; 'I' for Inactive)
REMARK    1  A    between atoms: C_1  and  O_2
REMARK    2  A    between atoms: O_2  and  C_3
REMARK    3  A    between atoms: C_3  and  C_5
REMARK    4  A    between atoms: C_5  and  C_6
REMARK    5  A    between atoms: C_5  and  C_8
REMARK    6  A    between atoms: C_6  and  N_7
REMARK                            x       y       z     vdW  Elec       q    Type
REMARK                         _______ _______ _______ _____ _____    ______ ____
ROOT
ATOM      1  C   UNL     1       5.020   5.455  17.261  0.00  0.00    +0.000 A 
ATOM      2  C   UNL     1       4.779   6.733  16.783  0.00  0.00    +0.000 A 
ATOM      3  N   UNL     1       3.765   7.291  17.506  0.00  0.00    +0.000 N 
ATOM      4  C   UNL     1       3.326   6.409  18.465  0.00  0.00    +0.000 A 
ATOM      5  C   UNL     1       2.350   6.580  19.455  0.00  0.00    +0.000 A 
ATOM      6  C   UNL     1       2.103   5.509  20.316  0.00  0.00    +0.000 A 
ATOM      7  C   UNL     1       2.792   4.310  20.166  0.00  0.00    +0.000 A 
ATOM      8 BR   UNL     1       2.437   2.878  21.353  0.00  0.00    +0.000 Br
ATOM      9  C   UNL     1       3.757   4.147  19.165  0.00  0.00    +0.000 A 
ATOM     10  C   UNL     1       4.055   5.227  18.305  0.00  0.00    +0.000 A 
ATOM     11  H   UNL     1       3.405   8.227  17.381  0.00  0.00    +0.000 HD
ENDROOT
BRANCH   1  12
ATOM     12  C   UNL     1       6.137   4.545  16.771  0.00  0.00    +0.000 C 
BRANCH  12  13
ATOM     13  C   UNL     1       6.532   4.851  15.332  0.00  0.00    +0.000 C 
ATOM     14  O   UNL     1       7.538   5.467  14.998  0.00  0.00    +0.000 OA
BRANCH  13  16
ATOM     15  C   UNL     1       6.165   3.727  13.307  0.00  0.00    +0.000 C 
ATOM     16  O   UNL     1       5.605   4.365  14.454  0.00  0.00    +0.000 OA
ENDBRANCH  13  16
ENDBRANCH  12  13
BRANCH  12  17
ATOM     17  C   UNL     1       7.396   4.584  17.664  0.00  0.00    +0.000 C 
BRANCH  17  18
ATOM     18  N   UNL     1       7.840   5.939  18.026  0.00  0.00    +0.000 NA
ATOM     19  H   UNL     1       7.986   6.474  17.167  0.00  0.00    +0.000 HD
ATOM     20  H   UNL     1       8.756   5.878  18.471  0.00  0.00    +0.000 HD
ENDBRANCH  17  18
ENDBRANCH  12  17
ENDBRANCH   1  12
TORSDOF 5
ENDMDL
MODEL 7
REMARK VINA RESULT:      -6.4      3.544      5.574
REMARK  Name = 
REMARK  6 active torsions:
REMARK  status: ('A' for Active; 'I' for Inactive)
REMARK    1  A    between atoms: C_1  and  O_2
REMARK    2  A    between atoms: O_2  and  C_3
REMARK    3  A    between atoms: C_3  and  C_5
REMARK    4  A    between atoms: C_5  and  C_6
REMARK    5  A    between atoms: C_5  and  C_8
REMARK    6  A    between atoms: C_6  and  N_7
REMARK                            x       y       z     vdW  Elec       q    Type
REMARK                         _______ _______ _______ _____ _____    ______ ____
ROOT
ATOM      1  C   UNL     1       4.199   5.004  18.526  0.00  0.00    +0.000 A 
ATOM      2  C   UNL     1       5.022   5.181  19.627  0.00  0.00    +0.000 A 
ATOM      3  N   UNL     1       6.321   5.038  19.234  0.00  0.00    +0.000 N 
ATOM      4  C   UNL     1       6.383   4.775  17.886  0.00  0.00    +0.000 A 
ATOM      5  C   UNL     1       7.501   4.614  17.058  0.00  0.00    +0.000 A 
ATOM      6  C   UNL     1       7.276   4.358  15.704  0.00  0.00    +0.000 A 
ATOM      7  C   UNL     1       5.979   4.244  15.215  0.00  0.00    +0.000 A 
ATOM      8 BR   UNL     1       5.707   3.901  13.372  0.00  0.00    +0.000 Br
ATOM      9  C   UNL     1       4.869   4.395  16.054  0.00  0.00    +0.000 A 
ATOM     10  C   UNL     1       5.068   4.694  17.420  0.00  0.00    +0.000 A 
ATOM     11  H   UNL     1       7.127   5.142  19.835  0.00  0.00    +0.000 HD
ENDROOT
BRANCH   1  12
ATOM     12  C   UNL     1       2.687   5.174  18.541  0.00  0.00    +0.000 C 
BRANCH  12  13
ATOM     13  C   UNL     1       1.964   3.887  18.166  0.00  0.00    +0.000 C 
ATOM     14  O   UNL     1       1.048   3.808  17.356  0.00  0.00    +0.000 OA
BRANCH  13  16
ATOM     15  C   UNL     1       2.944   1.759  18.051  0.00  0.00    +0.000 C 
ATOM     16  O   UNL     1       2.458   2.824  18.868  0.00  0.00    +0.000 OA
ENDBRANCH  13  16
ENDBRANCH  12  13
BRANCH  12  17
ATOM     17  C   UNL     1       2.141   5.690  19.890  0.00  0.00    +0.000 C 
BRANCH  17  18
ATOM     18  N   UNL     1       1.172   4.790  20.535  0.00  0.00    +0.000 NA
ATOM     19  H   UNL     1       1.156   3.906  20.022  0.00  0.00    +0.000 HD
ATOM     20  H   UNL     1       0.237   5.185  20.434  0.00  0.00    +0.000 HD
ENDBRANCH  17  18
ENDBRANCH  12  17
ENDBRANCH   1  12
TORSDOF 5
ENDMDL
MODEL 8
REMARK VINA RESULT:      -6.4      4.017      5.472
REMARK  Name = 
REMARK  6 active torsions:
REMARK  status: ('A' for Active; 'I' for Inactive)
REMARK    1  A    between atoms: C_1  and  O_2
REMARK    2  A    between atoms: O_2  and  C_3
REMARK    3  A    between atoms: C_3  and  C_5
REMARK    4  A    between atoms: C_5  and  C_6
REMARK    5  A    between atoms: C_5  and  C_8
REMARK    6  A    between atoms: C_6  and  N_7
REMARK                            x       y       z     vdW  Elec       q    Type
REMARK                         _______ _______ _______ _____ _____    ______ ____
ROOT
ATOM      1  C   UNL     1       3.034   4.279  18.816  0.00  0.00    +0.000 A 
ATOM      2  C   UNL     1       2.604   5.409  19.494  0.00  0.00    +0.000 A 
ATOM      3  N   UNL     1       3.111   6.515  18.874  0.00  0.00    +0.000 N 
ATOM      4  C   UNL     1       3.869   6.144  17.788  0.00  0.00    +0.000 A 
ATOM      5  C   UNL     1       4.524   6.943  16.843  0.00  0.00    +0.000 A 
ATOM      6  C   UNL     1       5.227   6.299  15.822  0.00  0.00    +0.000 A 
ATOM      7  C   UNL     1       5.286   4.910  15.775  0.00  0.00    +0.000 A 
ATOM      8 BR   UNL     1       6.243   4.067  14.376  0.00  0.00    +0.000 Br
ATOM      9  C   UNL     1       4.637   4.122  16.732  0.00  0.00    +0.000 A 
ATOM     10  C   UNL     1       3.886   4.747  17.753  0.00  0.00    +0.000 A 
ATOM     11  H   UNL     1       2.933   7.471  19.150  0.00  0.00    +0.000 HD
ENDROOT
BRANCH   1  12
ATOM     12  C   UNL     1       2.607   2.857  19.148  0.00  0.00    +0.000 C 
BRANCH  12  13
ATOM     13  C   UNL     1       1.122   2.770  19.475  0.00  0.00    +0.000 C 
ATOM     14  O   UNL     1       0.252   2.406  18.692  0.00  0.00    +0.000 OA
BRANCH  13  16
ATOM     15  C   UNL     1       1.703   2.540  21.736  0.00  0.00    +0.000 C 
ATOM     16  O   UNL     1       0.877   3.171  20.757  0.00  0.00    +0.000 OA
ENDBRANCH  13  16
ENDBRANCH  12  13
BRANCH  12  17
ATOM     17  C   UNL     1       2.944   1.840  18.037  0.00  0.00    +0.000 C 
BRANCH  17  18
ATOM     18  N   UNL     1       3.978   0.859  18.406  0.00  0.00    +0.000 NA
ATOM     19  H   UNL     1       3.519  -0.024  18.638  0.00  0.00    +0.000 HD
ATOM     20  H   UNL     1       4.434   1.168  19.264  0.00  0.00    +0.000 HD
ENDBRANCH  17  18
ENDBRANCH  12  17
ENDBRANCH   1  12
TORSDOF 5
ENDMDL
MODEL 9
REMARK VINA RESULT:      -6.3      3.876      5.355
REMARK  Name = 
REMARK  6 active torsions:
REMARK  status: ('A' for Active; 'I' for Inactive)
REMARK    1  A    between atoms: C_1  and  O_2
REMARK    2  A    between atoms: O_2  and  C_3
REMARK    3  A    between atoms: C_3  and  C_5
REMARK    4  A    between atoms: C_5  and  C_6
REMARK    5  A    between atoms: C_5  and  C_8
REMARK    6  A    between atoms: C_6  and  N_7
REMARK                            x       y       z     vdW  Elec       q    Type
REMARK                         _______ _______ _______ _____ _____    ______ ____
ROOT
ATOM      1  C   UNL     1       4.345   3.976  18.604  0.00  0.00    +0.000 A 
ATOM      2  C   UNL     1       4.924   4.698  19.635  0.00  0.00    +0.000 A 
ATOM      3  N   UNL     1       5.998   5.384  19.144  0.00  0.00    +0.000 N 
ATOM      4  C   UNL     1       6.144   5.137  17.800  0.00  0.00    +0.000 A 
ATOM      5  C   UNL     1       7.068   5.667  16.890  0.00  0.00    +0.000 A 
ATOM      6  C   UNL     1       6.987   5.245  15.561  0.00  0.00    +0.000 A 
ATOM      7  C   UNL     1       6.033   4.309  15.176  0.00  0.00    +0.000 A 
ATOM      8 BR   UNL     1       5.947   3.761  13.365  0.00  0.00    +0.000 Br
ATOM      9  C   UNL     1       5.123   3.778  16.096  0.00  0.00    +0.000 A 
ATOM     10  C   UNL     1       5.156   4.217  17.438  0.00  0.00    +0.000 A 
ATOM     11  H   UNL     1       6.585   6.008  19.680  0.00  0.00    +0.000 HD
ENDROOT
BRANCH   1  12
ATOM     12  C   UNL     1       3.069   3.156  18.733  0.00  0.00    +0.000 C 
BRANCH  12  13
ATOM     13  C   UNL     1       1.830   3.970  18.387  0.00  0.00    +0.000 C 
ATOM     14  O   UNL     1       1.343   4.064  17.267  0.00  0.00    +0.000 OA
BRANCH  13  16
ATOM     15  C   UNL     1       1.165   3.757  20.627  0.00  0.00    +0.000 C 
ATOM     16  O   UNL     1       1.336   4.606  19.491  0.00  0.00    +0.000 OA
ENDBRANCH  13  16
ENDBRANCH  12  13
BRANCH  12  17
ATOM     17  C   UNL     1       3.083   1.865  17.888  0.00  0.00    +0.000 C 
BRANCH  17  18
ATOM     18  N   UNL     1       4.016   0.834  18.369  0.00  0.00    +0.000 NA
ATOM     19  H   UNL     1       3.475   0.084  18.806  0.00  0.00    +0.000 HD
ATOM     20  H   UNL     1       4.590   1.230  19.113  0.00  0.00    +0.000 HD
ENDBRANCH  17  18
ENDBRANCH  12  17
ENDBRANCH   1  12
TORSDOF 5
ENDMDL
