MODEL 1
REMARK VINA RESULT:      -7.4      0.000      0.000
REMARK  Name = 
REMARK  6 active torsions:
REMARK  status: ('A' for Active; 'I' for Inactive)
REMARK    1  A    between atoms: C_1  and  O_2
REMARK    2  A    between atoms: O_2  and  C_3
REMARK    3  A    between atoms: C_6  and  O_7
REMARK    4  A    between atoms: O_7  and  C_8
REMARK    5  A    between atoms: C_9  and  S_10
REMARK    6  A    between atoms: S_10  and  N_13
REMARK                            x       y       z     vdW  Elec       q    Type
REMARK                         _______ _______ _______ _____ _____    ______ ____
ROOT
ATOM      1  S   UNL     1       4.388   4.012  18.888  0.00  0.00    +0.000 S 
ATOM      2  O   UNL     1       4.240   2.576  18.981  0.00  0.00    +0.000 OA
ATOM      3  O   UNL     1       4.901   4.765  20.018  0.00  0.00    +0.000 OA
ENDROOT
BRANCH   1   4
ATOM      4  N   UNL     1       2.850   4.615  18.506  0.00  0.00    +0.000 NA
ATOM      5  C   UNL     1       1.773   4.558  19.548  0.00  0.00    +0.000 C 
ATOM      6  C   UNL     1       1.749   5.794  20.474  0.00  0.00    +0.000 C 
ATOM      7  N   UNL     1       1.663   7.015  19.648  0.00  0.00    +0.000 N 
ATOM      8  C   UNL     1       1.386   8.189  20.364  0.00  0.00    +0.000 A 
ATOM      9  C   UNL     1       0.928   9.308  19.661  0.00  0.00    +0.000 A 
ATOM     10  C   UNL     1       0.603  10.481  20.341  0.00  0.00    +0.000 A 
ATOM     11  C   UNL     1       0.743  10.519  21.718  0.00  0.00    +0.000 A 
ATOM     12  C   UNL     1       1.192   9.373  22.351  0.00  0.00    +0.000 A 
ATOM     13  N   UNL     1       1.501   8.219  21.708  0.00  0.00    +0.000 NA
ATOM     14  C   UNL     1       2.816   7.143  18.734  0.00  0.00    +0.000 C 
ATOM     15  C   UNL     1       2.843   5.934  17.782  0.00  0.00    +0.000 C 
ENDBRANCH   1   4
BRANCH   1  20
ATOM     16  C   UNL     1       5.620   4.242  15.054  0.00  0.00    +0.000 A 
ATOM     17  C   UNL     1       6.958   4.602  15.141  0.00  0.00    +0.000 A 
ATOM     18  C   UNL     1       7.548   4.791  16.390  0.00  0.00    +0.000 A 
ATOM     19  C   UNL     1       6.815   4.653  17.583  0.00  0.00    +0.000 A 
ATOM     20  C   UNL     1       5.444   4.375  17.496  0.00  0.00    +0.000 A 
ATOM     21  C   UNL     1       4.857   4.171  16.221  0.00  0.00    +0.000 A 
BRANCH  16  23
ATOM     22  C   UNL     1       6.160   3.594  12.841  0.00  0.00    +0.000 C 
ATOM     23  O   UNL     1       5.170   3.979  13.792  0.00  0.00    +0.000 OA
ENDBRANCH  16  23
BRANCH  19  24
ATOM     24  O   UNL     1       7.643   4.665  18.669  0.00  0.00    +0.000 OA
ATOM     25  C   UNL     1       8.003   5.908  19.241  0.00  0.00    +0.000 C 
ENDBRANCH  19  24
ENDBRANCH   1  20
TORSDOF 4
ENDMDL
MODEL 2
REMARK VINA RESULT:      -7.0      1.118      1.822
REMARK  Name = 
REMARK  6 active torsions:
REMARK  status: ('A' for Active; 'I' for Inactive)
REMARK    1  A    between atoms: C_1  and  O_2
REMARK    2  A    between atoms: O_2  and  C_3
REMARK    3  A    between atoms: C_6  and  O_7
REMARK    4  A    between atoms: O_7  and  C_8
REMARK    5  A    between atoms: C_9  and  S_10
REMARK    6  A    between atoms: S_10  and  N_13
REMARK                            x       y       z     vdW  Elec       q    Type
REMARK                         _______ _______ _______ _____ _____    ______ ____
ROOT
ATOM      1  S   UNL     1       3.739   3.693  18.191  0.00  0.00    +0.000 S 
ATOM      2  O   UNL     1       2.450   4.035  17.630  0.00  0.00    +0.000 OA
ATOM      3  O   UNL     1       4.014   2.331  18.607  0.00  0.00    +0.000 OA
ENDROOT
BRANCH   1   4
ATOM      4  N   UNL     1       3.946   4.709  19.534  0.00  0.00    +0.000 NA
ATOM      5  C   UNL     1       4.463   6.098  19.315  0.00  0.00    +0.000 C 
ATOM      6  C   UNL     1       3.350   7.129  19.026  0.00  0.00    +0.000 C 
ATOM      7  N   UNL     1       2.345   7.070  20.107  0.00  0.00    +0.000 N 
ATOM      8  C   UNL     1       1.413   8.119  20.099  0.00  0.00    +0.000 A 
ATOM      9  C   UNL     1       0.668   8.361  21.258  0.00  0.00    +0.000 A 
ATOM     10  C   UNL     1      -0.238   9.418  21.303  0.00  0.00    +0.000 A 
ATOM     11  C   UNL     1      -0.391  10.220  20.185  0.00  0.00    +0.000 A 
ATOM     12  C   UNL     1       0.384   9.930  19.076  0.00  0.00    +0.000 A 
ATOM     13  N   UNL     1       1.280   8.915  19.017  0.00  0.00    +0.000 NA
ATOM     14  C   UNL     1       1.724   5.734  20.209  0.00  0.00    +0.000 C 
ATOM     15  C   UNL     1       2.814   4.694  20.525  0.00  0.00    +0.000 C 
ENDBRANCH   1   4
BRANCH   1  20
ATOM     16  C   UNL     1       5.549   4.184  14.620  0.00  0.00    +0.000 A 
ATOM     17  C   UNL     1       6.858   4.518  14.937  0.00  0.00    +0.000 A 
ATOM     18  C   UNL     1       7.249   4.608  16.272  0.00  0.00    +0.000 A 
ATOM     19  C   UNL     1       6.340   4.394  17.325  0.00  0.00    +0.000 A 
ATOM     20  C   UNL     1       4.998   4.141  17.008  0.00  0.00    +0.000 A 
ATOM     21  C   UNL     1       4.615   4.039  15.647  0.00  0.00    +0.000 A 
BRANCH  16  23
ATOM     22  C   UNL     1       6.389   3.553  12.496  0.00  0.00    +0.000 C 
ATOM     23  O   UNL     1       5.298   4.019  13.287  0.00  0.00    +0.000 OA
ENDBRANCH  16  23
BRANCH  19  24
ATOM     24  O   UNL     1       6.990   4.316  18.523  0.00  0.00    +0.000 OA
ATOM     25  C   UNL     1       7.882   5.354  18.887  0.00  0.00    +0.000 C 
ENDBRANCH  19  24
ENDBRANCH   1  20
TORSDOF 4
ENDMDL
MODEL 3
REMARK VINA RESULT:      -6.8      3.155      6.023
REMARK  Name = 
REMARK  6 active torsions:
REMARK  status: ('A' for Active; 'I' for Inactive)
REMARK    1  A    between atoms: C_1  and  O_2
REMARK    2  A    between atoms: O_2  and  C_3
REMARK    3  A    between atoms: C_6  and  O_7
REMARK    4  A    between atoms: O_7  and  C_8
REMARK    5  A    between atoms: C_9  and  S_10
REMARK    6  A    between atoms: S_10  and  N_13
REMARK                            x       y       z     vdW  Elec       q    Type
REMARK                         _______ _______ _______ _____ _____    ______ ____
ROOT
ATOM      1  S   UNL     1       2.218   3.032  17.890  0.00  0.00    +0.000 S 
ATOM      2  O   UNL     1       1.575   1.887  18.497  0.00  0.00    +0.000 OA
ATOM      3  O   UNL     1       1.886   3.417  16.531  0.00  0.00    +0.000 OA
ENDROOT
BRANCH   1   4
ATOM      4  N   UNL     1       3.884   2.723  17.961  0.00  0.00    +0.000 NA
ATOM      5  C   UNL     1       4.727   3.035  16.762  0.00  0.00    +0.000 C 
ATOM      6  C   UNL     1       5.255   4.486  16.742  0.00  0.00    +0.000 C 
ATOM      7  N   UNL     1       5.962   4.760  18.009  0.00  0.00    +0.000 N 
ATOM      8  C   UNL     1       6.700   5.954  18.023  0.00  0.00    +0.000 A 
ATOM      9  C   UNL     1       7.679   6.123  19.007  0.00  0.00    +0.000 A 
ATOM     10  C   UNL     1       8.460   7.277  19.030  0.00  0.00    +0.000 A 
ATOM     11  C   UNL     1       8.250   8.249  18.067  0.00  0.00    +0.000 A 
ATOM     12  C   UNL     1       7.272   8.012  17.117  0.00  0.00    +0.000 A 
ATOM     13  N   UNL     1       6.511   6.891  17.070  0.00  0.00    +0.000 NA
ATOM     14  C   UNL     1       5.075   4.605  19.179  0.00  0.00    +0.000 C 
ATOM     15  C   UNL     1       4.559   3.156  19.234  0.00  0.00    +0.000 C 
ENDBRANCH   1   4
BRANCH   1  20
ATOM     16  C   UNL     1       2.276   6.871  19.129  0.00  0.00    +0.000 A 
ATOM     17  C   UNL     1       1.804   6.822  20.434  0.00  0.00    +0.000 A 
ATOM     18  C   UNL     1       1.444   5.598  20.997  0.00  0.00    +0.000 A 
ATOM     19  C   UNL     1       1.520   4.397  20.269  0.00  0.00    +0.000 A 
ATOM     20  C   UNL     1       1.914   4.455  18.924  0.00  0.00    +0.000 A 
ATOM     21  C   UNL     1       2.290   5.702  18.365  0.00  0.00    +0.000 A 
BRANCH  16  23
ATOM     22  C   UNL     1       3.298   8.151  17.418  0.00  0.00    +0.000 C 
ATOM     23  O   UNL     1       2.699   8.100  18.711  0.00  0.00    +0.000 OA
ENDBRANCH  16  23
BRANCH  19  24
ATOM     24  O   UNL     1       1.334   3.318  21.085  0.00  0.00    +0.000 OA
ATOM     25  C   UNL     1       2.413   2.869  21.882  0.00  0.00    +0.000 C 
ENDBRANCH  19  24
ENDBRANCH   1  20
TORSDOF 4
ENDMDL
MODEL 4
REMARK VINA RESULT:      -6.6      1.670      2.361
REMARK  Name = 
REMARK  6 active torsions:
REMARK  status: ('A' for Active; 'I' for Inactive)
REMARK    1  A    between atoms: C_1  and  O_2
REMARK    2  A    between atoms: O_2  and  C_3
REMARK    3  A    between atoms: C_6  and  O_7
REMARK    4  A    between atoms: O_7  and  C_8
REMARK    5  A    between atoms: C_9  and  S_10
REMARK    6  A    between atoms: S_10  and  N_13
REMARK                            x       y       z     vdW  Elec       q    Type
REMARK                         _______ _______ _______ _____ _____    ______ ____
ROOT
ATOM      1  S   UNL     1       4.916   6.224  18.114  0.00  0.00    +0.000 S 
ATOM      2  O   UNL     1       5.166   5.546  19.368  0.00  0.00    +0.000 OA
ATOM      3  O   UNL     1       5.466   7.546  17.880  0.00  0.00    +0.000 OA
ENDROOT
BRANCH   1   4
ATOM      4  N   UNL     1       3.230   6.318  17.963  0.00  0.00    +0.000 NA
ATOM      5  C   UNL     1       2.375   5.723  19.042  0.00  0.00    +0.000 C 
ATOM      6  C   UNL     1       2.072   6.704  20.196  0.00  0.00    +0.000 C 
ATOM      7  N   UNL     1       1.489   7.941  19.639  0.00  0.00    +0.000 N 
ATOM      8  C   UNL     1       0.942   8.813  20.593  0.00  0.00    +0.000 A 
ATOM      9  C   UNL     1       0.059   9.807  20.160  0.00  0.00    +0.000 A 
ATOM     10  C   UNL     1      -0.536  10.667  21.081  0.00  0.00    +0.000 A 
ATOM     11  C   UNL     1      -0.238  10.522  22.425  0.00  0.00    +0.000 A 
ATOM     12  C   UNL     1       0.636   9.511  22.784  0.00  0.00    +0.000 A 
ATOM     13  N   UNL     1       1.215   8.657  21.905  0.00  0.00    +0.000 NA
ATOM     14  C   UNL     1       2.409   8.606  18.695  0.00  0.00    +0.000 C 
ATOM     15  C   UNL     1       2.702   7.655  17.520  0.00  0.00    +0.000 C 
ENDBRANCH   1   4
BRANCH   1  20
ATOM     16  C   UNL     1       6.995   5.073  14.854  0.00  0.00    +0.000 A 
ATOM     17  C   UNL     1       6.416   3.868  14.481  0.00  0.00    +0.000 A 
ATOM     18  C   UNL     1       5.352   3.350  15.218  0.00  0.00    +0.000 A 
ATOM     19  C   UNL     1       4.855   4.004  16.361  0.00  0.00    +0.000 A 
ATOM     20  C   UNL     1       5.494   5.176  16.789  0.00  0.00    +0.000 A 
ATOM     21  C   UNL     1       6.566   5.701  16.025  0.00  0.00    +0.000 A 
BRANCH  16  23
ATOM     22  C   UNL     1       7.807   5.193  12.632  0.00  0.00    +0.000 C 
ATOM     23  O   UNL     1       7.957   5.542  14.006  0.00  0.00    +0.000 OA
ENDBRANCH  16  23
BRANCH  19  24
ATOM     24  O   UNL     1       3.687   3.435  16.780  0.00  0.00    +0.000 OA
ATOM     25  C   UNL     1       3.722   2.507  17.847  0.00  0.00    +0.000 C 
ENDBRANCH  19  24
ENDBRANCH   1  20
TORSDOF 4
ENDMDL
MODEL 5
REMARK VINA RESULT:      -6.6      1.131      2.754
REMARK  Name = 
REMARK  6 active torsions:
REMARK  status: ('A' for Active; 'I' for Inactive)
REMARK    1  A    between atoms: C_1  and  O_2
REMARK    2  A    between atoms: O_2  and  C_3
REMARK    3  A    between atoms: C_6  and  O_7
REMARK    4  A    between atoms: O_7  and  C_8
REMARK    5  A    between atoms: C_9  and  S_10
REMARK    6  A    between atoms: S_10  and  N_13
REMARK                            x       y       z     vdW  Elec       q    Type
REMARK                         _______ _______ _______ _____ _____    ______ ____
ROOT
ATOM      1  S   UNL     1       4.464   3.896  18.978  0.00  0.00    +0.000 S 
ATOM      2  O   UNL     1       4.429   2.496  18.610  0.00  0.00    +0.000 OA
ATOM      3  O   UNL     1       4.669   4.279  20.362  0.00  0.00    +0.000 OA
ENDROOT
BRANCH   1   4
ATOM      4  N   UNL     1       2.988   4.550  18.460  0.00  0.00    +0.000 NA
ATOM      5  C   UNL     1       1.817   4.519  19.396  0.00  0.00    +0.000 C 
ATOM      6  C   UNL     1       1.745   5.748  20.329  0.00  0.00    +0.000 C 
ATOM      7  N   UNL     1       1.775   6.977  19.512  0.00  0.00    +0.000 N 
ATOM      8  C   UNL     1       1.468   8.154  20.211  0.00  0.00    +0.000 A 
ATOM      9  C   UNL     1       1.112   9.293  19.481  0.00  0.00    +0.000 A 
ATOM     10  C   UNL     1       0.762  10.470  20.140  0.00  0.00    +0.000 A 
ATOM     11  C   UNL     1       0.774  10.493  21.524  0.00  0.00    +0.000 A 
ATOM     12  C   UNL     1       1.125   9.328  22.184  0.00  0.00    +0.000 A 
ATOM     13  N   UNL     1       1.457   8.170  21.561  0.00  0.00    +0.000 NA
ATOM     14  C   UNL     1       3.011   7.076  18.711  0.00  0.00    +0.000 C 
ATOM     15  C   UNL     1       3.090   5.874  17.753  0.00  0.00    +0.000 C 
ENDBRANCH   1   4
BRANCH   1  20
ATOM     16  C   UNL     1       7.445   6.455  18.065  0.00  0.00    +0.000 A 
ATOM     17  C   UNL     1       7.642   6.287  16.701  0.00  0.00    +0.000 A 
ATOM     18  C   UNL     1       6.862   5.373  15.994  0.00  0.00    +0.000 A 
ATOM     19  C   UNL     1       5.885   4.585  16.630  0.00  0.00    +0.000 A 
ATOM     20  C   UNL     1       5.744   4.691  18.021  0.00  0.00    +0.000 A 
ATOM     21  C   UNL     1       6.533   5.632  18.728  0.00  0.00    +0.000 A 
BRANCH  16  23
ATOM     22  C   UNL     1       8.171   8.708  17.975  0.00  0.00    +0.000 C 
ATOM     23  O   UNL     1       8.187   7.447  18.640  0.00  0.00    +0.000 OA
ENDBRANCH  16  23
BRANCH  19  24
ATOM     24  O   UNL     1       5.106   3.938  15.714  0.00  0.00    +0.000 OA
ATOM     25  C   UNL     1       5.397   4.093  14.338  0.00  0.00    +0.000 C 
ENDBRANCH  19  24
ENDBRANCH   1  20
TORSDOF 4
ENDMDL
MODEL 6
REMARK VINA RESULT:      -6.6      2.513      3.890
REMARK  Name = 
REMARK  6 active torsions:
REMARK  status: ('A' for Active; 'I' for Inactive)
REMARK    1  A    between atoms: C_1  and  O_2
REMARK    2  A    between atoms: O_2  and  C_3
REMARK    3  A    between atoms: C_6  and  O_7
REMARK    4  A    between atoms: O_7  and  C_8
REMARK    5  A    between atoms: C_9  and  S_10
REMARK    6  A    between atoms: S_10  and  N_13
REMARK                            x       y       z     vdW  Elec       q    Type
REMARK                         _______ _______ _______ _____ _____    ______ ____
ROOT
ATOM      1  S   UNL     1       2.502   5.877  18.628  0.00  0.00    +0.000 S 
ATOM      2  O   UNL     1       1.388   5.863  17.705  0.00  0.00    +0.000 OA
ATOM      3  O   UNL     1       2.414   5.159  19.885  0.00  0.00    +0.000 OA
ENDROOT
BRANCH   1   4
ATOM      4  N   UNL     1       2.802   7.511  18.971  0.00  0.00    +0.000 NA
ATOM      5  C   UNL     1       2.653   8.518  17.872  0.00  0.00    +0.000 C 
ATOM      6  C   UNL     1       1.218   9.072  17.736  0.00  0.00    +0.000 C 
ATOM      7  N   UNL     1       0.779   9.602  19.043  0.00  0.00    +0.000 N 
ATOM      8  C   UNL     1      -0.404  10.355  19.003  0.00  0.00    +0.000 A 
ATOM      9  C   UNL     1      -0.702  11.191  20.084  0.00  0.00    +0.000 A 
ATOM     10  C   UNL     1      -1.847  11.984  20.065  0.00  0.00    +0.000 A 
ATOM     11  C   UNL     1      -2.683  11.929  18.963  0.00  0.00    +0.000 A 
ATOM     12  C   UNL     1      -2.324  11.088  17.924  0.00  0.00    +0.000 A 
ATOM     13  N   UNL     1      -1.207  10.318  17.919  0.00  0.00    +0.000 NA
ATOM     14  C   UNL     1       0.777   8.559  20.087  0.00  0.00    +0.000 C 
ATOM     15  C   UNL     1       2.205   8.012  20.259  0.00  0.00    +0.000 C 
ENDBRANCH   1   4
BRANCH   1  20
ATOM     16  C   UNL     1       6.130   5.886  16.863  0.00  0.00    +0.000 A 
ATOM     17  C   UNL     1       6.216   4.648  16.242  0.00  0.00    +0.000 A 
ATOM     18  C   UNL     1       5.157   3.746  16.337  0.00  0.00    +0.000 A 
ATOM     19  C   UNL     1       3.996   4.044  17.074  0.00  0.00    +0.000 A 
ATOM     20  C   UNL     1       3.941   5.258  17.773  0.00  0.00    +0.000 A 
ATOM     21  C   UNL     1       5.019   6.172  17.659  0.00  0.00    +0.000 A 
BRANCH  16  23
ATOM     22  C   UNL     1       7.335   7.810  17.539  0.00  0.00    +0.000 C 
ATOM     23  O   UNL     1       7.174   6.732  16.621  0.00  0.00    +0.000 OA
ENDBRANCH  16  23
BRANCH  19  24
ATOM     24  O   UNL     1       3.019   3.119  16.841  0.00  0.00    +0.000 OA
ATOM     25  C   UNL     1       2.736   2.157  17.840  0.00  0.00    +0.000 C 
ENDBRANCH  19  24
ENDBRANCH   1  20
TORSDOF 4
ENDMDL
MODEL 7
REMARK VINA RESULT:      -6.3      4.800      9.719
REMARK  Name = 
REMARK  6 active torsions:
REMARK  status: ('A' for Active; 'I' for Inactive)
REMARK    1  A    between atoms: C_1  and  O_2
REMARK    2  A    between atoms: O_2  and  C_3
REMARK    3  A    between atoms: C_6  and  O_7
REMARK    4  A    between atoms: O_7  and  C_8
REMARK    5  A    between atoms: C_9  and  S_10
REMARK    6  A    between atoms: S_10  and  N_13
REMARK                            x       y       z     vdW  Elec       q    Type
REMARK                         _______ _______ _______ _____ _____    ______ ____
ROOT
ATOM      1  S   UNL     1       0.706  10.973  20.591  0.00  0.00    +0.000 S 
ATOM      2  O   UNL     1       1.493  11.767  19.672  0.00  0.00    +0.000 OA
ATOM      3  O   UNL     1       1.270  10.561  21.863  0.00  0.00    +0.000 OA
ENDROOT
BRANCH   1   4
ATOM      4  N   UNL     1       0.256   9.580  19.736  0.00  0.00    +0.000 NA
ATOM      5  C   UNL     1       0.535   9.515  18.264  0.00  0.00    +0.000 C 
ATOM      6  C   UNL     1       1.937   8.961  17.929  0.00  0.00    +0.000 C 
ATOM      7  N   UNL     1       2.110   7.652  18.588  0.00  0.00    +0.000 N 
ATOM      8  C   UNL     1       3.237   6.928  18.168  0.00  0.00    +0.000 A 
ATOM      9  C   UNL     1       3.292   5.558  18.444  0.00  0.00    +0.000 A 
ATOM     10  C   UNL     1       4.375   4.796  18.009  0.00  0.00    +0.000 A 
ATOM     11  C   UNL     1       5.392   5.417  17.305  0.00  0.00    +0.000 A 
ATOM     12  C   UNL     1       5.268   6.773  17.058  0.00  0.00    +0.000 A 
ATOM     13  N   UNL     1       4.217   7.528  17.462  0.00  0.00    +0.000 NA
ATOM     14  C   UNL     1       1.992   7.755  20.056  0.00  0.00    +0.000 C 
ATOM     15  C   UNL     1       0.589   8.279  20.414  0.00  0.00    +0.000 C 
ENDBRANCH   1   4
BRANCH   1  20
ATOM     16  C   UNL     1      -2.497  12.274  22.671  0.00  0.00    +0.000 A 
ATOM     17  C   UNL     1      -3.274  12.936  21.731  0.00  0.00    +0.000 A 
ATOM     18  C   UNL     1      -2.848  13.015  20.406  0.00  0.00    +0.000 A 
ATOM     19  C   UNL     1      -1.625  12.458  19.988  0.00  0.00    +0.000 A 
ATOM     20  C   UNL     1      -0.798  11.864  20.951  0.00  0.00    +0.000 A 
ATOM     21  C   UNL     1      -1.247  11.779  22.293  0.00  0.00    +0.000 A 
BRANCH  16  23
ATOM     22  C   UNL     1      -3.817  13.282  24.359  0.00  0.00    +0.000 C 
ATOM     23  O   UNL     1      -3.054  12.164  23.912  0.00  0.00    +0.000 OA
ENDBRANCH  16  23
BRANCH  19  24
ATOM     24  O   UNL     1      -1.527  12.462  18.626  0.00  0.00    +0.000 OA
ATOM     25  C   UNL     1      -2.451  11.700  17.872  0.00  0.00    +0.000 C 
ENDBRANCH  19  24
ENDBRANCH   1  20
TORSDOF 4
ENDMDL
MODEL 8
REMARK VINA RESULT:      -6.3      4.937      9.890
REMARK  Name = 
REMARK  6 active torsions:
REMARK  status: ('A' for Active; 'I' for Inactive)
REMARK    1  A    between atoms: C_1  and  O_2
REMARK    2  A    between atoms: O_2  and  C_3
REMARK    3  A    between atoms: C_6  and  O_7
REMARK    4  A    between atoms: O_7  and  C_8
REMARK    5  A    between atoms: C_9  and  S_10
REMARK    6  A    between atoms: S_10  and  N_13
REMARK                            x       y       z     vdW  Elec       q    Type
REMARK                         _______ _______ _______ _____ _____    ______ ____
ROOT
ATOM      1  S   UNL     1       0.486  10.867  21.412  0.00  0.00    +0.000 S 
ATOM      2  O   UNL     1       1.450  11.627  20.646  0.00  0.00    +0.000 OA
ATOM      3  O   UNL     1       0.871  10.269  22.676  0.00  0.00    +0.000 OA
ENDROOT
BRANCH   1   4
ATOM      4  N   UNL     1      -0.054   9.631  20.384  0.00  0.00    +0.000 NA
ATOM      5  C   UNL     1       0.183   9.763  18.910  0.00  0.00    +0.000 C 
ATOM      6  C   UNL     1       1.546   9.200  18.454  0.00  0.00    +0.000 C 
ATOM      7  N   UNL     1       1.672   7.803  18.917  0.00  0.00    +0.000 N 
ATOM      8  C   UNL     1       2.750   7.096  18.363  0.00  0.00    +0.000 A 
ATOM      9  C   UNL     1       2.744   5.699  18.443  0.00  0.00    +0.000 A 
ATOM     10  C   UNL     1       3.777   4.959  17.870  0.00  0.00    +0.000 A 
ATOM     11  C   UNL     1       4.804   5.627  17.226  0.00  0.00    +0.000 A 
ATOM     12  C   UNL     1       4.741   7.008  17.176  0.00  0.00    +0.000 A 
ATOM     13  N   UNL     1       3.740   7.745  17.716  0.00  0.00    +0.000 NA
ATOM     14  C   UNL     1       1.597   7.702  20.388  0.00  0.00    +0.000 C 
ATOM     15  C   UNL     1       0.232   8.233  20.863  0.00  0.00    +0.000 C 
ENDBRANCH   1   4
BRANCH   1  20
ATOM     16  C   UNL     1      -2.892  12.204  23.165  0.00  0.00    +0.000 A 
ATOM     17  C   UNL     1      -3.333  13.225  22.334  0.00  0.00    +0.000 A 
ATOM     18  C   UNL     1      -2.608  13.552  21.189  0.00  0.00    +0.000 A 
ATOM     19  C   UNL     1      -1.412  12.890  20.856  0.00  0.00    +0.000 A 
ATOM     20  C   UNL     1      -0.920  11.917  21.737  0.00  0.00    +0.000 A 
ATOM     21  C   UNL     1      -1.672  11.584  22.892  0.00  0.00    +0.000 A 
BRANCH  16  23
ATOM     22  C   UNL     1      -4.881  12.721  24.343  0.00  0.00    +0.000 C 
ATOM     23  O   UNL     1      -3.729  11.894  24.198  0.00  0.00    +0.000 OA
ENDBRANCH  16  23
BRANCH  19  24
ATOM     24  O   UNL     1      -1.006  13.221  19.595  0.00  0.00    +0.000 OA
ATOM     25  C   UNL     1      -0.457  14.505  19.368  0.00  0.00    +0.000 C 
ENDBRANCH  19  24
ENDBRANCH   1  20
TORSDOF 4
ENDMDL
MODEL 9
REMARK VINA RESULT:      -6.2      6.381      9.602
REMARK  Name = 
REMARK  6 active torsions:
REMARK  status: ('A' for Active; 'I' for Inactive)
REMARK    1  A    between atoms: C_1  and  O_2
REMARK    2  A    between atoms: O_2  and  C_3
REMARK    3  A    between atoms: C_6  and  O_7
REMARK    4  A    between atoms: O_7  and  C_8
REMARK    5  A    between atoms: C_9  and  S_10
REMARK    6  A    between atoms: S_10  and  N_13
REMARK                            x       y       z     vdW  Elec       q    Type
REMARK                         _______ _______ _______ _____ _____    ______ ____
ROOT
ATOM      1  S   UNL     1      -0.167  11.496  21.143  0.00  0.00    +0.000 S 
ATOM      2  O   UNL     1      -1.147  10.767  20.367  0.00  0.00    +0.000 OA
ATOM      3  O   UNL     1       0.487  10.860  22.270  0.00  0.00    +0.000 OA
ENDROOT
BRANCH   1   4
ATOM      4  N   UNL     1      -0.960  12.885  21.705  0.00  0.00    +0.000 NA
ATOM      5  C   UNL     1      -1.954  13.561  20.811  0.00  0.00    +0.000 C 
ATOM      6  C   UNL     1      -3.385  12.998  20.947  0.00  0.00    +0.000 C 
ATOM      7  N   UNL     1      -3.790  13.044  22.366  0.00  0.00    +0.000 N 
ATOM      8  C   UNL     1      -5.151  12.793  22.596  0.00  0.00    +0.000 A 
ATOM      9  C   UNL     1      -5.701  13.167  23.827  0.00  0.00    +0.000 A 
ATOM     10  C   UNL     1      -7.057  12.972  24.079  0.00  0.00    +0.000 A 
ATOM     11  C   UNL     1      -7.848  12.402  23.096  0.00  0.00    +0.000 A 
ATOM     12  C   UNL     1      -7.241  12.065  21.899  0.00  0.00    +0.000 A 
ATOM     13  N   UNL     1      -5.926  12.259  21.630  0.00  0.00    +0.000 NA
ATOM     14  C   UNL     1      -2.892  12.240  23.220  0.00  0.00    +0.000 C 
ATOM     15  C   UNL     1      -1.463  12.803  23.121  0.00  0.00    +0.000 C 
ENDBRANCH   1   4
BRANCH   1  20
ATOM     16  C   UNL     1       2.509  13.972  19.416  0.00  0.00    +0.000 A 
ATOM     17  C   UNL     1       2.950  13.279  18.297  0.00  0.00    +0.000 A 
ATOM     18  C   UNL     1       2.442  12.011  18.018  0.00  0.00    +0.000 A 
ATOM     19  C   UNL     1       1.502  11.389  18.861  0.00  0.00    +0.000 A 
ATOM     20  C   UNL     1       1.120  12.050  20.037  0.00  0.00    +0.000 A 
ATOM     21  C   UNL     1       1.633  13.344  20.303  0.00  0.00    +0.000 A 
BRANCH  16  23
ATOM     22  C   UNL     1       2.105  16.195  20.127  0.00  0.00    +0.000 C 
ATOM     23  O   UNL     1       2.989  15.244  19.538  0.00  0.00    +0.000 OA
ENDBRANCH  16  23
BRANCH  19  24
ATOM     24  O   UNL     1       0.990  10.266  18.276  0.00  0.00    +0.000 OA
ATOM     25  C   UNL     1       1.882   9.277  17.798  0.00  0.00    +0.000 C 
ENDBRANCH  19  24
ENDBRANCH   1  20
TORSDOF 4
ENDMDL
