MODEL 1
REMARK VINA RESULT:      -6.2      0.000      0.000
REMARK  Name = 
REMARK  2 active torsions:
REMARK  status: ('A' for Active; 'I' for Inactive)
REMARK    1  A    between atoms: C_1  and  C_2
REMARK    2  A    between atoms: N_4  and  C_5
REMARK                            x       y       z     vdW  Elec       q    Type
REMARK                         _______ _______ _______ _____ _____    ______ ____
ROOT
ATOM      1  C   UNL     1       4.208   4.626  18.586  0.00  0.00    +0.000 A 
ATOM      2  C   UNL     1       5.489   4.853  19.100  0.00  0.00    +0.000 A 
ATOM      3  C   UNL     1       6.603   4.879  18.264  0.00  0.00    +0.000 A 
ATOM      4  C   UNL     1       6.451   4.684  16.897  0.00  0.00    +0.000 A 
ATOM      5  C   UNL     1       5.181   4.437  16.369  0.00  0.00    +0.000 A 
ATOM      6  C   UNL     1       4.061   4.404  17.209  0.00  0.00    +0.000 A 
ATOM      7  O   UNL     1       4.963   4.229  15.028  0.00  0.00    +0.000 OA
ATOM      8  C   UNL     1       6.186   3.938  14.339  0.00  0.00    +0.000 C 
ATOM      9  C   UNL     1       7.299   4.884  14.756  0.00  0.00    +0.000 C 
ATOM     10  O   UNL     1       7.592   4.741  16.148  0.00  0.00    +0.000 OA
ENDROOT
BRANCH   1  14
ATOM     11  C   UNL     1       1.181   3.731  20.662  0.00  0.00    +0.000 C 
ATOM     12  C   UNL     1       2.461   3.453  19.920  0.00  0.00    +0.000 C 
ATOM     13  O   UNL     1       2.875   2.301  19.822  0.00  0.00    +0.000 OA
ATOM     14  N   UNL     1       3.054   4.593  19.406  0.00  0.00    +0.000 N 
ATOM     15  H   UNL     1       2.685   5.487  19.706  0.00  0.00    +0.000 HD
ENDBRANCH   1  14
TORSDOF 1
ENDMDL
MODEL 2
REMARK VINA RESULT:      -6.1      2.432      5.576
REMARK  Name = 
REMARK  2 active torsions:
REMARK  status: ('A' for Active; 'I' for Inactive)
REMARK    1  A    between atoms: C_1  and  C_2
REMARK    2  A    between atoms: N_4  and  C_5
REMARK                            x       y       z     vdW  Elec       q    Type
REMARK                         _______ _______ _______ _____ _____    ______ ____
ROOT
ATOM      1  C   UNL     1       4.800   5.152  18.236  0.00  0.00    +0.000 A 
ATOM      2  C   UNL     1       4.504   4.057  17.418  0.00  0.00    +0.000 A 
ATOM      3  C   UNL     1       3.553   3.113  17.799  0.00  0.00    +0.000 A 
ATOM      4  C   UNL     1       2.877   3.254  19.005  0.00  0.00    +0.000 A 
ATOM      5  C   UNL     1       3.174   4.331  19.843  0.00  0.00    +0.000 A 
ATOM      6  C   UNL     1       4.135   5.278  19.465  0.00  0.00    +0.000 A 
ATOM      7  O   UNL     1       2.547   4.525  21.051  0.00  0.00    +0.000 OA
ATOM      8  C   UNL     1       1.867   3.340  21.483  0.00  0.00    +0.000 C 
ATOM      9  C   UNL     1       1.079   2.706  20.349  0.00  0.00    +0.000 C 
ATOM     10  O   UNL     1       1.950   2.293  19.294  0.00  0.00    +0.000 OA
ENDROOT
BRANCH   1  14
ATOM     11  C   UNL     1       7.836   7.360  17.817  0.00  0.00    +0.000 C 
ATOM     12  C   UNL     1       7.093   6.127  18.256  0.00  0.00    +0.000 C 
ATOM     13  O   UNL     1       7.678   5.248  18.882  0.00  0.00    +0.000 OA
ATOM     14  N   UNL     1       5.760   6.129  17.880  0.00  0.00    +0.000 N 
ATOM     15  H   UNL     1       5.460   6.844  17.228  0.00  0.00    +0.000 HD
ENDBRANCH   1  14
TORSDOF 1
ENDMDL
MODEL 3
REMARK VINA RESULT:      -6.1      1.783      5.425
REMARK  Name = 
REMARK  2 active torsions:
REMARK  status: ('A' for Active; 'I' for Inactive)
REMARK    1  A    between atoms: C_1  and  C_2
REMARK    2  A    between atoms: N_4  and  C_5
REMARK                            x       y       z     vdW  Elec       q    Type
REMARK                         _______ _______ _______ _____ _____    ______ ____
ROOT
ATOM      1  C   UNL     1       4.529   4.687  17.216  0.00  0.00    +0.000 A 
ATOM      2  C   UNL     1       4.433   5.833  18.011  0.00  0.00    +0.000 A 
ATOM      3  C   UNL     1       3.748   5.810  19.224  0.00  0.00    +0.000 A 
ATOM      4  C   UNL     1       3.152   4.633  19.663  0.00  0.00    +0.000 A 
ATOM      5  C   UNL     1       3.222   3.484  18.872  0.00  0.00    +0.000 A 
ATOM      6  C   UNL     1       3.905   3.508  17.650  0.00  0.00    +0.000 A 
ATOM      7  O   UNL     1       2.649   2.292  19.246  0.00  0.00    +0.000 OA
ATOM      8  C   UNL     1       1.704   2.475  20.307  0.00  0.00    +0.000 C 
ATOM      9  C   UNL     1       2.254   3.388  21.391  0.00  0.00    +0.000 C 
ATOM     10  O   UNL     1       2.515   4.694  20.871  0.00  0.00    +0.000 OA
ENDROOT
BRANCH   1  14
ATOM     11  C   UNL     1       7.026   4.746  14.382  0.00  0.00    +0.000 C 
ATOM     12  C   UNL     1       6.591   4.634  15.818  0.00  0.00    +0.000 C 
ATOM     13  O   UNL     1       7.431   4.520  16.707  0.00  0.00    +0.000 OA
ATOM     14  N   UNL     1       5.217   4.675  15.978  0.00  0.00    +0.000 N 
ATOM     15  H   UNL     1       4.647   4.607  15.143  0.00  0.00    +0.000 HD
ENDBRANCH   1  14
TORSDOF 1
ENDMDL
MODEL 4
REMARK VINA RESULT:      -6.1      1.759      5.431
REMARK  Name = 
REMARK  2 active torsions:
REMARK  status: ('A' for Active; 'I' for Inactive)
REMARK    1  A    between atoms: C_1  and  C_2
REMARK    2  A    between atoms: N_4  and  C_5
REMARK                            x       y       z     vdW  Elec       q    Type
REMARK                         _______ _______ _______ _____ _____    ______ ____
ROOT
ATOM      1  C   UNL     1       4.854   4.081  17.322  0.00  0.00    +0.000 A 
ATOM      2  C   UNL     1       5.242   5.023  18.279  0.00  0.00    +0.000 A 
ATOM      3  C   UNL     1       4.483   5.234  19.428  0.00  0.00    +0.000 A 
ATOM      4  C   UNL     1       3.323   4.497  19.640  0.00  0.00    +0.000 A 
ATOM      5  C   UNL     1       2.911   3.565  18.685  0.00  0.00    +0.000 A 
ATOM      6  C   UNL     1       3.670   3.357  17.526  0.00  0.00    +0.000 A 
ATOM      7  O   UNL     1       1.772   2.809  18.830  0.00  0.00    +0.000 OA
ATOM      8  C   UNL     1       0.915   3.345  19.845  0.00  0.00    +0.000 C 
ATOM      9  C   UNL     1       1.698   3.726  21.091  0.00  0.00    +0.000 C 
ATOM     10  O   UNL     1       2.648   4.754  20.800  0.00  0.00    +0.000 OA
ENDROOT
BRANCH   1  14
ATOM     11  C   UNL     1       6.557   4.171  13.951  0.00  0.00    +0.000 C 
ATOM     12  C   UNL     1       5.818   4.754  15.125  0.00  0.00    +0.000 C 
ATOM     13  O   UNL     1       5.475   5.933  15.110  0.00  0.00    +0.000 OA
ATOM     14  N   UNL     1       5.601   3.842  16.144  0.00  0.00    +0.000 N 
ATOM     15  H   UNL     1       6.084   2.953  16.085  0.00  0.00    +0.000 HD
ENDBRANCH   1  14
TORSDOF 1
ENDMDL
MODEL 5
REMARK VINA RESULT:      -6.1      1.371      1.371
REMARK  Name = 
REMARK  2 active torsions:
REMARK  status: ('A' for Active; 'I' for Inactive)
REMARK    1  A    between atoms: C_1  and  C_2
REMARK    2  A    between atoms: N_4  and  C_5
REMARK                            x       y       z     vdW  Elec       q    Type
REMARK                         _______ _______ _______ _____ _____    ______ ____
ROOT
ATOM      1  C   UNL     1       4.725   4.399  18.352  0.00  0.00    +0.000 A 
ATOM      2  C   UNL     1       6.032   4.750  18.705  0.00  0.00    +0.000 A 
ATOM      3  C   UNL     1       7.023   4.892  17.736  0.00  0.00    +0.000 A 
ATOM      4  C   UNL     1       6.717   4.693  16.395  0.00  0.00    +0.000 A 
ATOM      5  C   UNL     1       5.421   4.324  16.027  0.00  0.00    +0.000 A 
ATOM      6  C   UNL     1       4.426   4.173  17.001  0.00  0.00    +0.000 A 
ATOM      7  O   UNL     1       5.056   4.105  14.720  0.00  0.00    +0.000 OA
ATOM      8  C   UNL     1       6.203   3.942  13.877  0.00  0.00    +0.000 C 
ATOM      9  C   UNL     1       7.263   4.992  14.169  0.00  0.00    +0.000 C 
ATOM     10  O   UNL     1       7.743   4.869  15.509  0.00  0.00    +0.000 OA
ENDROOT
BRANCH   1  14
ATOM     11  C   UNL     1       1.974   4.805  20.909  0.00  0.00    +0.000 C 
ATOM     12  C   UNL     1       2.908   5.264  19.823  0.00  0.00    +0.000 C 
ATOM     13  O   UNL     1       2.916   6.442  19.477  0.00  0.00    +0.000 OA
ATOM     14  N   UNL     1       3.694   4.245  19.310  0.00  0.00    +0.000 N 
ATOM     15  H   UNL     1       3.461   3.296  19.579  0.00  0.00    +0.000 HD
ENDBRANCH   1  14
TORSDOF 1
ENDMDL
MODEL 6
REMARK VINA RESULT:      -6.0      2.176      5.489
REMARK  Name = 
REMARK  2 active torsions:
REMARK  status: ('A' for Active; 'I' for Inactive)
REMARK    1  A    between atoms: C_1  and  C_2
REMARK    2  A    between atoms: N_4  and  C_5
REMARK                            x       y       z     vdW  Elec       q    Type
REMARK                         _______ _______ _______ _____ _____    ______ ____
ROOT
ATOM      1  C   UNL     1       5.041   5.020  18.382  0.00  0.00    +0.000 A 
ATOM      2  C   UNL     1       4.919   3.989  17.445  0.00  0.00    +0.000 A 
ATOM      3  C   UNL     1       3.850   3.097  17.494  0.00  0.00    +0.000 A 
ATOM      4  C   UNL     1       2.880   3.230  18.481  0.00  0.00    +0.000 A 
ATOM      5  C   UNL     1       2.996   4.242  19.436  0.00  0.00    +0.000 A 
ATOM      6  C   UNL     1       4.074   5.135  19.392  0.00  0.00    +0.000 A 
ATOM      7  O   UNL     1       2.075   4.423  20.440  0.00  0.00    +0.000 OA
ATOM      8  C   UNL     1       1.238   3.270  20.595  0.00  0.00    +0.000 C 
ATOM      9  C   UNL     1       0.755   2.748  19.252  0.00  0.00    +0.000 C 
ATOM     10  O   UNL     1       1.856   2.324  18.446  0.00  0.00    +0.000 OA
ENDROOT
BRANCH   1  14
ATOM     11  C   UNL     1       7.693   7.578  17.547  0.00  0.00    +0.000 C 
ATOM     12  C   UNL     1       6.427   6.796  17.318  0.00  0.00    +0.000 C 
ATOM     13  O   UNL     1       5.788   6.954  16.281  0.00  0.00    +0.000 OA
ATOM     14  N   UNL     1       6.115   5.943  18.362  0.00  0.00    +0.000 N 
ATOM     15  H   UNL     1       6.645   6.041  19.220  0.00  0.00    +0.000 HD
ENDBRANCH   1  14
TORSDOF 1
ENDMDL
MODEL 7
REMARK VINA RESULT:      -5.9      2.342      5.286
REMARK  Name = 
REMARK  2 active torsions:
REMARK  status: ('A' for Active; 'I' for Inactive)
REMARK    1  A    between atoms: C_1  and  C_2
REMARK    2  A    between atoms: N_4  and  C_5
REMARK                            x       y       z     vdW  Elec       q    Type
REMARK                         _______ _______ _______ _____ _____    ______ ____
ROOT
ATOM      1  C   UNL     1       4.887   5.644  17.507  0.00  0.00    +0.000 A 
ATOM      2  C   UNL     1       4.987   4.463  16.766  0.00  0.00    +0.000 A 
ATOM      3  C   UNL     1       4.079   3.422  16.947  0.00  0.00    +0.000 A 
ATOM      4  C   UNL     1       3.050   3.551  17.872  0.00  0.00    +0.000 A 
ATOM      5  C   UNL     1       2.946   4.716  18.635  0.00  0.00    +0.000 A 
ATOM      6  C   UNL     1       3.862   5.761  18.458  0.00  0.00    +0.000 A 
ATOM      7  O   UNL     1       1.956   4.904  19.570  0.00  0.00    +0.000 OA
ATOM      8  C   UNL     1       1.315   3.668  19.908  0.00  0.00    +0.000 C 
ATOM      9  C   UNL     1       0.997   2.849  18.668  0.00  0.00    +0.000 C 
ATOM     10  O   UNL     1       2.194   2.490  17.975  0.00  0.00    +0.000 OA
ENDROOT
BRANCH   1  14
ATOM     11  C   UNL     1       7.782   8.070  17.571  0.00  0.00    +0.000 C 
ATOM     12  C   UNL     1       7.106   6.742  17.784  0.00  0.00    +0.000 C 
ATOM     13  O   UNL     1       7.725   5.815  18.300  0.00  0.00    +0.000 OA
ATOM     14  N   UNL     1       5.792   6.721  17.349  0.00  0.00    +0.000 N 
ATOM     15  H   UNL     1       5.470   7.507  16.797  0.00  0.00    +0.000 HD
ENDBRANCH   1  14
TORSDOF 1
ENDMDL
MODEL 8
REMARK VINA RESULT:      -5.9      2.517      2.976
REMARK  Name = 
REMARK  2 active torsions:
REMARK  status: ('A' for Active; 'I' for Inactive)
REMARK    1  A    between atoms: C_1  and  C_2
REMARK    2  A    between atoms: N_4  and  C_5
REMARK                            x       y       z     vdW  Elec       q    Type
REMARK                         _______ _______ _______ _____ _____    ______ ____
ROOT
ATOM      1  C   UNL     1       3.334   4.782  18.635  0.00  0.00    +0.000 A 
ATOM      2  C   UNL     1       3.089   5.893  17.823  0.00  0.00    +0.000 A 
ATOM      3  C   UNL     1       4.125   6.737  17.429  0.00  0.00    +0.000 A 
ATOM      4  C   UNL     1       5.427   6.476  17.838  0.00  0.00    +0.000 A 
ATOM      5  C   UNL     1       5.688   5.380  18.664  0.00  0.00    +0.000 A 
ATOM      6  C   UNL     1       4.646   4.535  19.066  0.00  0.00    +0.000 A 
ATOM      7  O   UNL     1       6.951   5.071  19.108  0.00  0.00    +0.000 OA
ATOM      8  C   UNL     1       7.851   6.173  18.935  0.00  0.00    +0.000 C 
ATOM      9  C   UNL     1       7.698   6.805  17.561  0.00  0.00    +0.000 C 
ATOM     10  O   UNL     1       6.385   7.343  17.393  0.00  0.00    +0.000 OA
ENDROOT
BRANCH   1  14
ATOM     11  C   UNL     1       0.627   2.170  18.983  0.00  0.00    +0.000 C 
ATOM     12  C   UNL     1       1.791   2.851  18.316  0.00  0.00    +0.000 C 
ATOM     13  O   UNL     1       2.190   2.455  17.224  0.00  0.00    +0.000 OA
ATOM     14  N   UNL     1       2.306   3.904  19.054  0.00  0.00    +0.000 N 
ATOM     15  H   UNL     1       1.980   4.009  20.007  0.00  0.00    +0.000 HD
ENDBRANCH   1  14
TORSDOF 1
ENDMDL
MODEL 9
REMARK VINA RESULT:      -5.9      1.788      5.856
REMARK  Name = 
REMARK  2 active torsions:
REMARK  status: ('A' for Active; 'I' for Inactive)
REMARK    1  A    between atoms: C_1  and  C_2
REMARK    2  A    between atoms: N_4  and  C_5
REMARK                            x       y       z     vdW  Elec       q    Type
REMARK                         _______ _______ _______ _____ _____    ______ ____
ROOT
ATOM      1  C   UNL     1       4.168   3.520  17.382  0.00  0.00    +0.000 A 
ATOM      2  C   UNL     1       2.857   3.737  16.944  0.00  0.00    +0.000 A 
ATOM      3  C   UNL     1       1.780   3.627  17.821  0.00  0.00    +0.000 A 
ATOM      4  C   UNL     1       2.000   3.305  19.155  0.00  0.00    +0.000 A 
ATOM      5  C   UNL     1       3.301   3.066  19.605  0.00  0.00    +0.000 A 
ATOM      6  C   UNL     1       4.384   3.170  18.723  0.00  0.00    +0.000 A 
ATOM      7  O   UNL     1       3.585   2.737  20.909  0.00  0.00    +0.000 OA
ATOM      8  C   UNL     1       2.407   2.322  21.612  0.00  0.00    +0.000 C 
ATOM      9  C   UNL     1       1.237   3.252  21.336  0.00  0.00    +0.000 C 
ATOM     10  O   UNL     1       0.890   3.234  19.949  0.00  0.00    +0.000 OA
ENDROOT
BRANCH   1  14
ATOM     11  C   UNL     1       6.948   4.584  15.057  0.00  0.00    +0.000 C 
ATOM     12  C   UNL     1       5.837   4.802  16.048  0.00  0.00    +0.000 C 
ATOM     13  O   UNL     1       5.508   5.943  16.361  0.00  0.00    +0.000 OA
ATOM     14  N   UNL     1       5.285   3.623  16.519  0.00  0.00    +0.000 N 
ATOM     15  H   UNL     1       5.767   2.760  16.296  0.00  0.00    +0.000 HD
ENDBRANCH   1  14
TORSDOF 1
ENDMDL
