MODEL 1
REMARK VINA RESULT:      -8.3      0.000      0.000
REMARK  Name = 
REMARK  9 active torsions:
REMARK  status: ('A' for Active; 'I' for Inactive)
REMARK    1  A    between atoms: C_1  and  C_2
REMARK    2  A    between atoms: C_2  and  C_3
REMARK    3  A    between atoms: C_8  and  C_9
REMARK    4  A    between atoms: C_9  and  C_11
REMARK    5  A    between atoms: C_11  and  C_12
REMARK    6  A    between atoms: C_20  and  N_21
REMARK    7  A    between atoms: N_23  and  C_24
REMARK    8  A    between atoms: N_26  and  C_27
REMARK    9  A    between atoms: C_34  and  O_35
REMARK                            x       y       z     vdW  Elec       q    Type
REMARK                         _______ _______ _______ _____ _____    ______ ____
ROOT
ATOM      1  C   UNL     1       2.731   2.524  20.951  0.00  0.00    +0.000 C 
ATOM      2  C   UNL     1       2.513   3.736  20.030  0.00  0.00    +0.000 C 
ATOM      3  C   UNL     1       1.451   3.325  18.986  0.00  0.00    +0.000 C 
ATOM      4  O   UNL     1       1.967   4.791  20.845  0.00  0.00    +0.000 OA
ATOM      5  C   UNL     1       1.982   6.046  20.291  0.00  0.00    +0.000 A 
ATOM      6  C   UNL     1       1.137   6.977  20.897  0.00  0.00    +0.000 A 
ATOM      7  C   UNL     1       1.007   8.266  20.375  0.00  0.00    +0.000 A 
ATOM      8  C   UNL     1       1.741   8.637  19.247  0.00  0.00    +0.000 A 
ATOM      9  C   UNL     1       2.620   7.710  18.662  0.00  0.00    +0.000 A 
ATOM     10  C   UNL     1       2.754   6.406  19.178  0.00  0.00    +0.000 A 
ATOM     11  C   UNL     1       3.607   5.374  18.465  0.00  0.00    +0.000 C 
ATOM     12  C   UNL     1       3.864   4.180  19.408  0.00  0.00    +0.000 C 
ENDROOT
BRANCH  11  13
ATOM     13  N   UNL     1       4.875   5.921  17.974  0.00  0.00    +0.000 NA
ATOM     14  C   UNL     1       5.465   5.463  16.914  0.00  0.00    +0.000 C 
ATOM     15  N   UNL     1       5.038   4.392  16.174  0.00  0.00    +0.000 N 
ATOM     16  N   UNL     1       6.633   6.043  16.452  0.00  0.00    +0.000 N 
ATOM     17  H   UNL     1       4.268   3.852  16.522  0.00  0.00    +0.000 HD
ATOM     18  H   UNL     1       6.723   6.162  15.451  0.00  0.00    +0.000 HD
BRANCH  16  19
ATOM     19  C   UNL     1       7.374   6.982  17.195  0.00  0.00    +0.000 A 
ATOM     20  C   UNL     1       8.002   6.614  18.393  0.00  0.00    +0.000 A 
ATOM     21  C   UNL     1       8.585   7.568  19.225  0.00  0.00    +0.000 A 
ATOM     22  C   UNL     1       8.554   8.906  18.854  0.00  0.00    +0.000 A 
ATOM     23 CL   UNL     1       9.175  10.100  19.923  0.00  0.00    +0.000 Cl
ATOM     24  C   UNL     1       7.987   9.287  17.638  0.00  0.00    +0.000 A 
ATOM     25  C   UNL     1       7.402   8.326  16.807  0.00  0.00    +0.000 A 
ENDBRANCH  16  19
BRANCH  15  26
ATOM     26  C   UNL     1       5.486   4.126  14.845  0.00  0.00    +0.000 C 
ATOM     27  N   UNL     1       5.818   3.926  13.749  0.00  0.00    +0.000 NA
ENDBRANCH  15  26
ENDBRANCH  11  13
BRANCH   8  28
ATOM     28  C   UNL     1       1.562   9.969  18.594  0.00  0.00    +0.000 C 
ATOM     29  O   UNL     1       2.242  10.239  17.605  0.00  0.00    +0.000 OA
BRANCH  28  30
ATOM     30  C   UNL     1       0.555  10.959  19.161  0.00  0.00    +0.000 C 
BRANCH  30  31
ATOM     31  C   UNL     1      -0.834  10.904  18.562  0.00  0.00    +0.000 A 
ATOM     32  C   UNL     1      -1.133   9.918  17.606  0.00  0.00    +0.000 A 
ATOM     33  C   UNL     1      -2.395   9.860  17.009  0.00  0.00    +0.000 A 
ATOM     34  C   UNL     1      -3.383  10.768  17.380  0.00  0.00    +0.000 A 
ATOM     35  C   UNL     1      -3.116  11.716  18.367  0.00  0.00    +0.000 A 
ATOM     36  C   UNL     1      -1.853  11.778  18.961  0.00  0.00    +0.000 A 
ENDBRANCH  30  31
ENDBRANCH  28  30
ENDBRANCH   8  28
BRANCH  12  37
ATOM     37  O   UNL     1       4.528   3.114  18.710  0.00  0.00    +0.000 OA
ATOM     38  H   UNL     1       4.788   2.427  19.341  0.00  0.00    +0.000 HD
ENDBRANCH  12  37
TORSDOF 7
ENDMDL
MODEL 2
REMARK VINA RESULT:      -8.1      2.582      3.531
REMARK  Name = 
REMARK  9 active torsions:
REMARK  status: ('A' for Active; 'I' for Inactive)
REMARK    1  A    between atoms: C_1  and  C_2
REMARK    2  A    between atoms: C_2  and  C_3
REMARK    3  A    between atoms: C_8  and  C_9
REMARK    4  A    between atoms: C_9  and  C_11
REMARK    5  A    between atoms: C_11  and  C_12
REMARK    6  A    between atoms: C_20  and  N_21
REMARK    7  A    between atoms: N_23  and  C_24
REMARK    8  A    between atoms: N_26  and  C_27
REMARK    9  A    between atoms: C_34  and  O_35
REMARK                            x       y       z     vdW  Elec       q    Type
REMARK                         _______ _______ _______ _____ _____    ______ ____
ROOT
ATOM      1  C   UNL     1       2.260   2.109  21.588  0.00  0.00    +0.000 C 
ATOM      2  C   UNL     1       2.061   3.188  20.511  0.00  0.00    +0.000 C 
ATOM      3  C   UNL     1       0.703   2.904  19.832  0.00  0.00    +0.000 C 
ATOM      4  O   UNL     1       1.973   4.453  21.195  0.00  0.00    +0.000 OA
ATOM      5  C   UNL     1       2.098   5.571  20.409  0.00  0.00    +0.000 A 
ATOM      6  C   UNL     1       1.648   6.760  20.985  0.00  0.00    +0.000 A 
ATOM      7  C   UNL     1       1.651   7.950  20.254  0.00  0.00    +0.000 A 
ATOM      8  C   UNL     1       2.125   7.959  18.941  0.00  0.00    +0.000 A 
ATOM      9  C   UNL     1       2.614   6.768  18.377  0.00  0.00    +0.000 A 
ATOM     10  C   UNL     1       2.609   5.562  19.105  0.00  0.00    +0.000 A 
ATOM     11  C   UNL     1       3.018   4.258  18.446  0.00  0.00    +0.000 C 
ATOM     12  C   UNL     1       3.264   3.189  19.530  0.00  0.00    +0.000 C 
ENDROOT
BRANCH  11  13
ATOM     13  N   UNL     1       4.198   4.397  17.587  0.00  0.00    +0.000 NA
ATOM     14  C   UNL     1       5.338   4.820  18.036  0.00  0.00    +0.000 C 
ATOM     15  N   UNL     1       5.571   5.253  19.315  0.00  0.00    +0.000 N 
ATOM     16  N   UNL     1       6.442   4.886  17.205  0.00  0.00    +0.000 N 
ATOM     17  H   UNL     1       4.788   5.345  19.935  0.00  0.00    +0.000 HD
ATOM     18  H   UNL     1       7.329   4.589  17.593  0.00  0.00    +0.000 HD
BRANCH  16  19
ATOM     19  C   UNL     1       6.365   4.733  15.807  0.00  0.00    +0.000 A 
ATOM     20  C   UNL     1       5.303   4.033  15.220  0.00  0.00    +0.000 A 
ATOM     21  C   UNL     1       5.307   3.722  13.862  0.00  0.00    +0.000 A 
ATOM     22  C   UNL     1       6.377   4.123  13.073  0.00  0.00    +0.000 A 
ATOM     23 CL   UNL     1       6.442   3.653  11.421  0.00  0.00    +0.000 Cl
ATOM     24  C   UNL     1       7.415   4.874  13.625  0.00  0.00    +0.000 A 
ATOM     25  C   UNL     1       7.408   5.182  14.989  0.00  0.00    +0.000 A 
ENDBRANCH  16  19
BRANCH  15  26
ATOM     26  C   UNL     1       6.878   5.377  19.877  0.00  0.00    +0.000 C 
ATOM     27  N   UNL     1       7.936   5.443  20.352  0.00  0.00    +0.000 NA
ENDBRANCH  15  26
ENDBRANCH  11  13
BRANCH   8  28
ATOM     28  C   UNL     1       2.056   9.184  18.088  0.00  0.00    +0.000 C 
ATOM     29  O   UNL     1       2.454   9.117  16.924  0.00  0.00    +0.000 OA
BRANCH  28  30
ATOM     30  C   UNL     1       1.507  10.478  18.667  0.00  0.00    +0.000 C 
BRANCH  30  31
ATOM     31  C   UNL     1       0.021  10.705  18.485  0.00  0.00    +0.000 A 
ATOM     32  C   UNL     1      -0.729   9.784  17.734  0.00  0.00    +0.000 A 
ATOM     33  C   UNL     1      -2.095   9.981  17.519  0.00  0.00    +0.000 A 
ATOM     34  C   UNL     1      -2.735  11.085  18.075  0.00  0.00    +0.000 A 
ATOM     35  C   UNL     1      -2.014  11.977  18.867  0.00  0.00    +0.000 A 
ATOM     36  C   UNL     1      -0.647  11.784  19.079  0.00  0.00    +0.000 A 
ENDBRANCH  30  31
ENDBRANCH  28  30
ENDBRANCH   8  28
BRANCH  12  37
ATOM     37  O   UNL     1       3.492   1.902  18.935  0.00  0.00    +0.000 OA
ATOM     38  H   UNL     1       3.536   1.228  19.628  0.00  0.00    +0.000 HD
ENDBRANCH  12  37
TORSDOF 7
ENDMDL
MODEL 3
REMARK VINA RESULT:      -7.9      0.635      1.306
REMARK  Name = 
REMARK  9 active torsions:
REMARK  status: ('A' for Active; 'I' for Inactive)
REMARK    1  A    between atoms: C_1  and  C_2
REMARK    2  A    between atoms: C_2  and  C_3
REMARK    3  A    between atoms: C_8  and  C_9
REMARK    4  A    between atoms: C_9  and  C_11
REMARK    5  A    between atoms: C_11  and  C_12
REMARK    6  A    between atoms: C_20  and  N_21
REMARK    7  A    between atoms: N_23  and  C_24
REMARK    8  A    between atoms: N_26  and  C_27
REMARK    9  A    between atoms: C_34  and  O_35
REMARK                            x       y       z     vdW  Elec       q    Type
REMARK                         _______ _______ _______ _____ _____    ______ ____
ROOT
ATOM      1  C   UNL     1       2.841   2.484  21.110  0.00  0.00    +0.000 C 
ATOM      2  C   UNL     1       2.532   3.710  20.235  0.00  0.00    +0.000 C 
ATOM      3  C   UNL     1       1.479   3.268  19.195  0.00  0.00    +0.000 C 
ATOM      4  O   UNL     1       1.934   4.700  21.095  0.00  0.00    +0.000 OA
ATOM      5  C   UNL     1       1.861   5.972  20.585  0.00  0.00    +0.000 A 
ATOM      6  C   UNL     1       0.970   6.826  21.237  0.00  0.00    +0.000 A 
ATOM      7  C   UNL     1       0.750   8.120  20.763  0.00  0.00    +0.000 A 
ATOM      8  C   UNL     1       1.439   8.576  19.637  0.00  0.00    +0.000 A 
ATOM      9  C   UNL     1       2.364   7.727  19.006  0.00  0.00    +0.000 A 
ATOM     10  C   UNL     1       2.588   6.418  19.474  0.00  0.00    +0.000 A 
ATOM     11  C   UNL     1       3.492   5.467  18.712  0.00  0.00    +0.000 C 
ATOM     12  C   UNL     1       3.841   4.260  19.608  0.00  0.00    +0.000 C 
ENDROOT
BRANCH  11  13
ATOM     13  N   UNL     1       4.714   6.109  18.220  0.00  0.00    +0.000 NA
ATOM     14  C   UNL     1       5.332   5.704  17.155  0.00  0.00    +0.000 C 
ATOM     15  N   UNL     1       4.982   4.609  16.409  0.00  0.00    +0.000 N 
ATOM     16  N   UNL     1       6.452   6.372  16.693  0.00  0.00    +0.000 N 
ATOM     17  H   UNL     1       4.255   4.012  16.755  0.00  0.00    +0.000 HD
ATOM     18  H   UNL     1       6.529   6.505  15.692  0.00  0.00    +0.000 HD
BRANCH  16  19
ATOM     19  C   UNL     1       7.124   7.358  17.441  0.00  0.00    +0.000 A 
ATOM     20  C   UNL     1       7.016   8.713  17.101  0.00  0.00    +0.000 A 
ATOM     21  C   UNL     1       7.812   9.677  17.716  0.00  0.00    +0.000 A 
ATOM     22  C   UNL     1       8.721   9.289  18.693  0.00  0.00    +0.000 A 
ATOM     23 CL   UNL     1       9.780  10.455  19.381  0.00  0.00    +0.000 Cl
ATOM     24  C   UNL     1       8.801   7.955  19.089  0.00  0.00    +0.000 A 
ATOM     25  C   UNL     1       8.002   6.990  18.467  0.00  0.00    +0.000 A 
ENDBRANCH  16  19
BRANCH  15  26
ATOM     26  C   UNL     1       5.443   4.387  15.076  0.00  0.00    +0.000 C 
ATOM     27  N   UNL     1       5.813   4.168  13.996  0.00  0.00    +0.000 NA
ENDBRANCH  15  26
ENDBRANCH  11  13
BRANCH   8  28
ATOM     28  C   UNL     1       1.164   9.916  19.034  0.00  0.00    +0.000 C 
ATOM     29  O   UNL     1       1.584  10.920  19.609  0.00  0.00    +0.000 OA
BRANCH  28  30
ATOM     30  C   UNL     1       0.374  10.013  17.738  0.00  0.00    +0.000 C 
BRANCH  30  31
ATOM     31  C   UNL     1      -1.078  10.417  17.878  0.00  0.00    +0.000 A 
ATOM     32  C   UNL     1      -1.419  11.473  18.739  0.00  0.00    +0.000 A 
ATOM     33  C   UNL     1      -2.752  11.850  18.916  0.00  0.00    +0.000 A 
ATOM     34  C   UNL     1      -3.760  11.195  18.214  0.00  0.00    +0.000 A 
ATOM     35  C   UNL     1      -3.431  10.182  17.315  0.00  0.00    +0.000 A 
ATOM     36  C   UNL     1      -2.098   9.801  17.140  0.00  0.00    +0.000 A 
ENDBRANCH  30  31
ENDBRANCH  28  30
ENDBRANCH   8  28
BRANCH  12  37
ATOM     37  O   UNL     1       4.558   3.262  18.863  0.00  0.00    +0.000 OA
ATOM     38  H   UNL     1       4.594   2.441  19.375  0.00  0.00    +0.000 HD
ENDBRANCH  12  37
TORSDOF 7
ENDMDL
MODEL 4
REMARK VINA RESULT:      -7.8      2.937      4.132
REMARK  Name = 
REMARK  9 active torsions:
REMARK  status: ('A' for Active; 'I' for Inactive)
REMARK    1  A    between atoms: C_1  and  C_2
REMARK    2  A    between atoms: C_2  and  C_3
REMARK    3  A    between atoms: C_8  and  C_9
REMARK    4  A    between atoms: C_9  and  C_11
REMARK    5  A    between atoms: C_11  and  C_12
REMARK    6  A    between atoms: C_20  and  N_21
REMARK    7  A    between atoms: N_23  and  C_24
REMARK    8  A    between atoms: N_26  and  C_27
REMARK    9  A    between atoms: C_34  and  O_35
REMARK                            x       y       z     vdW  Elec       q    Type
REMARK                         _______ _______ _______ _____ _____    ______ ____
ROOT
ATOM      1  C   UNL     1       2.356   2.144  21.696  0.00  0.00    +0.000 C 
ATOM      2  C   UNL     1       2.134   3.188  20.590  0.00  0.00    +0.000 C 
ATOM      3  C   UNL     1       0.778   2.861  19.927  0.00  0.00    +0.000 C 
ATOM      4  O   UNL     1       2.027   4.470  21.237  0.00  0.00    +0.000 OA
ATOM      5  C   UNL     1       2.130   5.566  20.418  0.00  0.00    +0.000 A 
ATOM      6  C   UNL     1       1.663   6.764  20.962  0.00  0.00    +0.000 A 
ATOM      7  C   UNL     1       1.643   7.932  20.197  0.00  0.00    +0.000 A 
ATOM      8  C   UNL     1       2.110   7.911  18.881  0.00  0.00    +0.000 A 
ATOM      9  C   UNL     1       2.616   6.712  18.350  0.00  0.00    +0.000 A 
ATOM     10  C   UNL     1       2.635   5.528  19.112  0.00  0.00    +0.000 A 
ATOM     11  C   UNL     1       3.062   4.213  18.489  0.00  0.00    +0.000 C 
ATOM     12  C   UNL     1       3.332   3.180  19.603  0.00  0.00    +0.000 C 
ENDROOT
BRANCH  11  13
ATOM     13  N   UNL     1       4.235   4.346  17.620  0.00  0.00    +0.000 NA
ATOM     14  C   UNL     1       5.378   4.775  18.056  0.00  0.00    +0.000 C 
ATOM     15  N   UNL     1       5.621   5.218  19.330  0.00  0.00    +0.000 N 
ATOM     16  N   UNL     1       6.476   4.835  17.216  0.00  0.00    +0.000 N 
ATOM     17  H   UNL     1       4.842   5.315  19.955  0.00  0.00    +0.000 HD
ATOM     18  H   UNL     1       7.366   4.543  17.600  0.00  0.00    +0.000 HD
BRANCH  16  19
ATOM     19  C   UNL     1       6.388   4.670  15.821  0.00  0.00    +0.000 A 
ATOM     20  C   UNL     1       5.369   3.894  15.253  0.00  0.00    +0.000 A 
ATOM     21  C   UNL     1       5.374   3.577  13.896  0.00  0.00    +0.000 A 
ATOM     22  C   UNL     1       6.402   4.050  13.089  0.00  0.00    +0.000 A 
ATOM     23 CL   UNL     1       6.474   3.576  11.438  0.00  0.00    +0.000 Cl
ATOM     24  C   UNL     1       7.392   4.874  13.622  0.00  0.00    +0.000 A 
ATOM     25  C   UNL     1       7.384   5.188  14.985  0.00  0.00    +0.000 A 
ENDBRANCH  16  19
BRANCH  15  26
ATOM     26  C   UNL     1       6.931   5.349  19.881  0.00  0.00    +0.000 C 
ATOM     27  N   UNL     1       8.006   5.484  20.302  0.00  0.00    +0.000 NA
ENDBRANCH  15  26
ENDBRANCH  11  13
BRANCH   8  28
ATOM     28  C   UNL     1       2.016   9.110  17.993  0.00  0.00    +0.000 C 
ATOM     29  O   UNL     1       2.815   9.219  17.063  0.00  0.00    +0.000 OA
BRANCH  28  30
ATOM     30  C   UNL     1       0.951  10.162  18.255  0.00  0.00    +0.000 C 
BRANCH  30  31
ATOM     31  C   UNL     1       1.448  11.483  18.802  0.00  0.00    +0.000 A 
ATOM     32  C   UNL     1       0.992  11.924  20.057  0.00  0.00    +0.000 A 
ATOM     33  C   UNL     1       1.405  13.153  20.577  0.00  0.00    +0.000 A 
ATOM     34  C   UNL     1       2.300  13.945  19.864  0.00  0.00    +0.000 A 
ATOM     35  C   UNL     1       2.803  13.495  18.644  0.00  0.00    +0.000 A 
ATOM     36  C   UNL     1       2.387  12.268  18.120  0.00  0.00    +0.000 A 
ENDBRANCH  30  31
ENDBRANCH  28  30
ENDBRANCH   8  28
BRANCH  12  37
ATOM     37  O   UNL     1       3.578   1.880  19.044  0.00  0.00    +0.000 OA
ATOM     38  H   UNL     1       3.094   1.789  18.210  0.00  0.00    +0.000 HD
ENDBRANCH  12  37
TORSDOF 7
ENDMDL
MODEL 5
REMARK VINA RESULT:      -7.7      5.496      9.290
REMARK  Name = 
REMARK  9 active torsions:
REMARK  status: ('A' for Active; 'I' for Inactive)
REMARK    1  A    between atoms: C_1  and  C_2
REMARK    2  A    between atoms: C_2  and  C_3
REMARK    3  A    between atoms: C_8  and  C_9
REMARK    4  A    between atoms: C_9  and  C_11
REMARK    5  A    between atoms: C_11  and  C_12
REMARK    6  A    between atoms: C_20  and  N_21
REMARK    7  A    between atoms: N_23  and  C_24
REMARK    8  A    between atoms: N_26  and  C_27
REMARK    9  A    between atoms: C_34  and  O_35
REMARK                            x       y       z     vdW  Elec       q    Type
REMARK                         _______ _______ _______ _____ _____    ______ ____
ROOT
ATOM      1  C   UNL     1       3.467  15.765  17.519  0.00  0.00    +0.000 C 
ATOM      2  C   UNL     1       2.832  14.955  18.660  0.00  0.00    +0.000 C 
ATOM      3  C   UNL     1       3.991  14.366  19.495  0.00  0.00    +0.000 C 
ATOM      4  O   UNL     1       2.105  15.888  19.484  0.00  0.00    +0.000 OA
ATOM      5  C   UNL     1       1.221  15.337  20.378  0.00  0.00    +0.000 A 
ATOM      6  C   UNL     1       0.808  16.184  21.408  0.00  0.00    +0.000 A 
ATOM      7  C   UNL     1      -0.029  15.713  22.422  0.00  0.00    +0.000 A 
ATOM      8  C   UNL     1      -0.473  14.390  22.400  0.00  0.00    +0.000 A 
ATOM      9  C   UNL     1      -0.087  13.551  21.341  0.00  0.00    +0.000 A 
ATOM     10  C   UNL     1       0.761  14.015  20.317  0.00  0.00    +0.000 A 
ATOM     11  C   UNL     1       1.276  13.068  19.249  0.00  0.00    +0.000 C 
ATOM     12  C   UNL     1       1.869  13.883  18.081  0.00  0.00    +0.000 C 
ENDROOT
BRANCH  11  13
ATOM     13  N   UNL     1       0.247  12.146  18.759  0.00  0.00    +0.000 NA
ATOM     14  C   UNL     1       0.528  10.954  18.333  0.00  0.00    +0.000 C 
ATOM     15  N   UNL     1       1.791  10.435  18.217  0.00  0.00    +0.000 N 
ATOM     16  N   UNL     1      -0.478  10.095  17.929  0.00  0.00    +0.000 N 
ATOM     17  H   UNL     1       2.571  11.045  18.377  0.00  0.00    +0.000 HD
ATOM     18  H   UNL     1      -0.396   9.125  18.209  0.00  0.00    +0.000 HD
BRANCH  16  19
ATOM     19  C   UNL     1      -1.810  10.507  17.729  0.00  0.00    +0.000 A 
ATOM     20  C   UNL     1      -2.394  10.451  16.457  0.00  0.00    +0.000 A 
ATOM     21  C   UNL     1      -3.643  11.018  16.211  0.00  0.00    +0.000 A 
ATOM     22  C   UNL     1      -4.326  11.639  17.248  0.00  0.00    +0.000 A 
ATOM     23 CL   UNL     1      -5.818  12.434  16.930  0.00  0.00    +0.000 Cl
ATOM     24  C   UNL     1      -3.790  11.653  18.536  0.00  0.00    +0.000 A 
ATOM     25  C   UNL     1      -2.535  11.084  18.778  0.00  0.00    +0.000 A 
ENDBRANCH  16  19
BRANCH  15  26
ATOM     26  C   UNL     1       2.057   9.039  18.087  0.00  0.00    +0.000 C 
ATOM     27  N   UNL     1       2.240   7.898  17.963  0.00  0.00    +0.000 NA
ENDBRANCH  15  26
ENDBRANCH  11  13
BRANCH   8  28
ATOM     28  C   UNL     1      -1.288  13.815  23.514  0.00  0.00    +0.000 C 
ATOM     29  O   UNL     1      -1.303  14.398  24.598  0.00  0.00    +0.000 OA
BRANCH  28  30
ATOM     30  C   UNL     1      -2.070  12.530  23.292  0.00  0.00    +0.000 C 
BRANCH  30  31
ATOM     31  C   UNL     1      -3.564  12.690  23.107  0.00  0.00    +0.000 A 
ATOM     32  C   UNL     1      -4.387  12.831  24.238  0.00  0.00    +0.000 A 
ATOM     33  C   UNL     1      -5.772  12.948  24.105  0.00  0.00    +0.000 A 
ATOM     34  C   UNL     1      -6.352  12.954  22.839  0.00  0.00    +0.000 A 
ATOM     35  C   UNL     1      -5.543  12.870  21.707  0.00  0.00    +0.000 A 
ATOM     36  C   UNL     1      -4.157  12.749  21.839  0.00  0.00    +0.000 A 
ENDBRANCH  30  31
ENDBRANCH  28  30
ENDBRANCH   8  28
BRANCH  12  37
ATOM     37  O   UNL     1       2.512  13.019  17.131  0.00  0.00    +0.000 OA
ATOM     38  H   UNL     1       2.774  13.533  16.353  0.00  0.00    +0.000 HD
ENDBRANCH  12  37
TORSDOF 7
ENDMDL
MODEL 6
REMARK VINA RESULT:      -7.6      1.195      1.849
REMARK  Name = 
REMARK  9 active torsions:
REMARK  status: ('A' for Active; 'I' for Inactive)
REMARK    1  A    between atoms: C_1  and  C_2
REMARK    2  A    between atoms: C_2  and  C_3
REMARK    3  A    between atoms: C_8  and  C_9
REMARK    4  A    between atoms: C_9  and  C_11
REMARK    5  A    between atoms: C_11  and  C_12
REMARK    6  A    between atoms: C_20  and  N_21
REMARK    7  A    between atoms: N_23  and  C_24
REMARK    8  A    between atoms: N_26  and  C_27
REMARK    9  A    between atoms: C_34  and  O_35
REMARK                            x       y       z     vdW  Elec       q    Type
REMARK                         _______ _______ _______ _____ _____    ______ ____
ROOT
ATOM      1  C   UNL     1       2.778   2.625  21.266  0.00  0.00    +0.000 C 
ATOM      2  C   UNL     1       2.476   3.825  20.354  0.00  0.00    +0.000 C 
ATOM      3  C   UNL     1       1.424   3.357  19.325  0.00  0.00    +0.000 C 
ATOM      4  O   UNL     1       1.883   4.844  21.182  0.00  0.00    +0.000 OA
ATOM      5  C   UNL     1       1.817   6.100  20.633  0.00  0.00    +0.000 A 
ATOM      6  C   UNL     1       0.929   6.978  21.256  0.00  0.00    +0.000 A 
ATOM      7  C   UNL     1       0.717   8.259  20.741  0.00  0.00    +0.000 A 
ATOM      8  C   UNL     1       1.410   8.676  19.604  0.00  0.00    +0.000 A 
ATOM      9  C   UNL     1       2.332   7.803  19.001  0.00  0.00    +0.000 A 
ATOM     10  C   UNL     1       2.549   6.508  19.510  0.00  0.00    +0.000 A 
ATOM     11  C   UNL     1       3.449   5.529  18.779  0.00  0.00    +0.000 C 
ATOM     12  C   UNL     1       3.790   4.349  19.713  0.00  0.00    +0.000 C 
ENDROOT
BRANCH  11  13
ATOM     13  N   UNL     1       4.675   6.150  18.270  0.00  0.00    +0.000 NA
ATOM     14  C   UNL     1       5.281   5.722  17.207  0.00  0.00    +0.000 C 
ATOM     15  N   UNL     1       4.913   4.622  16.478  0.00  0.00    +0.000 N 
ATOM     16  N   UNL     1       6.406   6.370  16.729  0.00  0.00    +0.000 N 
ATOM     17  H   UNL     1       4.181   4.038  16.837  0.00  0.00    +0.000 HD
ATOM     18  H   UNL     1       6.478   6.488  15.725  0.00  0.00    +0.000 HD
BRANCH  16  19
ATOM     19  C   UNL     1       7.095   7.357  17.458  0.00  0.00    +0.000 A 
ATOM     20  C   UNL     1       6.982   8.712  17.115  0.00  0.00    +0.000 A 
ATOM     21  C   UNL     1       7.792   9.677  17.710  0.00  0.00    +0.000 A 
ATOM     22  C   UNL     1       8.720   9.291  18.668  0.00  0.00    +0.000 A 
ATOM     23 CL   UNL     1       9.796  10.458  19.329  0.00  0.00    +0.000 Cl
ATOM     24  C   UNL     1       8.807   7.958  19.068  0.00  0.00    +0.000 A 
ATOM     25  C   UNL     1       7.994   6.992  18.467  0.00  0.00    +0.000 A 
ENDBRANCH  16  19
BRANCH  15  26
ATOM     26  C   UNL     1       5.362   4.376  15.146  0.00  0.00    +0.000 C 
ATOM     27  N   UNL     1       5.759   4.155  14.076  0.00  0.00    +0.000 NA
ENDBRANCH  15  26
ENDBRANCH  11  13
BRANCH   8  28
ATOM     28  C   UNL     1       1.144   9.998  18.959  0.00  0.00    +0.000 C 
ATOM     29  O   UNL     1       0.894  10.028  17.754  0.00  0.00    +0.000 OA
BRANCH  28  30
ATOM     30  C   UNL     1       1.190  11.268  19.794  0.00  0.00    +0.000 C 
BRANCH  30  31
ATOM     31  C   UNL     1      -0.122  11.698  20.415  0.00  0.00    +0.000 A 
ATOM     32  C   UNL     1      -0.265  11.663  21.813  0.00  0.00    +0.000 A 
ATOM     33  C   UNL     1      -1.472  12.022  22.418  0.00  0.00    +0.000 A 
ATOM     34  C   UNL     1      -2.543  12.446  21.636  0.00  0.00    +0.000 A 
ATOM     35  C   UNL     1      -2.397  12.538  20.252  0.00  0.00    +0.000 A 
ATOM     36  C   UNL     1      -1.191  12.175  19.646  0.00  0.00    +0.000 A 
ENDBRANCH  30  31
ENDBRANCH  28  30
ENDBRANCH   8  28
BRANCH  12  37
ATOM     37  O   UNL     1       4.503   3.325  19.001  0.00  0.00    +0.000 OA
ATOM     38  H   UNL     1       5.336   3.685  18.664  0.00  0.00    +0.000 HD
ENDBRANCH  12  37
TORSDOF 7
ENDMDL
MODEL 7
REMARK VINA RESULT:      -7.6      1.183      1.997
REMARK  Name = 
REMARK  9 active torsions:
REMARK  status: ('A' for Active; 'I' for Inactive)
REMARK    1  A    between atoms: C_1  and  C_2
REMARK    2  A    between atoms: C_2  and  C_3
REMARK    3  A    between atoms: C_8  and  C_9
REMARK    4  A    between atoms: C_9  and  C_11
REMARK    5  A    between atoms: C_11  and  C_12
REMARK    6  A    between atoms: C_20  and  N_21
REMARK    7  A    between atoms: N_23  and  C_24
REMARK    8  A    between atoms: N_26  and  C_27
REMARK    9  A    between atoms: C_34  and  O_35
REMARK                            x       y       z     vdW  Elec       q    Type
REMARK                         _______ _______ _______ _____ _____    ______ ____
ROOT
ATOM      1  C   UNL     1       2.964   2.553  21.235  0.00  0.00    +0.000 C 
ATOM      2  C   UNL     1       2.689   3.700  20.248  0.00  0.00    +0.000 C 
ATOM      3  C   UNL     1       1.643   3.183  19.236  0.00  0.00    +0.000 C 
ATOM      4  O   UNL     1       2.099   4.774  21.007  0.00  0.00    +0.000 OA
ATOM      5  C   UNL     1       2.056   5.995  20.383  0.00  0.00    +0.000 A 
ATOM      6  C   UNL     1       1.172   6.920  20.942  0.00  0.00    +0.000 A 
ATOM      7  C   UNL     1       0.982   8.170  20.349  0.00  0.00    +0.000 A 
ATOM      8  C   UNL     1       1.694   8.510  19.197  0.00  0.00    +0.000 A 
ATOM      9  C   UNL     1       2.612   7.591  18.659  0.00  0.00    +0.000 A 
ATOM     10  C   UNL     1       2.806   6.326  19.247  0.00  0.00    +0.000 A 
ATOM     11  C   UNL     1       3.702   5.295  18.588  0.00  0.00    +0.000 C 
ATOM     12  C   UNL     1       4.016   4.168  19.594  0.00  0.00    +0.000 C 
ENDROOT
BRANCH  11  13
ATOM     13  N   UNL     1       4.942   5.869  18.058  0.00  0.00    +0.000 NA
ATOM     14  C   UNL     1       5.494   5.443  16.966  0.00  0.00    +0.000 C 
ATOM     15  N   UNL     1       5.051   4.382  16.219  0.00  0.00    +0.000 N 
ATOM     16  N   UNL     1       6.635   6.048  16.470  0.00  0.00    +0.000 N 
ATOM     17  H   UNL     1       4.302   3.825  16.585  0.00  0.00    +0.000 HD
ATOM     18  H   UNL     1       6.683   6.191  15.469  0.00  0.00    +0.000 HD
BRANCH  16  19
ATOM     19  C   UNL     1       7.394   6.980  17.204  0.00  0.00    +0.000 A 
ATOM     20  C   UNL     1       8.029   6.607  18.397  0.00  0.00    +0.000 A 
ATOM     21  C   UNL     1       8.631   7.556  19.221  0.00  0.00    +0.000 A 
ATOM     22  C   UNL     1       8.612   8.894  18.847  0.00  0.00    +0.000 A 
ATOM     23 CL   UNL     1       9.257  10.084  19.907  0.00  0.00    +0.000 Cl
ATOM     24  C   UNL     1       8.039   9.278  17.635  0.00  0.00    +0.000 A 
ATOM     25  C   UNL     1       7.434   8.323  16.812  0.00  0.00    +0.000 A 
ENDBRANCH  16  19
BRANCH  15  26
ATOM     26  C   UNL     1       5.448   4.153  14.867  0.00  0.00    +0.000 C 
ATOM     27  N   UNL     1       5.809   3.964  13.779  0.00  0.00    +0.000 NA
ENDBRANCH  15  26
ENDBRANCH  11  13
BRANCH   8  28
ATOM     28  C   UNL     1       1.453   9.794  18.472  0.00  0.00    +0.000 C 
ATOM     29  O   UNL     1       2.285  10.173  17.648  0.00  0.00    +0.000 OA
BRANCH  28  30
ATOM     30  C   UNL     1       0.198  10.603  18.764  0.00  0.00    +0.000 C 
BRANCH  30  31
ATOM     31  C   UNL     1       0.352  11.715  19.779  0.00  0.00    +0.000 A 
ATOM     32  C   UNL     1      -0.514  11.763  20.885  0.00  0.00    +0.000 A 
ATOM     33  C   UNL     1      -0.421  12.794  21.823  0.00  0.00    +0.000 A 
ATOM     34  C   UNL     1       0.556  13.776  21.683  0.00  0.00    +0.000 A 
ATOM     35  C   UNL     1       1.456  13.710  20.620  0.00  0.00    +0.000 A 
ATOM     36  C   UNL     1       1.362  12.682  19.680  0.00  0.00    +0.000 A 
ENDBRANCH  30  31
ENDBRANCH  28  30
ENDBRANCH   8  28
BRANCH  12  37
ATOM     37  O   UNL     1       4.725   3.095  18.953  0.00  0.00    +0.000 OA
ATOM     38  H   UNL     1       5.677   3.221  19.071  0.00  0.00    +0.000 HD
ENDBRANCH  12  37
TORSDOF 7
ENDMDL
MODEL 8
REMARK VINA RESULT:      -7.6      1.352      2.171
REMARK  Name = 
REMARK  9 active torsions:
REMARK  status: ('A' for Active; 'I' for Inactive)
REMARK    1  A    between atoms: C_1  and  C_2
REMARK    2  A    between atoms: C_2  and  C_3
REMARK    3  A    between atoms: C_8  and  C_9
REMARK    4  A    between atoms: C_9  and  C_11
REMARK    5  A    between atoms: C_11  and  C_12
REMARK    6  A    between atoms: C_20  and  N_21
REMARK    7  A    between atoms: N_23  and  C_24
REMARK    8  A    between atoms: N_26  and  C_27
REMARK    9  A    between atoms: C_34  and  O_35
REMARK                            x       y       z     vdW  Elec       q    Type
REMARK                         _______ _______ _______ _____ _____    ______ ____
ROOT
ATOM      1  C   UNL     1       2.532   2.930  21.468  0.00  0.00    +0.000 C 
ATOM      2  C   UNL     1       2.320   4.055  20.442  0.00  0.00    +0.000 C 
ATOM      3  C   UNL     1       1.320   3.525  19.391  0.00  0.00    +0.000 C 
ATOM      4  O   UNL     1       1.705   5.153  21.143  0.00  0.00    +0.000 OA
ATOM      5  C   UNL     1       1.708   6.359  20.489  0.00  0.00    +0.000 A 
ATOM      6  C   UNL     1       0.808   7.307  20.980  0.00  0.00    +0.000 A 
ATOM      7  C   UNL     1       0.663   8.544  20.348  0.00  0.00    +0.000 A 
ATOM      8  C   UNL     1       1.436   8.847  19.226  0.00  0.00    +0.000 A 
ATOM      9  C   UNL     1       2.368   7.906  18.757  0.00  0.00    +0.000 A 
ATOM     10  C   UNL     1       2.518   6.654  19.384  0.00  0.00    +0.000 A 
ATOM     11  C   UNL     1       3.433   5.597  18.796  0.00  0.00    +0.000 C 
ATOM     12  C   UNL     1       3.684   4.493  19.843  0.00  0.00    +0.000 C 
ENDROOT
BRANCH  11  13
ATOM     13  N   UNL     1       4.705   6.145  18.315  0.00  0.00    +0.000 NA
ATOM     14  C   UNL     1       5.368   5.610  17.338  0.00  0.00    +0.000 C 
ATOM     15  N   UNL     1       5.021   4.454  16.690  0.00  0.00    +0.000 N 
ATOM     16  N   UNL     1       6.537   6.189  16.879  0.00  0.00    +0.000 N 
ATOM     17  H   UNL     1       4.253   3.919  17.051  0.00  0.00    +0.000 HD
ATOM     18  H   UNL     1       6.677   6.212  15.876  0.00  0.00    +0.000 HD
BRANCH  16  19
ATOM     19  C   UNL     1       7.202   7.227  17.560  0.00  0.00    +0.000 A 
ATOM     20  C   UNL     1       7.090   8.555  17.126  0.00  0.00    +0.000 A 
ATOM     21  C   UNL     1       7.880   9.563  17.677  0.00  0.00    +0.000 A 
ATOM     22  C   UNL     1       8.785   9.247  18.683  0.00  0.00    +0.000 A 
ATOM     23 CL   UNL     1       9.837  10.462  19.293  0.00  0.00    +0.000 Cl
ATOM     24  C   UNL     1       8.868   7.943  19.171  0.00  0.00    +0.000 A 
ATOM     25  C   UNL     1       8.075   6.935  18.613  0.00  0.00    +0.000 A 
ENDBRANCH  16  19
BRANCH  15  26
ATOM     26  C   UNL     1       5.549   4.077  15.419  0.00  0.00    +0.000 C 
ATOM     27  N   UNL     1       5.989   3.808  14.377  0.00  0.00    +0.000 NA
ENDBRANCH  15  26
ENDBRANCH  11  13
BRANCH   8  28
ATOM     28  C   UNL     1       1.246  10.116  18.458  0.00  0.00    +0.000 C 
ATOM     29  O   UNL     1       2.108  10.450  17.646  0.00  0.00    +0.000 OA
BRANCH  28  30
ATOM     30  C   UNL     1       0.006  10.963  18.695  0.00  0.00    +0.000 C 
BRANCH  30  31
ATOM     31  C   UNL     1       0.235  12.294  19.379  0.00  0.00    +0.000 A 
ATOM     32  C   UNL     1       0.275  13.467  18.606  0.00  0.00    +0.000 A 
ATOM     33  C   UNL     1       0.518  14.708  19.201  0.00  0.00    +0.000 A 
ATOM     34  C   UNL     1       0.696  14.796  20.579  0.00  0.00    +0.000 A 
ATOM     35  C   UNL     1       0.604  13.647  21.364  0.00  0.00    +0.000 A 
ATOM     36  C   UNL     1       0.366  12.405  20.769  0.00  0.00    +0.000 A 
ENDBRANCH  30  31
ENDBRANCH  28  30
ENDBRANCH   8  28
BRANCH  12  37
ATOM     37  O   UNL     1       4.411   3.397  19.265  0.00  0.00    +0.000 OA
ATOM     38  H   UNL     1       5.178   3.736  18.783  0.00  0.00    +0.000 HD
ENDBRANCH  12  37
TORSDOF 7
ENDMDL
MODEL 9
REMARK VINA RESULT:      -7.5      0.914      1.492
REMARK  Name = 
REMARK  9 active torsions:
REMARK  status: ('A' for Active; 'I' for Inactive)
REMARK    1  A    between atoms: C_1  and  C_2
REMARK    2  A    between atoms: C_2  and  C_3
REMARK    3  A    between atoms: C_8  and  C_9
REMARK    4  A    between atoms: C_9  and  C_11
REMARK    5  A    between atoms: C_11  and  C_12
REMARK    6  A    between atoms: C_20  and  N_21
REMARK    7  A    between atoms: N_23  and  C_24
REMARK    8  A    between atoms: N_26  and  C_27
REMARK    9  A    between atoms: C_34  and  O_35
REMARK                            x       y       z     vdW  Elec       q    Type
REMARK                         _______ _______ _______ _____ _____    ______ ____
ROOT
ATOM      1  C   UNL     1       3.593   2.169  19.777  0.00  0.00    +0.000 C 
ATOM      2  C   UNL     1       3.242   3.511  19.114  0.00  0.00    +0.000 C 
ATOM      3  C   UNL     1       2.315   3.196  17.919  0.00  0.00    +0.000 C 
ATOM      4  O   UNL     1       2.495   4.275  20.081  0.00  0.00    +0.000 OA
ATOM      5  C   UNL     1       2.347   5.611  19.805  0.00  0.00    +0.000 A 
ATOM      6  C   UNL     1       1.336   6.259  20.516  0.00  0.00    +0.000 A 
ATOM      7  C   UNL     1       1.038   7.601  20.265  0.00  0.00    +0.000 A 
ATOM      8  C   UNL     1       1.767   8.309  19.308  0.00  0.00    +0.000 A 
ATOM      9  C   UNL     1       2.809   7.664  18.621  0.00  0.00    +0.000 A 
ATOM     10  C   UNL     1       3.114   6.310  18.863  0.00  0.00    +0.000 A 
ATOM     11  C   UNL     1       4.154   5.588  18.027  0.00  0.00    +0.000 C 
ATOM     12  C   UNL     1       4.540   4.265  18.718  0.00  0.00    +0.000 C 
ENDROOT
BRANCH  11  13
ATOM     13  N   UNL     1       5.347   6.401  17.773  0.00  0.00    +0.000 NA
ATOM     14  C   UNL     1       6.145   6.170  16.778  0.00  0.00    +0.000 C 
ATOM     15  N   UNL     1       6.030   5.124  15.900  0.00  0.00    +0.000 N 
ATOM     16  N   UNL     1       7.232   6.993  16.541  0.00  0.00    +0.000 N 
ATOM     17  H   UNL     1       5.338   4.423  16.086  0.00  0.00    +0.000 HD
ATOM     18  H   UNL     1       7.427   7.232  15.576  0.00  0.00    +0.000 HD
BRANCH  16  19
ATOM     19  C   UNL     1       7.678   7.964  17.458  0.00  0.00    +0.000 A 
ATOM     20  C   UNL     1       7.453   9.328  17.224  0.00  0.00    +0.000 A 
ATOM     21  C   UNL     1       8.040  10.304  18.026  0.00  0.00    +0.000 A 
ATOM     22  C   UNL     1       8.854   9.918  19.084  0.00  0.00    +0.000 A 
ATOM     23 CL   UNL     1       9.667  11.115  20.013  0.00  0.00    +0.000 Cl
ATOM     24  C   UNL     1       9.042   8.566  19.371  0.00  0.00    +0.000 A 
ATOM     25  C   UNL     1       8.452   7.590  18.562  0.00  0.00    +0.000 A 
ENDBRANCH  16  19
BRANCH  15  26
ATOM     26  C   UNL     1       6.689   5.085  14.634  0.00  0.00    +0.000 C 
ATOM     27  N   UNL     1       7.190   5.061  13.586  0.00  0.00    +0.000 NA
ENDBRANCH  15  26
ENDBRANCH  11  13
BRANCH   8  28
ATOM     28  C   UNL     1       1.420   9.714  18.935  0.00  0.00    +0.000 C 
ATOM     29  O   UNL     1       2.137  10.305  18.128  0.00  0.00    +0.000 OA
BRANCH  28  30
ATOM     30  C   UNL     1       0.202  10.381  19.554  0.00  0.00    +0.000 C 
BRANCH  30  31
ATOM     31  C   UNL     1      -1.013  10.502  18.658  0.00  0.00    +0.000 A 
ATOM     32  C   UNL     1      -2.000  11.454  18.962  0.00  0.00    +0.000 A 
ATOM     33  C   UNL     1      -3.149  11.570  18.176  0.00  0.00    +0.000 A 
ATOM     34  C   UNL     1      -3.313  10.754  17.060  0.00  0.00    +0.000 A 
ATOM     35  C   UNL     1      -2.316   9.843  16.715  0.00  0.00    +0.000 A 
ATOM     36  C   UNL     1      -1.168   9.724  17.504  0.00  0.00    +0.000 A 
ENDBRANCH  30  31
ENDBRANCH  28  30
ENDBRANCH   8  28
BRANCH  12  37
ATOM     37  O   UNL     1       5.398   3.480  17.874  0.00  0.00    +0.000 OA
ATOM     38  H   UNL     1       5.985   2.939  18.423  0.00  0.00    +0.000 HD
ENDBRANCH  12  37
TORSDOF 7
ENDMDL
