MODEL 1
REMARK VINA RESULT:      -7.0      0.000      0.000
REMARK  Name = 
REMARK  7 active torsions:
REMARK  status: ('A' for Active; 'I' for Inactive)
REMARK    1  A    between atoms: C_1  and  C_2
REMARK    2  A    between atoms: N_6  and  C_7
REMARK    3  A    between atoms: C_7  and  C_8
REMARK    4  A    between atoms: N_10  and  C_11
REMARK    5  A    between atoms: C_14  and  N_15
REMARK    6  A    between atoms: N_15  and  C_16
REMARK    7  A    between atoms: N_15  and  C_17
REMARK                            x       y       z     vdW  Elec       q    Type
REMARK                         _______ _______ _______ _____ _____    ______ ____
ROOT
ATOM      1  C   UNL     1       2.868   4.993  18.615  0.00  0.00    +0.000 C 
ATOM      2  O   UNL     1       1.747   4.788  18.159  0.00  0.00    +0.000 OA
ATOM      3  N   UNL     1       3.308   6.219  19.102  0.00  0.00    +0.000 N 
ATOM      4  H   UNL     1       4.295   6.445  19.054  0.00  0.00    +0.000 HD
ENDROOT
BRANCH   3   5
ATOM      5  C   UNL     1       2.428   7.326  19.082  0.00  0.00    +0.000 A 
ATOM      6  C   UNL     1       2.266   8.099  17.940  0.00  0.00    +0.000 A 
ATOM      7  C   UNL     1       1.558   9.300  17.995  0.00  0.00    +0.000 A 
ATOM      8  C   UNL     1       0.999   9.778  19.190  0.00  0.00    +0.000 A 
ATOM      9  C   UNL     1       1.091   8.920  20.301  0.00  0.00    +0.000 A 
ATOM     10  C   UNL     1       1.772   7.693  20.248  0.00  0.00    +0.000 A 
BRANCH   8  11
ATOM     11  N   UNL     1       0.422  11.032  19.258  0.00  0.00    +0.000 N 
ATOM     12  C   UNL     1      -0.957  11.244  19.674  0.00  0.00    +0.000 C 
ATOM     13  C   UNL     1       1.171  12.246  18.937  0.00  0.00    +0.000 C 
ENDBRANCH   8  11
ENDBRANCH   3   5
BRANCH   1  14
ATOM     14  C   UNL     1       3.904   3.888  18.587  0.00  0.00    +0.000 C 
BRANCH  14  20
ATOM     15  C   UNL     1       5.766   4.068  14.001  0.00  0.00    +0.000 C 
ATOM     16  C   UNL     1       5.954   4.282  15.475  0.00  0.00    +0.000 A 
ATOM     17  C   UNL     1       7.198   4.634  15.995  0.00  0.00    +0.000 A 
ATOM     18  C   UNL     1       7.352   4.752  17.366  0.00  0.00    +0.000 A 
ATOM     19  C   UNL     1       6.271   4.496  18.202  0.00  0.00    +0.000 A 
ATOM     20  N   UNL     1       5.051   4.191  17.689  0.00  0.00    +0.000 N 
ATOM     21  C   UNL     1       4.886   4.094  16.349  0.00  0.00    +0.000 A 
ENDBRANCH  14  20
ENDBRANCH   1  14
TORSDOF 4
ENDMDL
MODEL 2
REMARK VINA RESULT:      -6.8      0.629      1.310
REMARK  Name = 
REMARK  7 active torsions:
REMARK  status: ('A' for Active; 'I' for Inactive)
REMARK    1  A    between atoms: C_1  and  C_2
REMARK    2  A    between atoms: N_6  and  C_7
REMARK    3  A    between atoms: C_7  and  C_8
REMARK    4  A    between atoms: N_10  and  C_11
REMARK    5  A    between atoms: C_14  and  N_15
REMARK    6  A    between atoms: N_15  and  C_16
REMARK    7  A    between atoms: N_15  and  C_17
REMARK                            x       y       z     vdW  Elec       q    Type
REMARK                         _______ _______ _______ _____ _____    ______ ____
ROOT
ATOM      1  C   UNL     1       2.762   5.079  18.418  0.00  0.00    +0.000 C 
ATOM      2  O   UNL     1       1.654   5.040  17.889  0.00  0.00    +0.000 OA
ATOM      3  N   UNL     1       3.287   6.193  19.064  0.00  0.00    +0.000 N 
ATOM      4  H   UNL     1       4.293   6.322  19.089  0.00  0.00    +0.000 HD
ENDROOT
BRANCH   3   5
ATOM      5  C   UNL     1       2.520   7.378  19.133  0.00  0.00    +0.000 A 
ATOM      6  C   UNL     1       1.871   7.751  20.303  0.00  0.00    +0.000 A 
ATOM      7  C   UNL     1       0.957   8.805  20.298  0.00  0.00    +0.000 A 
ATOM      8  C   UNL     1       0.648   9.514  19.127  0.00  0.00    +0.000 A 
ATOM      9  C   UNL     1       1.400   9.180  17.986  0.00  0.00    +0.000 A 
ATOM     10  C   UNL     1       2.348   8.143  17.989  0.00  0.00    +0.000 A 
BRANCH   8  11
ATOM     11  N   UNL     1      -0.358  10.461  19.109  0.00  0.00    +0.000 N 
ATOM     12  C   UNL     1      -0.622  11.353  20.230  0.00  0.00    +0.000 C 
ATOM     13  C   UNL     1      -1.219  10.652  17.943  0.00  0.00    +0.000 C 
ENDBRANCH   8  11
ENDBRANCH   3   5
BRANCH   1  14
ATOM     14  C   UNL     1       3.688   3.885  18.310  0.00  0.00    +0.000 C 
BRANCH  14  20
ATOM     15  C   UNL     1       5.960   4.036  13.912  0.00  0.00    +0.000 C 
ATOM     16  C   UNL     1       6.016   4.249  15.397  0.00  0.00    +0.000 A 
ATOM     17  C   UNL     1       7.212   4.586  16.027  0.00  0.00    +0.000 A 
ATOM     18  C   UNL     1       7.242   4.705  17.407  0.00  0.00    +0.000 A 
ATOM     19  C   UNL     1       6.087   4.463  18.141  0.00  0.00    +0.000 A 
ATOM     20  N   UNL     1       4.915   4.172  17.520  0.00  0.00    +0.000 N 
ATOM     21  C   UNL     1       4.871   4.076  16.170  0.00  0.00    +0.000 A 
ENDBRANCH  14  20
ENDBRANCH   1  14
TORSDOF 4
ENDMDL
MODEL 3
REMARK VINA RESULT:      -6.5      0.996      1.890
REMARK  Name = 
REMARK  7 active torsions:
REMARK  status: ('A' for Active; 'I' for Inactive)
REMARK    1  A    between atoms: C_1  and  C_2
REMARK    2  A    between atoms: N_6  and  C_7
REMARK    3  A    between atoms: C_7  and  C_8
REMARK    4  A    between atoms: N_10  and  C_11
REMARK    5  A    between atoms: C_14  and  N_15
REMARK    6  A    between atoms: N_15  and  C_16
REMARK    7  A    between atoms: N_15  and  C_17
REMARK                            x       y       z     vdW  Elec       q    Type
REMARK                         _______ _______ _______ _____ _____    ______ ____
ROOT
ATOM      1  C   UNL     1       2.640   4.968  19.285  0.00  0.00    +0.000 C 
ATOM      2  O   UNL     1       1.523   4.759  18.820  0.00  0.00    +0.000 OA
ATOM      3  N   UNL     1       3.073   6.196  19.772  0.00  0.00    +0.000 N 
ATOM      4  H   UNL     1       4.061   6.424  19.731  0.00  0.00    +0.000 HD
ENDROOT
BRANCH   3   5
ATOM      5  C   UNL     1       2.192   7.300  19.743  0.00  0.00    +0.000 A 
ATOM      6  C   UNL     1       2.104   8.125  18.628  0.00  0.00    +0.000 A 
ATOM      7  C   UNL     1       1.388   9.321  18.690  0.00  0.00    +0.000 A 
ATOM      8  C   UNL     1       0.747   9.743  19.865  0.00  0.00    +0.000 A 
ATOM      9  C   UNL     1       0.767   8.835  20.939  0.00  0.00    +0.000 A 
ATOM     10  C   UNL     1       1.456   7.613  20.876  0.00  0.00    +0.000 A 
BRANCH   8  11
ATOM     11  N   UNL     1       0.161  10.991  19.950  0.00  0.00    +0.000 N 
ATOM     12  C   UNL     1      -0.091  11.660  21.219  0.00  0.00    +0.000 C 
ATOM     13  C   UNL     1      -0.229  11.745  18.759  0.00  0.00    +0.000 C 
ENDBRANCH   8  11
ENDBRANCH   3   5
BRANCH   1  14
ATOM     14  C   UNL     1       3.678   3.865  19.268  0.00  0.00    +0.000 C 
BRANCH  14  20
ATOM     15  C   UNL     1       8.055   6.155  18.902  0.00  0.00    +0.000 C 
ATOM     16  C   UNL     1       6.989   5.308  18.269  0.00  0.00    +0.000 A 
ATOM     17  C   UNL     1       7.059   4.956  16.922  0.00  0.00    +0.000 A 
ATOM     18  C   UNL     1       6.023   4.235  16.354  0.00  0.00    +0.000 A 
ATOM     19  C   UNL     1       4.920   3.894  17.128  0.00  0.00    +0.000 A 
ATOM     20  N   UNL     1       4.873   4.205  18.449  0.00  0.00    +0.000 N 
ATOM     21  C   UNL     1       5.892   4.892  19.019  0.00  0.00    +0.000 A 
ENDBRANCH  14  20
ENDBRANCH   1  14
TORSDOF 4
ENDMDL
MODEL 4
REMARK VINA RESULT:      -6.5      0.814      1.850
REMARK  Name = 
REMARK  7 active torsions:
REMARK  status: ('A' for Active; 'I' for Inactive)
REMARK    1  A    between atoms: C_1  and  C_2
REMARK    2  A    between atoms: N_6  and  C_7
REMARK    3  A    between atoms: C_7  and  C_8
REMARK    4  A    between atoms: N_10  and  C_11
REMARK    5  A    between atoms: C_14  and  N_15
REMARK    6  A    between atoms: N_15  and  C_16
REMARK    7  A    between atoms: N_15  and  C_17
REMARK                            x       y       z     vdW  Elec       q    Type
REMARK                         _______ _______ _______ _____ _____    ______ ____
ROOT
ATOM      1  C   UNL     1       2.648   4.722  18.246  0.00  0.00    +0.000 C 
ATOM      2  O   UNL     1       1.502   4.671  17.808  0.00  0.00    +0.000 OA
ATOM      3  N   UNL     1       3.198   5.826  18.888  0.00  0.00    +0.000 N 
ATOM      4  H   UNL     1       4.199   5.982  18.835  0.00  0.00    +0.000 HD
ENDROOT
BRANCH   3   5
ATOM      5  C   UNL     1       2.410   6.986  19.062  0.00  0.00    +0.000 A 
ATOM      6  C   UNL     1       2.284   7.933  18.053  0.00  0.00    +0.000 A 
ATOM      7  C   UNL     1       1.676   9.162  18.309  0.00  0.00    +0.000 A 
ATOM      8  C   UNL     1       1.185   9.496  19.581  0.00  0.00    +0.000 A 
ATOM      9  C   UNL     1       1.233   8.477  20.549  0.00  0.00    +0.000 A 
ATOM     10  C   UNL     1       1.812   7.223  20.291  0.00  0.00    +0.000 A 
BRANCH   8  11
ATOM     11  N   UNL     1       0.712  10.765  19.854  0.00  0.00    +0.000 N 
ATOM     12  C   UNL     1       0.547  11.784  18.825  0.00  0.00    +0.000 C 
ATOM     13  C   UNL     1       0.317  11.171  21.202  0.00  0.00    +0.000 C 
ENDBRANCH   8  11
ENDBRANCH   3   5
BRANCH   1  14
ATOM     14  C   UNL     1       3.592   3.558  18.018  0.00  0.00    +0.000 C 
BRANCH  14  20
ATOM     15  C   UNL     1       7.966   5.654  19.018  0.00  0.00    +0.000 C 
ATOM     16  C   UNL     1       7.052   4.995  18.026  0.00  0.00    +0.000 A 
ATOM     17  C   UNL     1       7.405   4.897  16.682  0.00  0.00    +0.000 A 
ATOM     18  C   UNL     1       6.507   4.347  15.782  0.00  0.00    +0.000 A 
ATOM     19  C   UNL     1       5.262   3.923  16.230  0.00  0.00    +0.000 A 
ATOM     20  N   UNL     1       4.936   3.985  17.547  0.00  0.00    +0.000 N 
ATOM     21  C   UNL     1       5.816   4.501  18.437  0.00  0.00    +0.000 A 
ENDBRANCH  14  20
ENDBRANCH   1  14
TORSDOF 4
ENDMDL
MODEL 5
REMARK VINA RESULT:      -6.5      0.986      2.191
REMARK  Name = 
REMARK  7 active torsions:
REMARK  status: ('A' for Active; 'I' for Inactive)
REMARK    1  A    between atoms: C_1  and  C_2
REMARK    2  A    between atoms: N_6  and  C_7
REMARK    3  A    between atoms: C_7  and  C_8
REMARK    4  A    between atoms: N_10  and  C_11
REMARK    5  A    between atoms: C_14  and  N_15
REMARK    6  A    between atoms: N_15  and  C_16
REMARK    7  A    between atoms: N_15  and  C_17
REMARK                            x       y       z     vdW  Elec       q    Type
REMARK                         _______ _______ _______ _____ _____    ______ ____
ROOT
ATOM      1  C   UNL     1       2.567   5.356  18.840  0.00  0.00    +0.000 C 
ATOM      2  O   UNL     1       1.689   5.418  17.984  0.00  0.00    +0.000 OA
ATOM      3  N   UNL     1       2.889   6.388  19.715  0.00  0.00    +0.000 N 
ATOM      4  H   UNL     1       3.837   6.458  20.070  0.00  0.00    +0.000 HD
ENDROOT
BRANCH   3   5
ATOM      5  C   UNL     1       2.177   7.606  19.638  0.00  0.00    +0.000 A 
ATOM      6  C   UNL     1       1.414   8.064  20.705  0.00  0.00    +0.000 A 
ATOM      7  C   UNL     1       0.558   9.154  20.544  0.00  0.00    +0.000 A 
ATOM      8  C   UNL     1       0.423   9.816  19.313  0.00  0.00    +0.000 A 
ATOM      9  C   UNL     1       1.286   9.394  18.287  0.00  0.00    +0.000 A 
ATOM     10  C   UNL     1       2.177   8.319  18.449  0.00  0.00    +0.000 A 
BRANCH   8  11
ATOM     11  N   UNL     1      -0.528  10.803  19.133  0.00  0.00    +0.000 N 
ATOM     12  C   UNL     1      -1.463  10.803  18.017  0.00  0.00    +0.000 C 
ATOM     13  C   UNL     1      -0.679  11.912  20.074  0.00  0.00    +0.000 C 
ENDBRANCH   8  11
ENDBRANCH   3   5
BRANCH   1  14
ATOM     14  C   UNL     1       3.443   4.122  18.929  0.00  0.00    +0.000 C 
BRANCH  14  20
ATOM     15  C   UNL     1       8.094   5.818  19.090  0.00  0.00    +0.000 C 
ATOM     16  C   UNL     1       7.008   5.111  18.332  0.00  0.00    +0.000 A 
ATOM     17  C   UNL     1       7.188   4.739  17.002  0.00  0.00    +0.000 A 
ATOM     18  C   UNL     1       6.140   4.153  16.312  0.00  0.00    +0.000 A 
ATOM     19  C   UNL     1       4.919   3.967  16.950  0.00  0.00    +0.000 A 
ATOM     20  N   UNL     1       4.759   4.295  18.258  0.00  0.00    +0.000 N 
ATOM     21  C   UNL     1       5.785   4.849  18.946  0.00  0.00    +0.000 A 
ENDBRANCH  14  20
ENDBRANCH   1  14
TORSDOF 4
ENDMDL
MODEL 6
REMARK VINA RESULT:      -6.3      1.286      2.152
REMARK  Name = 
REMARK  7 active torsions:
REMARK  status: ('A' for Active; 'I' for Inactive)
REMARK    1  A    between atoms: C_1  and  C_2
REMARK    2  A    between atoms: N_6  and  C_7
REMARK    3  A    between atoms: C_7  and  C_8
REMARK    4  A    between atoms: N_10  and  C_11
REMARK    5  A    between atoms: C_14  and  N_15
REMARK    6  A    between atoms: N_15  and  C_16
REMARK    7  A    between atoms: N_15  and  C_17
REMARK                            x       y       z     vdW  Elec       q    Type
REMARK                         _______ _______ _______ _____ _____    ______ ____
ROOT
ATOM      1  C   UNL     1       2.261   5.184  20.211  0.00  0.00    +0.000 C 
ATOM      2  O   UNL     1       1.071   5.001  20.451  0.00  0.00    +0.000 OA
ATOM      3  N   UNL     1       2.829   6.424  19.943  0.00  0.00    +0.000 N 
ATOM      4  H   UNL     1       3.653   6.474  19.354  0.00  0.00    +0.000 HD
ENDROOT
BRANCH   3   5
ATOM      5  C   UNL     1       2.007   7.574  19.938  0.00  0.00    +0.000 A 
ATOM      6  C   UNL     1       1.822   8.325  18.784  0.00  0.00    +0.000 A 
ATOM      7  C   UNL     1       1.179   9.562  18.842  0.00  0.00    +0.000 A 
ATOM      8  C   UNL     1       0.711  10.099  20.051  0.00  0.00    +0.000 A 
ATOM      9  C   UNL     1       0.819   9.267  21.179  0.00  0.00    +0.000 A 
ATOM     10  C   UNL     1       1.434   8.005  21.126  0.00  0.00    +0.000 A 
BRANCH   8  11
ATOM     11  N   UNL     1       0.202  11.382  20.113  0.00  0.00    +0.000 N 
ATOM     12  C   UNL     1       1.033  12.568  19.958  0.00  0.00    +0.000 C 
ATOM     13  C   UNL     1      -1.223  11.640  20.316  0.00  0.00    +0.000 C 
ENDBRANCH   8  11
ENDBRANCH   3   5
BRANCH   1  14
ATOM     14  C   UNL     1       3.196   3.996  20.103  0.00  0.00    +0.000 C 
BRANCH  14  20
ATOM     15  C   UNL     1       7.625   5.203  18.242  0.00  0.00    +0.000 C 
ATOM     16  C   UNL     1       6.243   4.657  18.025  0.00  0.00    +0.000 A 
ATOM     17  C   UNL     1       5.787   4.353  16.744  0.00  0.00    +0.000 A 
ATOM     18  C   UNL     1       4.483   3.919  16.573  0.00  0.00    +0.000 A 
ATOM     19  C   UNL     1       3.644   3.817  17.676  0.00  0.00    +0.000 A 
ATOM     20  N   UNL     1       4.104   4.078  18.928  0.00  0.00    +0.000 N 
ATOM     21  C   UNL     1       5.384   4.481  19.107  0.00  0.00    +0.000 A 
ENDBRANCH  14  20
ENDBRANCH   1  14
TORSDOF 4
ENDMDL
MODEL 7
REMARK VINA RESULT:      -6.2      3.144      7.120
REMARK  Name = 
REMARK  7 active torsions:
REMARK  status: ('A' for Active; 'I' for Inactive)
REMARK    1  A    between atoms: C_1  and  C_2
REMARK    2  A    between atoms: N_6  and  C_7
REMARK    3  A    between atoms: C_7  and  C_8
REMARK    4  A    between atoms: N_10  and  C_11
REMARK    5  A    between atoms: C_14  and  N_15
REMARK    6  A    between atoms: N_15  and  C_16
REMARK    7  A    between atoms: N_15  and  C_17
REMARK                            x       y       z     vdW  Elec       q    Type
REMARK                         _______ _______ _______ _____ _____    ______ ____
ROOT
ATOM      1  C   UNL     1       3.835   6.184  18.250  0.00  0.00    +0.000 C 
ATOM      2  O   UNL     1       3.664   6.974  17.326  0.00  0.00    +0.000 OA
ATOM      3  N   UNL     1       4.694   5.092  18.204  0.00  0.00    +0.000 N 
ATOM      4  H   UNL     1       4.487   4.275  18.768  0.00  0.00    +0.000 HD
ENDROOT
BRANCH   3   5
ATOM      5  C   UNL     1       5.434   4.845  17.025  0.00  0.00    +0.000 A 
ATOM      6  C   UNL     1       6.669   5.445  16.810  0.00  0.00    +0.000 A 
ATOM      7  C   UNL     1       7.289   5.356  15.563  0.00  0.00    +0.000 A 
ATOM      8  C   UNL     1       6.695   4.679  14.486  0.00  0.00    +0.000 A 
ATOM      9  C   UNL     1       5.500   3.995  14.769  0.00  0.00    +0.000 A 
ATOM     10  C   UNL     1       4.884   4.050  16.031  0.00  0.00    +0.000 A 
BRANCH   8  11
ATOM     11  N   UNL     1       7.255   4.717  13.223  0.00  0.00    +0.000 N 
ATOM     12  C   UNL     1       8.282   5.677  12.843  0.00  0.00    +0.000 C 
ATOM     13  C   UNL     1       6.868   3.771  12.177  0.00  0.00    +0.000 C 
ENDBRANCH   8  11
ENDBRANCH   3   5
BRANCH   1  14
ATOM     14  C   UNL     1       3.012   6.319  19.515  0.00  0.00    +0.000 C 
BRANCH  14  20
ATOM     15  C   UNL     1       0.464   2.172  18.597  0.00  0.00    +0.000 C 
ATOM     16  C   UNL     1       1.250   3.012  19.562  0.00  0.00    +0.000 A 
ATOM     17  C   UNL     1       1.371   2.643  20.900  0.00  0.00    +0.000 A 
ATOM     18  C   UNL     1       2.043   3.478  21.777  0.00  0.00    +0.000 A 
ATOM     19  C   UNL     1       2.565   4.680  21.314  0.00  0.00    +0.000 A 
ATOM     20  N   UNL     1       2.478   5.018  20.002  0.00  0.00    +0.000 N 
ATOM     21  C   UNL     1       1.842   4.197  19.132  0.00  0.00    +0.000 A 
ENDBRANCH  14  20
ENDBRANCH   1  14
TORSDOF 4
ENDMDL
MODEL 8
REMARK VINA RESULT:      -6.2      3.323      7.386
REMARK  Name = 
REMARK  7 active torsions:
REMARK  status: ('A' for Active; 'I' for Inactive)
REMARK    1  A    between atoms: C_1  and  C_2
REMARK    2  A    between atoms: N_6  and  C_7
REMARK    3  A    between atoms: C_7  and  C_8
REMARK    4  A    between atoms: N_10  and  C_11
REMARK    5  A    between atoms: C_14  and  N_15
REMARK    6  A    between atoms: N_15  and  C_16
REMARK    7  A    between atoms: N_15  and  C_17
REMARK                            x       y       z     vdW  Elec       q    Type
REMARK                         _______ _______ _______ _____ _____    ______ ____
ROOT
ATOM      1  C   UNL     1       4.176   6.016  18.120  0.00  0.00    +0.000 C 
ATOM      2  O   UNL     1       4.145   6.954  17.328  0.00  0.00    +0.000 OA
ATOM      3  N   UNL     1       4.880   4.834  17.913  0.00  0.00    +0.000 N 
ATOM      4  H   UNL     1       4.545   3.978  18.341  0.00  0.00    +0.000 HD
ENDROOT
BRANCH   3   5
ATOM      5  C   UNL     1       5.618   4.670  16.719  0.00  0.00    +0.000 A 
ATOM      6  C   UNL     1       6.918   5.147  16.603  0.00  0.00    +0.000 A 
ATOM      7  C   UNL     1       7.557   5.161  15.363  0.00  0.00    +0.000 A 
ATOM      8  C   UNL     1       6.919   4.713  14.195  0.00  0.00    +0.000 A 
ATOM      9  C   UNL     1       5.647   4.140  14.367  0.00  0.00    +0.000 A 
ATOM     10  C   UNL     1       5.008   4.090  15.617  0.00  0.00    +0.000 A 
BRANCH   8  11
ATOM     11  N   UNL     1       7.513   4.862  12.956  0.00  0.00    +0.000 N 
ATOM     12  C   UNL     1       7.159   4.038  11.808  0.00  0.00    +0.000 C 
ATOM     13  C   UNL     1       8.528   5.882  12.702  0.00  0.00    +0.000 C 
ENDBRANCH   8  11
ENDBRANCH   3   5
BRANCH   1  14
ATOM     14  C   UNL     1       3.338   6.069  19.380  0.00  0.00    +0.000 C 
BRANCH  14  20
ATOM     15  C   UNL     1       1.424   2.438  22.152  0.00  0.00    +0.000 C 
ATOM     16  C   UNL     1       1.473   3.165  20.840  0.00  0.00    +0.000 A 
ATOM     17  C   UNL     1       0.756   2.703  19.738  0.00  0.00    +0.000 A 
ATOM     18  C   UNL     1       0.880   3.358  18.524  0.00  0.00    +0.000 A 
ATOM     19  C   UNL     1       1.734   4.449  18.418  0.00  0.00    +0.000 A 
ATOM     20  N   UNL     1       2.402   4.920  19.503  0.00  0.00    +0.000 N 
ATOM     21  C   UNL     1       2.270   4.299  20.700  0.00  0.00    +0.000 A 
ENDBRANCH  14  20
ENDBRANCH   1  14
TORSDOF 4
ENDMDL
MODEL 9
REMARK VINA RESULT:      -6.2      2.575      8.666
REMARK  Name = 
REMARK  7 active torsions:
REMARK  status: ('A' for Active; 'I' for Inactive)
REMARK    1  A    between atoms: C_1  and  C_2
REMARK    2  A    between atoms: N_6  and  C_7
REMARK    3  A    between atoms: C_7  and  C_8
REMARK    4  A    between atoms: N_10  and  C_11
REMARK    5  A    between atoms: C_14  and  N_15
REMARK    6  A    between atoms: N_15  and  C_16
REMARK    7  A    between atoms: N_15  and  C_17
REMARK                            x       y       z     vdW  Elec       q    Type
REMARK                         _______ _______ _______ _____ _____    ______ ____
ROOT
ATOM      1  C   UNL     1       0.553   8.431  21.674  0.00  0.00    +0.000 C 
ATOM      2  O   UNL     1      -0.496   7.945  21.260  0.00  0.00    +0.000 OA
ATOM      3  N   UNL     1       1.821   8.030  21.269  0.00  0.00    +0.000 N 
ATOM      4  H   UNL     1       2.600   8.131  21.911  0.00  0.00    +0.000 HD
ENDROOT
BRANCH   3   5
ATOM      5  C   UNL     1       1.946   6.992  20.318  0.00  0.00    +0.000 A 
ATOM      6  C   UNL     1       1.740   5.663  20.668  0.00  0.00    +0.000 A 
ATOM      7  C   UNL     1       2.065   4.640  19.777  0.00  0.00    +0.000 A 
ATOM      8  C   UNL     1       2.617   4.904  18.515  0.00  0.00    +0.000 A 
ATOM      9  C   UNL     1       2.713   6.259  18.153  0.00  0.00    +0.000 A 
ATOM     10  C   UNL     1       2.356   7.297  19.029  0.00  0.00    +0.000 A 
BRANCH   8  11
ATOM     11  N   UNL     1       3.061   3.878  17.701  0.00  0.00    +0.000 N 
ATOM     12  C   UNL     1       2.423   2.570  17.660  0.00  0.00    +0.000 C 
ATOM     13  C   UNL     1       4.199   4.046  16.798  0.00  0.00    +0.000 C 
ENDBRANCH   8  11
ENDBRANCH   3   5
BRANCH   1  14
ATOM     14  C   UNL     1       0.514   9.483  22.764  0.00  0.00    +0.000 C 
BRANCH  14  20
ATOM     15  C   UNL     1      -3.408  12.407  23.540  0.00  0.00    +0.000 C 
ATOM     16  C   UNL     1      -2.165  12.103  22.755  0.00  0.00    +0.000 A 
ATOM     17  C   UNL     1      -1.828  12.853  21.630  0.00  0.00    +0.000 A 
ATOM     18  C   UNL     1      -0.713  12.499  20.888  0.00  0.00    +0.000 A 
ATOM     19  C   UNL     1       0.037  11.391  21.263  0.00  0.00    +0.000 A 
ATOM     20  N   UNL     1      -0.273  10.686  22.382  0.00  0.00    +0.000 N 
ATOM     21  C   UNL     1      -1.349  11.037  23.126  0.00  0.00    +0.000 A 
ENDBRANCH  14  20
ENDBRANCH   1  14
TORSDOF 4
ENDMDL
