MODEL 1
REMARK VINA RESULT:      -7.9      0.000      0.000
REMARK  Name = 
REMARK  11 active torsions:
REMARK  status: ('A' for Active; 'I' for Inactive)
REMARK    1  A    between atoms: C_1  and  C_2
REMARK    2  A    between atoms: C_2  and  C_3
REMARK    3  A    between atoms: C_2  and  N_20
REMARK    4  A    between atoms: C_2  and  C_31
REMARK    5  A    between atoms: C_3  and  S_4
REMARK    6  A    between atoms: S_4  and  C_7
REMARK    7  A    between atoms: C_10  and  O_11
REMARK    8  A    between atoms: O_11  and  C_12
REMARK    9  A    between atoms: N_20  and  C_21
REMARK   10  A    between atoms: C_21  and  C_22
REMARK   11  A    between atoms: N_33  and  O_34
REMARK                            x       y       z     vdW  Elec       q    Type
REMARK                         _______ _______ _______ _____ _____    ______ ____
ROOT
ATOM      1  C   UNL     1       6.641   4.475  18.559  0.00  0.00    +0.000 C 
ATOM      2  C   UNL     1       5.105   4.388  18.492  0.00  0.00    +0.000 C 
ENDROOT
BRANCH   2   3
ATOM      3  C   UNL     1       4.640   2.973  18.968  0.00  0.00    +0.000 C 
ATOM      4  O   UNL     1       4.924   2.522  20.083  0.00  0.00    +0.000 OA
ATOM      5  N   UNL     1       3.975   2.184  18.052  0.00  0.00    +0.000 N 
ATOM      6  H   UNL     1       3.453   2.557  17.271  0.00  0.00    +0.000 HD
BRANCH   5   7
ATOM      7  O   UNL     1       3.477   0.960  18.567  0.00  0.00    +0.000 OA
ATOM      8  H   UNL     1       2.633   1.235  18.989  0.00  0.00    +0.000 HD
ENDBRANCH   5   7
ENDBRANCH   2   3
BRANCH   2   9
ATOM      9  N   UNL     1       4.631   4.630  17.096  0.00  0.00    +0.000 NA
ATOM     10  H   UNL     1       3.628   4.823  17.092  0.00  0.00    +0.000 HD
BRANCH   9  11
ATOM     11  C   UNL     1       5.279   5.739  16.403  0.00  0.00    +0.000 C 
BRANCH  11  12
ATOM     12  C   UNL     1       5.769   5.283  15.051  0.00  0.00    +0.000 A 
ATOM     13  C   UNL     1       7.143   5.341  14.716  0.00  0.00    +0.000 A 
ATOM     14  C   UNL     1       7.626   4.705  13.569  0.00  0.00    +0.000 A 
ATOM     15  C   UNL     1       6.717   3.997  12.815  0.00  0.00    +0.000 A 
ATOM     16  C   UNL     1       5.367   4.010  13.094  0.00  0.00    +0.000 A 
ATOM     17  C   UNL     1       4.855   4.674  14.177  0.00  0.00    +0.000 A 
ATOM     18  O   UNL     1       4.665   3.178  12.277  0.00  0.00    +0.000 OA
ATOM     19  C   UNL     1       5.763   2.397  11.771  0.00  0.00    +0.000 C 
ATOM     20  O   UNL     1       7.010   3.125  11.809  0.00  0.00    +0.000 OA
ENDBRANCH  11  12
ENDBRANCH   9  11
ENDBRANCH   2   9
BRANCH   2  21
ATOM     21  C   UNL     1       4.456   5.524  19.288  0.00  0.00    +0.000 C 
BRANCH  21  22
ATOM     22  S   UNL     1       2.704   5.354  19.541  0.00  0.00    +0.000 S 
ATOM     23  O   UNL     1       2.143   4.595  18.445  0.00  0.00    +0.000 OA
ATOM     24  O   UNL     1       2.460   4.990  20.920  0.00  0.00    +0.000 OA
BRANCH  22  25
ATOM     25  C   UNL     1       2.181   7.038  19.335  0.00  0.00    +0.000 A 
ATOM     26  C   UNL     1       1.580   7.709  20.404  0.00  0.00    +0.000 A 
ATOM     27  C   UNL     1       1.127   9.014  20.216  0.00  0.00    +0.000 A 
ATOM     28  C   UNL     1       1.277   9.637  18.974  0.00  0.00    +0.000 A 
ATOM     29  C   UNL     1       1.845   8.940  17.901  0.00  0.00    +0.000 A 
ATOM     30  C   UNL     1       2.327   7.646  18.087  0.00  0.00    +0.000 A 
BRANCH  28  31
ATOM     31  O   UNL     1       0.778  10.916  18.889  0.00  0.00    +0.000 OA
BRANCH  31  32
ATOM     32  C   UNL     1      -0.580  11.118  18.793  0.00  0.00    +0.000 A 
ATOM     33  C   UNL     1      -1.125  12.068  19.664  0.00  0.00    +0.000 A 
ATOM     34  C   UNL     1      -2.484  12.342  19.650  0.00  0.00    +0.000 A 
ATOM     35  C   UNL     1      -3.315  11.674  18.750  0.00  0.00    +0.000 A 
ATOM     36  C   UNL     1      -2.780  10.747  17.857  0.00  0.00    +0.000 A 
ATOM     37  C   UNL     1      -1.408  10.489  17.858  0.00  0.00    +0.000 A 
ENDBRANCH  31  32
ENDBRANCH  28  31
ENDBRANCH  22  25
ENDBRANCH  21  22
ENDBRANCH   2  21
TORSDOF 10
ENDMDL
MODEL 2
REMARK VINA RESULT:      -7.8      3.886     11.303
REMARK  Name = 
REMARK  11 active torsions:
REMARK  status: ('A' for Active; 'I' for Inactive)
REMARK    1  A    between atoms: C_1  and  C_2
REMARK    2  A    between atoms: C_2  and  C_3
REMARK    3  A    between atoms: C_2  and  N_20
REMARK    4  A    between atoms: C_2  and  C_31
REMARK    5  A    between atoms: C_3  and  S_4
REMARK    6  A    between atoms: S_4  and  C_7
REMARK    7  A    between atoms: C_10  and  O_11
REMARK    8  A    between atoms: O_11  and  C_12
REMARK    9  A    between atoms: N_20  and  C_21
REMARK   10  A    between atoms: C_21  and  C_22
REMARK   11  A    between atoms: N_33  and  O_34
REMARK                            x       y       z     vdW  Elec       q    Type
REMARK                         _______ _______ _______ _____ _____    ______ ____
ROOT
ATOM      1  C   UNL     1       1.631  12.251  19.885  0.00  0.00    +0.000 C 
ATOM      2  C   UNL     1       0.318  11.464  19.717  0.00  0.00    +0.000 C 
ENDROOT
BRANCH   2   3
ATOM      3  C   UNL     1      -0.534  12.106  18.574  0.00  0.00    +0.000 C 
ATOM      4  O   UNL     1      -0.665  13.329  18.451  0.00  0.00    +0.000 OA
ATOM      5  N   UNL     1      -1.233  11.250  17.748  0.00  0.00    +0.000 N 
ATOM      6  H   UNL     1      -0.960  10.291  17.581  0.00  0.00    +0.000 HD
BRANCH   5   7
ATOM      7  O   UNL     1      -1.897  11.875  16.662  0.00  0.00    +0.000 OA
ATOM      8  H   UNL     1      -2.686  12.271  17.095  0.00  0.00    +0.000 HD
ENDBRANCH   5   7
ENDBRANCH   2   3
BRANCH   2   9
ATOM      9  N   UNL     1      -0.461  11.474  20.991  0.00  0.00    +0.000 NA
ATOM     10  H   UNL     1      -0.322  10.598  21.497  0.00  0.00    +0.000 HD
BRANCH   9  11
ATOM     11  C   UNL     1      -0.128  12.555  21.913  0.00  0.00    +0.000 C 
BRANCH  11  12
ATOM     12  C   UNL     1      -1.338  12.914  22.741  0.00  0.00    +0.000 A 
ATOM     13  C   UNL     1      -1.321  14.032  23.609  0.00  0.00    +0.000 A 
ATOM     14  C   UNL     1      -2.503  14.503  24.188  0.00  0.00    +0.000 A 
ATOM     15  C   UNL     1      -3.670  13.857  23.846  0.00  0.00    +0.000 A 
ATOM     16  C   UNL     1      -3.676  12.719  23.069  0.00  0.00    +0.000 A 
ATOM     17  C   UNL     1      -2.527  12.197  22.536  0.00  0.00    +0.000 A 
ATOM     18  O   UNL     1      -4.938  12.295  22.786  0.00  0.00    +0.000 OA
ATOM     19  C   UNL     1      -5.650  13.498  23.131  0.00  0.00    +0.000 C 
ATOM     20  O   UNL     1      -4.936  14.291  24.105  0.00  0.00    +0.000 OA
ENDBRANCH  11  12
ENDBRANCH   9  11
ENDBRANCH   2   9
BRANCH   2  21
ATOM     21  C   UNL     1       0.597   9.976  19.483  0.00  0.00    +0.000 C 
BRANCH  21  22
ATOM     22  S   UNL     1       0.768   9.006  20.965  0.00  0.00    +0.000 S 
ATOM     23  O   UNL     1       1.686   9.675  21.860  0.00  0.00    +0.000 OA
ATOM     24  O   UNL     1      -0.543   8.580  21.401  0.00  0.00    +0.000 OA
BRANCH  22  25
ATOM     25  C   UNL     1       1.606   7.579  20.323  0.00  0.00    +0.000 A 
ATOM     26  C   UNL     1       2.289   7.670  19.107  0.00  0.00    +0.000 A 
ATOM     27  C   UNL     1       2.901   6.530  18.587  0.00  0.00    +0.000 A 
ATOM     28  C   UNL     1       2.831   5.318  19.278  0.00  0.00    +0.000 A 
ATOM     29  C   UNL     1       2.109   5.232  20.475  0.00  0.00    +0.000 A 
ATOM     30  C   UNL     1       1.519   6.371  21.017  0.00  0.00    +0.000 A 
BRANCH  28  31
ATOM     31  O   UNL     1       3.449   4.251  18.669  0.00  0.00    +0.000 OA
BRANCH  31  32
ATOM     32  C   UNL     1       4.614   4.445  17.962  0.00  0.00    +0.000 A 
ATOM     33  C   UNL     1       5.759   4.707  18.721  0.00  0.00    +0.000 A 
ATOM     34  C   UNL     1       6.982   4.920  18.102  0.00  0.00    +0.000 A 
ATOM     35  C   UNL     1       7.074   4.861  16.712  0.00  0.00    +0.000 A 
ATOM     36  C   UNL     1       5.947   4.572  15.947  0.00  0.00    +0.000 A 
ATOM     37  C   UNL     1       4.721   4.335  16.572  0.00  0.00    +0.000 A 
ENDBRANCH  31  32
ENDBRANCH  28  31
ENDBRANCH  22  25
ENDBRANCH  21  22
ENDBRANCH   2  21
TORSDOF 10
ENDMDL
MODEL 3
REMARK VINA RESULT:      -7.7      4.357     11.384
REMARK  Name = 
REMARK  11 active torsions:
REMARK  status: ('A' for Active; 'I' for Inactive)
REMARK    1  A    between atoms: C_1  and  C_2
REMARK    2  A    between atoms: C_2  and  C_3
REMARK    3  A    between atoms: C_2  and  N_20
REMARK    4  A    between atoms: C_2  and  C_31
REMARK    5  A    between atoms: C_3  and  S_4
REMARK    6  A    between atoms: S_4  and  C_7
REMARK    7  A    between atoms: C_10  and  O_11
REMARK    8  A    between atoms: O_11  and  C_12
REMARK    9  A    between atoms: N_20  and  C_21
REMARK   10  A    between atoms: C_21  and  C_22
REMARK   11  A    between atoms: N_33  and  O_34
REMARK                            x       y       z     vdW  Elec       q    Type
REMARK                         _______ _______ _______ _____ _____    ______ ____
ROOT
ATOM      1  C   UNL     1       1.295  13.809  20.514  0.00  0.00    +0.000 C 
ATOM      2  C   UNL     1       0.428  12.615  20.075  0.00  0.00    +0.000 C 
ENDROOT
BRANCH   2   3
ATOM      3  C   UNL     1      -0.382  13.000  18.793  0.00  0.00    +0.000 C 
ATOM      4  O   UNL     1      -0.548  14.172  18.441  0.00  0.00    +0.000 OA
ATOM      5  N   UNL     1      -1.004  11.977  18.107  0.00  0.00    +0.000 N 
ATOM      6  H   UNL     1      -0.688  11.017  18.133  0.00  0.00    +0.000 HD
BRANCH   5   7
ATOM      7  O   UNL     1      -1.628  12.364  16.893  0.00  0.00    +0.000 OA
ATOM      8  H   UNL     1      -2.216  11.599  16.704  0.00  0.00    +0.000 HD
ENDBRANCH   5   7
ENDBRANCH   2   3
BRANCH   2   9
ATOM      9  N   UNL     1      -0.515  12.228  21.167  0.00  0.00    +0.000 NA
ATOM     10  H   UNL     1      -0.031  11.663  21.867  0.00  0.00    +0.000 HD
BRANCH   9  11
ATOM     11  C   UNL     1      -1.135  13.342  21.876  0.00  0.00    +0.000 C 
BRANCH  11  12
ATOM     12  C   UNL     1      -2.568  13.006  22.208  0.00  0.00    +0.000 A 
ATOM     13  C   UNL     1      -3.016  12.965  23.550  0.00  0.00    +0.000 A 
ATOM     14  C   UNL     1      -4.381  12.891  23.845  0.00  0.00    +0.000 A 
ATOM     15  C   UNL     1      -5.254  12.900  22.781  0.00  0.00    +0.000 A 
ATOM     16  C   UNL     1      -4.816  12.854  21.475  0.00  0.00    +0.000 A 
ATOM     17  C   UNL     1      -3.484  12.864  21.154  0.00  0.00    +0.000 A 
ATOM     18  O   UNL     1      -5.841  12.955  20.585  0.00  0.00    +0.000 OA
ATOM     19  C   UNL     1      -6.853  13.454  21.479  0.00  0.00    +0.000 C 
ATOM     20  O   UNL     1      -6.605  13.069  22.848  0.00  0.00    +0.000 OA
ENDBRANCH  11  12
ENDBRANCH   9  11
ENDBRANCH   2   9
BRANCH   2  21
ATOM     21  C   UNL     1       1.282  11.359  19.881  0.00  0.00    +0.000 C 
BRANCH  21  22
ATOM     22  S   UNL     1       0.631   9.888  20.640  0.00  0.00    +0.000 S 
ATOM     23  O   UNL     1       1.032   9.859  22.030  0.00  0.00    +0.000 OA
ATOM     24  O   UNL     1      -0.751   9.727  20.245  0.00  0.00    +0.000 OA
BRANCH  22  25
ATOM     25  C   UNL     1       1.574   8.643  19.796  0.00  0.00    +0.000 A 
ATOM     26  C   UNL     1       1.973   8.858  18.473  0.00  0.00    +0.000 A 
ATOM     27  C   UNL     1       2.669   7.853  17.803  0.00  0.00    +0.000 A 
ATOM     28  C   UNL     1       2.963   6.651  18.452  0.00  0.00    +0.000 A 
ATOM     29  C   UNL     1       2.523   6.433  19.763  0.00  0.00    +0.000 A 
ATOM     30  C   UNL     1       1.852   7.441  20.450  0.00  0.00    +0.000 A 
BRANCH  28  31
ATOM     31  O   UNL     1       3.634   5.718  17.695  0.00  0.00    +0.000 OA
BRANCH  31  32
ATOM     32  C   UNL     1       3.459   4.376  17.947  0.00  0.00    +0.000 A 
ATOM     33  C   UNL     1       4.387   3.786  18.812  0.00  0.00    +0.000 A 
ATOM     34  C   UNL     1       4.300   2.438  19.126  0.00  0.00    +0.000 A 
ATOM     35  C   UNL     1       3.271   1.666  18.585  0.00  0.00    +0.000 A 
ATOM     36  C   UNL     1       2.324   2.249  17.746  0.00  0.00    +0.000 A 
ATOM     37  C   UNL     1       2.400   3.612  17.448  0.00  0.00    +0.000 A 
ENDBRANCH  31  32
ENDBRANCH  28  31
ENDBRANCH  22  25
ENDBRANCH  21  22
ENDBRANCH   2  21
TORSDOF 10
ENDMDL
MODEL 4
REMARK VINA RESULT:      -7.7      2.478      4.766
REMARK  Name = 
REMARK  11 active torsions:
REMARK  status: ('A' for Active; 'I' for Inactive)
REMARK    1  A    between atoms: C_1  and  C_2
REMARK    2  A    between atoms: C_2  and  C_3
REMARK    3  A    between atoms: C_2  and  N_20
REMARK    4  A    between atoms: C_2  and  C_31
REMARK    5  A    between atoms: C_3  and  S_4
REMARK    6  A    between atoms: S_4  and  C_7
REMARK    7  A    between atoms: C_10  and  O_11
REMARK    8  A    between atoms: O_11  and  C_12
REMARK    9  A    between atoms: N_20  and  C_21
REMARK   10  A    between atoms: C_21  and  C_22
REMARK   11  A    between atoms: N_33  and  O_34
REMARK                            x       y       z     vdW  Elec       q    Type
REMARK                         _______ _______ _______ _____ _____    ______ ____
ROOT
ATOM      1  C   UNL     1       5.356   6.103  15.403  0.00  0.00    +0.000 C 
ATOM      2  C   UNL     1       4.957   5.749  16.848  0.00  0.00    +0.000 C 
ENDROOT
BRANCH   2   3
ATOM      3  C   UNL     1       6.219   5.273  17.638  0.00  0.00    +0.000 C 
ATOM      4  O   UNL     1       6.408   5.566  18.824  0.00  0.00    +0.000 OA
ATOM      5  N   UNL     1       7.186   4.588  16.932  0.00  0.00    +0.000 N 
ATOM      6  H   UNL     1       6.993   4.061  16.092  0.00  0.00    +0.000 HD
BRANCH   5   7
ATOM      7  O   UNL     1       8.254   4.081  17.718  0.00  0.00    +0.000 OA
ATOM      8  H   UNL     1       8.454   3.226  17.277  0.00  0.00    +0.000 HD
ENDBRANCH   5   7
ENDBRANCH   2   3
BRANCH   2   9
ATOM      9  N   UNL     1       3.924   4.670  16.853  0.00  0.00    +0.000 NA
ATOM     10  H   UNL     1       3.422   4.658  15.963  0.00  0.00    +0.000 HD
BRANCH   9  11
ATOM     11  C   UNL     1       4.437   3.321  17.068  0.00  0.00    +0.000 C 
BRANCH  11  12
ATOM     12  C   UNL     1       3.958   2.796  18.399  0.00  0.00    +0.000 A 
ATOM     13  C   UNL     1       4.872   2.517  19.444  0.00  0.00    +0.000 A 
ATOM     14  C   UNL     1       4.416   2.263  20.741  0.00  0.00    +0.000 A 
ATOM     15  C   UNL     1       3.058   2.336  20.954  0.00  0.00    +0.000 A 
ATOM     16  C   UNL     1       2.164   2.525  19.922  0.00  0.00    +0.000 A 
ATOM     17  C   UNL     1       2.576   2.716  18.630  0.00  0.00    +0.000 A 
ATOM     18  O   UNL     1       0.883   2.648  20.367  0.00  0.00    +0.000 OA
ATOM     19  C   UNL     1       1.162   2.907  21.755  0.00  0.00    +0.000 C 
ATOM     20  O   UNL     1       2.432   2.356  22.165  0.00  0.00    +0.000 OA
ENDBRANCH  11  12
ENDBRANCH   9  11
ENDBRANCH   2   9
BRANCH   2  21
ATOM     21  C   UNL     1       4.244   6.925  17.523  0.00  0.00    +0.000 C 
BRANCH  21  22
ATOM     22  S   UNL     1       2.825   6.478  18.499  0.00  0.00    +0.000 S 
ATOM     23  O   UNL     1       1.878   5.779  17.658  0.00  0.00    +0.000 OA
ATOM     24  O   UNL     1       3.275   5.926  19.758  0.00  0.00    +0.000 OA
BRANCH  22  25
ATOM     25  C   UNL     1       2.144   8.083  18.834  0.00  0.00    +0.000 A 
ATOM     26  C   UNL     1       1.521   8.325  20.062  0.00  0.00    +0.000 A 
ATOM     27  C   UNL     1       0.944   9.573  20.295  0.00  0.00    +0.000 A 
ATOM     28  C   UNL     1       0.993  10.563  19.311  0.00  0.00    +0.000 A 
ATOM     29  C   UNL     1       1.585  10.295  18.070  0.00  0.00    +0.000 A 
ATOM     30  C   UNL     1       2.189   9.061  17.839  0.00  0.00    +0.000 A 
BRANCH  28  31
ATOM     31  O   UNL     1       0.376  11.750  19.633  0.00  0.00    +0.000 OA
BRANCH  31  32
ATOM     32  C   UNL     1      -0.988  11.872  19.501  0.00  0.00    +0.000 A 
ATOM     33  C   UNL     1      -1.546  11.328  18.339  0.00  0.00    +0.000 A 
ATOM     34  C   UNL     1      -2.912  11.402  18.109  0.00  0.00    +0.000 A 
ATOM     35  C   UNL     1      -3.740  12.014  19.051  0.00  0.00    +0.000 A 
ATOM     36  C   UNL     1      -3.200  12.532  20.226  0.00  0.00    +0.000 A 
ATOM     37  C   UNL     1      -1.827  12.437  20.466  0.00  0.00    +0.000 A 
ENDBRANCH  31  32
ENDBRANCH  28  31
ENDBRANCH  22  25
ENDBRANCH  21  22
ENDBRANCH   2  21
TORSDOF 10
ENDMDL
MODEL 5
REMARK VINA RESULT:      -7.6      1.658      2.306
REMARK  Name = 
REMARK  11 active torsions:
REMARK  status: ('A' for Active; 'I' for Inactive)
REMARK    1  A    between atoms: C_1  and  C_2
REMARK    2  A    between atoms: C_2  and  C_3
REMARK    3  A    between atoms: C_2  and  N_20
REMARK    4  A    between atoms: C_2  and  C_31
REMARK    5  A    between atoms: C_3  and  S_4
REMARK    6  A    between atoms: S_4  and  C_7
REMARK    7  A    between atoms: C_10  and  O_11
REMARK    8  A    between atoms: O_11  and  C_12
REMARK    9  A    between atoms: N_20  and  C_21
REMARK   10  A    between atoms: C_21  and  C_22
REMARK   11  A    between atoms: N_33  and  O_34
REMARK                            x       y       z     vdW  Elec       q    Type
REMARK                         _______ _______ _______ _____ _____    ______ ____
ROOT
ATOM      1  C   UNL     1       6.776   4.724  18.113  0.00  0.00    +0.000 C 
ATOM      2  C   UNL     1       5.246   4.569  18.022  0.00  0.00    +0.000 C 
ENDROOT
BRANCH   2   3
ATOM      3  C   UNL     1       4.821   3.200  18.647  0.00  0.00    +0.000 C 
ATOM      4  O   UNL     1       5.132   2.872  19.797  0.00  0.00    +0.000 OA
ATOM      5  N   UNL     1       4.163   2.307  17.827  0.00  0.00    +0.000 N 
ATOM      6  H   UNL     1       3.621   2.587  17.020  0.00  0.00    +0.000 HD
BRANCH   5   7
ATOM      7  O   UNL     1       3.701   1.131  18.472  0.00  0.00    +0.000 OA
ATOM      8  H   UNL     1       4.237   0.429  18.041  0.00  0.00    +0.000 HD
ENDBRANCH   5   7
ENDBRANCH   2   3
BRANCH   2   9
ATOM      9  N   UNL     1       4.802   4.631  16.597  0.00  0.00    +0.000 NA
ATOM     10  H   UNL     1       3.791   4.772  16.548  0.00  0.00    +0.000 HD
BRANCH   9  11
ATOM     11  C   UNL     1       5.417   5.687  15.800  0.00  0.00    +0.000 C 
BRANCH  11  12
ATOM     12  C   UNL     1       5.884   5.127  14.479  0.00  0.00    +0.000 A 
ATOM     13  C   UNL     1       7.232   5.257  14.068  0.00  0.00    +0.000 A 
ATOM     14  C   UNL     1       7.715   4.539  12.969  0.00  0.00    +0.000 A 
ATOM     15  C   UNL     1       6.836   3.684  12.343  0.00  0.00    +0.000 A 
ATOM     16  C   UNL     1       5.504   3.621  12.690  0.00  0.00    +0.000 A 
ATOM     17  C   UNL     1       4.986   4.357  13.723  0.00  0.00    +0.000 A 
ATOM     18  O   UNL     1       4.838   2.653  12.002  0.00  0.00    +0.000 OA
ATOM     19  C   UNL     1       5.975   1.910  11.524  0.00  0.00    +0.000 C 
ATOM     20  O   UNL     1       7.157   2.734  11.420  0.00  0.00    +0.000 OA
ENDBRANCH  11  12
ENDBRANCH   9  11
ENDBRANCH   2   9
BRANCH   2  21
ATOM     21  C   UNL     1       4.535   5.762  18.667  0.00  0.00    +0.000 C 
BRANCH  21  22
ATOM     22  S   UNL     1       2.804   5.512  18.995  0.00  0.00    +0.000 S 
ATOM     23  O   UNL     1       2.198   4.867  17.850  0.00  0.00    +0.000 OA
ATOM     24  O   UNL     1       2.650   4.985  20.333  0.00  0.00    +0.000 OA
BRANCH  22  25
ATOM     25  C   UNL     1       2.232   7.192  19.014  0.00  0.00    +0.000 A 
ATOM     26  C   UNL     1       1.669   7.715  20.182  0.00  0.00    +0.000 A 
ATOM     27  C   UNL     1       1.176   9.019  20.172  0.00  0.00    +0.000 A 
ATOM     28  C   UNL     1       1.248   9.787  19.007  0.00  0.00    +0.000 A 
ATOM     29  C   UNL     1       1.778   9.238  17.833  0.00  0.00    +0.000 A 
ATOM     30  C   UNL     1       2.300   7.946  17.841  0.00  0.00    +0.000 A 
BRANCH  28  31
ATOM     31  O   UNL     1       0.715  11.052  19.097  0.00  0.00    +0.000 OA
BRANCH  31  32
ATOM     32  C   UNL     1       1.540  12.130  19.324  0.00  0.00    +0.000 A 
ATOM     33  C   UNL     1       2.320  12.548  18.241  0.00  0.00    +0.000 A 
ATOM     34  C   UNL     1       3.187  13.624  18.369  0.00  0.00    +0.000 A 
ATOM     35  C   UNL     1       3.272  14.303  19.585  0.00  0.00    +0.000 A 
ATOM     36  C   UNL     1       2.477  13.915  20.661  0.00  0.00    +0.000 A 
ATOM     37  C   UNL     1       1.589  12.846  20.524  0.00  0.00    +0.000 A 
ENDBRANCH  31  32
ENDBRANCH  28  31
ENDBRANCH  22  25
ENDBRANCH  21  22
ENDBRANCH   2  21
TORSDOF 10
ENDMDL
MODEL 6
REMARK VINA RESULT:      -7.6      5.282     11.088
REMARK  Name = 
REMARK  11 active torsions:
REMARK  status: ('A' for Active; 'I' for Inactive)
REMARK    1  A    between atoms: C_1  and  C_2
REMARK    2  A    between atoms: C_2  and  C_3
REMARK    3  A    between atoms: C_2  and  N_20
REMARK    4  A    between atoms: C_2  and  C_31
REMARK    5  A    between atoms: C_3  and  S_4
REMARK    6  A    between atoms: S_4  and  C_7
REMARK    7  A    between atoms: C_10  and  O_11
REMARK    8  A    between atoms: O_11  and  C_12
REMARK    9  A    between atoms: N_20  and  C_21
REMARK   10  A    between atoms: C_21  and  C_22
REMARK   11  A    between atoms: N_33  and  O_34
REMARK                            x       y       z     vdW  Elec       q    Type
REMARK                         _______ _______ _______ _____ _____    ______ ____
ROOT
ATOM      1  C   UNL     1      -0.919  13.297  22.741  0.00  0.00    +0.000 C 
ATOM      2  C   UNL     1      -0.476  13.148  21.274  0.00  0.00    +0.000 C 
ENDROOT
BRANCH   2   3
ATOM      3  C   UNL     1       0.848  13.948  21.043  0.00  0.00    +0.000 C 
ATOM      4  O   UNL     1       1.893  13.688  21.648  0.00  0.00    +0.000 OA
ATOM      5  N   UNL     1       0.788  15.041  20.203  0.00  0.00    +0.000 N 
ATOM      6  H   UNL     1       0.103  15.140  19.466  0.00  0.00    +0.000 HD
BRANCH   5   7
ATOM      7  O   UNL     1       2.036  15.662  19.940  0.00  0.00    +0.000 OA
ATOM      8  H   UNL     1       2.146  16.255  20.716  0.00  0.00    +0.000 HD
ENDBRANCH   5   7
ENDBRANCH   2   3
BRANCH   2   9
ATOM      9  N   UNL     1      -1.538  13.658  20.355  0.00  0.00    +0.000 NA
ATOM     10  H   UNL     1      -1.843  12.917  19.722  0.00  0.00    +0.000 HD
BRANCH   9  11
ATOM     11  C   UNL     1      -2.734  14.172  21.014  0.00  0.00    +0.000 C 
BRANCH  11  12
ATOM     12  C   UNL     1      -3.887  13.222  20.801  0.00  0.00    +0.000 A 
ATOM     13  C   UNL     1      -4.942  13.135  21.740  0.00  0.00    +0.000 A 
ATOM     14  C   UNL     1      -6.116  12.440  21.432  0.00  0.00    +0.000 A 
ATOM     15  C   UNL     1      -6.205  11.887  20.174  0.00  0.00    +0.000 A 
ATOM     16  C   UNL     1      -5.146  11.900  19.292  0.00  0.00    +0.000 A 
ATOM     17  C   UNL     1      -3.962  12.520  19.588  0.00  0.00    +0.000 A 
ATOM     18  O   UNL     1      -5.479  11.375  18.081  0.00  0.00    +0.000 OA
ATOM     19  C   UNL     1      -6.911  11.422  18.213  0.00  0.00    +0.000 C 
ATOM     20  O   UNL     1      -7.331  11.381  19.594  0.00  0.00    +0.000 OA
ENDBRANCH  11  12
ENDBRANCH   9  11
ENDBRANCH   2   9
BRANCH   2  21
ATOM     21  C   UNL     1      -0.351  11.671  20.886  0.00  0.00    +0.000 C 
BRANCH  21  22
ATOM     22  S   UNL     1      -0.037  11.375  19.160  0.00  0.00    +0.000 S 
ATOM     23  O   UNL     1      -1.295  11.127  18.490  0.00  0.00    +0.000 OA
ATOM     24  O   UNL     1       0.899  12.366  18.676  0.00  0.00    +0.000 OA
BRANCH  22  25
ATOM     25  C   UNL     1       0.825   9.826  19.249  0.00  0.00    +0.000 A 
ATOM     26  C   UNL     1       0.899   9.147  20.469  0.00  0.00    +0.000 A 
ATOM     27  C   UNL     1       1.622   7.957  20.539  0.00  0.00    +0.000 A 
ATOM     28  C   UNL     1       2.259   7.455  19.402  0.00  0.00    +0.000 A 
ATOM     29  C   UNL     1       2.211   8.165  18.196  0.00  0.00    +0.000 A 
ATOM     30  C   UNL     1       1.468   9.340  18.109  0.00  0.00    +0.000 A 
BRANCH  28  31
ATOM     31  O   UNL     1       2.963   6.287  19.584  0.00  0.00    +0.000 OA
BRANCH  31  32
ATOM     32  C   UNL     1       2.310   5.076  19.527  0.00  0.00    +0.000 A 
ATOM     33  C   UNL     1       2.031   4.468  20.756  0.00  0.00    +0.000 A 
ATOM     34  C   UNL     1       1.380   3.245  20.806  0.00  0.00    +0.000 A 
ATOM     35  C   UNL     1       0.987   2.620  19.622  0.00  0.00    +0.000 A 
ATOM     36  C   UNL     1       1.232   3.230  18.393  0.00  0.00    +0.000 A 
ATOM     37  C   UNL     1       1.869   4.473  18.345  0.00  0.00    +0.000 A 
ENDBRANCH  31  32
ENDBRANCH  28  31
ENDBRANCH  22  25
ENDBRANCH  21  22
ENDBRANCH   2  21
TORSDOF 10
ENDMDL
MODEL 7
REMARK VINA RESULT:      -7.6      4.032     11.526
REMARK  Name = 
REMARK  11 active torsions:
REMARK  status: ('A' for Active; 'I' for Inactive)
REMARK    1  A    between atoms: C_1  and  C_2
REMARK    2  A    between atoms: C_2  and  C_3
REMARK    3  A    between atoms: C_2  and  N_20
REMARK    4  A    between atoms: C_2  and  C_31
REMARK    5  A    between atoms: C_3  and  S_4
REMARK    6  A    between atoms: S_4  and  C_7
REMARK    7  A    between atoms: C_10  and  O_11
REMARK    8  A    between atoms: O_11  and  C_12
REMARK    9  A    between atoms: N_20  and  C_21
REMARK   10  A    between atoms: C_21  and  C_22
REMARK   11  A    between atoms: N_33  and  O_34
REMARK                            x       y       z     vdW  Elec       q    Type
REMARK                         _______ _______ _______ _____ _____    ______ ____
ROOT
ATOM      1  C   UNL     1       0.313  12.489  19.040  0.00  0.00    +0.000 C 
ATOM      2  C   UNL     1      -0.774  11.450  19.374  0.00  0.00    +0.000 C 
ENDROOT
BRANCH   2   3
ATOM      3  C   UNL     1      -2.015  11.675  18.450  0.00  0.00    +0.000 C 
ATOM      4  O   UNL     1      -3.146  11.891  18.900  0.00  0.00    +0.000 OA
ATOM      5  N   UNL     1      -1.828  11.522  17.092  0.00  0.00    +0.000 N 
ATOM      6  H   UNL     1      -0.936  11.648  16.635  0.00  0.00    +0.000 HD
BRANCH   5   7
ATOM      7  O   UNL     1      -2.955  11.847  16.293  0.00  0.00    +0.000 OA
ATOM      8  H   UNL     1      -3.611  11.168  16.566  0.00  0.00    +0.000 HD
ENDBRANCH   5   7
ENDBRANCH   2   3
BRANCH   2   9
ATOM      9  N   UNL     1      -1.185  11.570  20.805  0.00  0.00    +0.000 NA
ATOM     10  H   UNL     1      -0.704  10.869  21.371  0.00  0.00    +0.000 HD
BRANCH   9  11
ATOM     11  C   UNL     1      -0.919  12.866  21.421  0.00  0.00    +0.000 C 
BRANCH  11  12
ATOM     12  C   UNL     1      -2.113  13.304  22.233  0.00  0.00    +0.000 A 
ATOM     13  C   UNL     1      -2.844  14.465  21.885  0.00  0.00    +0.000 A 
ATOM     14  C   UNL     1      -4.079  14.737  22.483  0.00  0.00    +0.000 A 
ATOM     15  C   UNL     1      -4.556  13.811  23.383  0.00  0.00    +0.000 A 
ATOM     16  C   UNL     1      -3.807  12.726  23.784  0.00  0.00    +0.000 A 
ATOM     17  C   UNL     1      -2.568  12.465  23.261  0.00  0.00    +0.000 A 
ATOM     18  O   UNL     1      -4.502  11.899  24.613  0.00  0.00    +0.000 OA
ATOM     19  C   UNL     1      -5.828  12.388  24.342  0.00  0.00    +0.000 C 
ATOM     20  O   UNL     1      -5.819  13.762  23.895  0.00  0.00    +0.000 OA
ENDBRANCH  11  12
ENDBRANCH   9  11
ENDBRANCH   2   9
BRANCH   2  21
ATOM     21  C   UNL     1      -0.218  10.026  19.284  0.00  0.00    +0.000 C 
BRANCH  21  22
ATOM     22  S   UNL     1       0.477   9.397  20.795  0.00  0.00    +0.000 S 
ATOM     23  O   UNL     1       1.420  10.363  21.316  0.00  0.00    +0.000 OA
ATOM     24  O   UNL     1      -0.586   8.856  21.613  0.00  0.00    +0.000 OA
BRANCH  22  25
ATOM     25  C   UNL     1       1.421   8.028  20.174  0.00  0.00    +0.000 A 
ATOM     26  C   UNL     1       2.112   8.159  18.965  0.00  0.00    +0.000 A 
ATOM     27  C   UNL     1       2.807   7.061  18.460  0.00  0.00    +0.000 A 
ATOM     28  C   UNL     1       2.811   5.851  19.158  0.00  0.00    +0.000 A 
ATOM     29  C   UNL     1       2.083   5.722  20.347  0.00  0.00    +0.000 A 
ATOM     30  C   UNL     1       1.408   6.820  20.874  0.00  0.00    +0.000 A 
BRANCH  28  31
ATOM     31  O   UNL     1       3.510   4.826  18.563  0.00  0.00    +0.000 OA
BRANCH  31  32
ATOM     32  C   UNL     1       4.826   5.010  18.205  0.00  0.00    +0.000 A 
ATOM     33  C   UNL     1       5.716   5.286  19.248  0.00  0.00    +0.000 A 
ATOM     34  C   UNL     1       7.063   5.491  18.990  0.00  0.00    +0.000 A 
ATOM     35  C   UNL     1       7.538   5.408  17.681  0.00  0.00    +0.000 A 
ATOM     36  C   UNL     1       6.667   5.103  16.638  0.00  0.00    +0.000 A 
ATOM     37  C   UNL     1       5.315   4.876  16.901  0.00  0.00    +0.000 A 
ENDBRANCH  31  32
ENDBRANCH  28  31
ENDBRANCH  22  25
ENDBRANCH  21  22
ENDBRANCH   2  21
TORSDOF 10
ENDMDL
MODEL 8
REMARK VINA RESULT:      -7.5      3.758     11.218
REMARK  Name = 
REMARK  11 active torsions:
REMARK  status: ('A' for Active; 'I' for Inactive)
REMARK    1  A    between atoms: C_1  and  C_2
REMARK    2  A    between atoms: C_2  and  C_3
REMARK    3  A    between atoms: C_2  and  N_20
REMARK    4  A    between atoms: C_2  and  C_31
REMARK    5  A    between atoms: C_3  and  S_4
REMARK    6  A    between atoms: S_4  and  C_7
REMARK    7  A    between atoms: C_10  and  O_11
REMARK    8  A    between atoms: O_11  and  C_12
REMARK    9  A    between atoms: N_20  and  C_21
REMARK   10  A    between atoms: C_21  and  C_22
REMARK   11  A    between atoms: N_33  and  O_34
REMARK                            x       y       z     vdW  Elec       q    Type
REMARK                         _______ _______ _______ _____ _____    ______ ____
ROOT
ATOM      1  C   UNL     1       0.936  12.239  19.134  0.00  0.00    +0.000 C 
ATOM      2  C   UNL     1       0.079  11.004  19.471  0.00  0.00    +0.000 C 
ENDROOT
BRANCH   2   3
ATOM      3  C   UNL     1      -1.215  11.011  18.592  0.00  0.00    +0.000 C 
ATOM      4  O   UNL     1      -1.963  10.031  18.506  0.00  0.00    +0.000 OA
ATOM      5  N   UNL     1      -1.450  12.130  17.820  0.00  0.00    +0.000 N 
ATOM      6  H   UNL     1      -1.091  13.047  18.046  0.00  0.00    +0.000 HD
BRANCH   5   7
ATOM      7  O   UNL     1      -2.691  12.132  17.132  0.00  0.00    +0.000 OA
ATOM      8  H   UNL     1      -2.451  11.743  16.261  0.00  0.00    +0.000 HD
ENDBRANCH   5   7
ENDBRANCH   2   3
BRANCH   2   9
ATOM      9  N   UNL     1      -0.295  11.009  20.917  0.00  0.00    +0.000 NA
ATOM     10  H   UNL     1       0.445  10.581  21.475  0.00  0.00    +0.000 HD
BRANCH   9  11
ATOM     11  C   UNL     1      -0.547  12.328  21.488  0.00  0.00    +0.000 C 
BRANCH  11  12
ATOM     12  C   UNL     1      -1.982  12.425  21.944  0.00  0.00    +0.000 A 
ATOM     13  C   UNL     1      -2.370  11.978  23.230  0.00  0.00    +0.000 A 
ATOM     14  C   UNL     1      -3.636  12.283  23.740  0.00  0.00    +0.000 A 
ATOM     15  C   UNL     1      -4.457  13.061  22.955  0.00  0.00    +0.000 A 
ATOM     16  C   UNL     1      -4.112  13.425  21.672  0.00  0.00    +0.000 A 
ATOM     17  C   UNL     1      -2.904  13.090  21.121  0.00  0.00    +0.000 A 
ATOM     18  O   UNL     1      -5.029  14.260  21.110  0.00  0.00    +0.000 OA
ATOM     19  C   UNL     1      -5.721  14.655  22.308  0.00  0.00    +0.000 C 
ATOM     20  O   UNL     1      -5.616  13.660  23.349  0.00  0.00    +0.000 OA
ENDBRANCH  11  12
ENDBRANCH   9  11
ENDBRANCH   2   9
BRANCH   2  21
ATOM     21  C   UNL     1       0.891   9.715  19.319  0.00  0.00    +0.000 C 
BRANCH  21  22
ATOM     22  S   UNL     1       0.942   8.688  20.770  0.00  0.00    +0.000 S 
ATOM     23  O   UNL     1       1.787   9.317  21.761  0.00  0.00    +0.000 OA
ATOM     24  O   UNL     1      -0.401   8.251  21.084  0.00  0.00    +0.000 OA
BRANCH  22  25
ATOM     25  C   UNL     1       1.827   7.283  20.143  0.00  0.00    +0.000 A 
ATOM     26  C   UNL     1       1.848   6.096  20.881  0.00  0.00    +0.000 A 
ATOM     27  C   UNL     1       2.588   5.015  20.404  0.00  0.00    +0.000 A 
ATOM     28  C   UNL     1       3.295   5.123  19.204  0.00  0.00    +0.000 A 
ATOM     29  C   UNL     1       3.297   6.330  18.495  0.00  0.00    +0.000 A 
ATOM     30  C   UNL     1       2.538   7.406  18.948  0.00  0.00    +0.000 A 
BRANCH  28  31
ATOM     31  O   UNL     1       4.009   4.007  18.834  0.00  0.00    +0.000 OA
BRANCH  31  32
ATOM     32  C   UNL     1       4.991   4.108  17.875  0.00  0.00    +0.000 A 
ATOM     33  C   UNL     1       6.252   4.514  18.324  0.00  0.00    +0.000 A 
ATOM     34  C   UNL     1       7.308   4.649  17.435  0.00  0.00    +0.000 A 
ATOM     35  C   UNL     1       7.116   4.366  16.083  0.00  0.00    +0.000 A 
ATOM     36  C   UNL     1       5.873   3.931  15.628  0.00  0.00    +0.000 A 
ATOM     37  C   UNL     1       4.816   3.774  16.528  0.00  0.00    +0.000 A 
ENDBRANCH  31  32
ENDBRANCH  28  31
ENDBRANCH  22  25
ENDBRANCH  21  22
ENDBRANCH   2  21
TORSDOF 10
ENDMDL
MODEL 9
REMARK VINA RESULT:      -7.5      0.966      1.346
REMARK  Name = 
REMARK  11 active torsions:
REMARK  status: ('A' for Active; 'I' for Inactive)
REMARK    1  A    between atoms: C_1  and  C_2
REMARK    2  A    between atoms: C_2  and  C_3
REMARK    3  A    between atoms: C_2  and  N_20
REMARK    4  A    between atoms: C_2  and  C_31
REMARK    5  A    between atoms: C_3  and  S_4
REMARK    6  A    between atoms: S_4  and  C_7
REMARK    7  A    between atoms: C_10  and  O_11
REMARK    8  A    between atoms: O_11  and  C_12
REMARK    9  A    between atoms: N_20  and  C_21
REMARK   10  A    between atoms: C_21  and  C_22
REMARK   11  A    between atoms: N_33  and  O_34
REMARK                            x       y       z     vdW  Elec       q    Type
REMARK                         _______ _______ _______ _____ _____    ______ ____
ROOT
ATOM      1  C   UNL     1       6.550   5.393  19.020  0.00  0.00    +0.000 C 
ATOM      2  C   UNL     1       5.530   4.961  17.950  0.00  0.00    +0.000 C 
ENDROOT
BRANCH   2   3
ATOM      3  C   UNL     1       5.004   3.525  18.277  0.00  0.00    +0.000 C 
ATOM      4  O   UNL     1       4.291   2.887  17.496  0.00  0.00    +0.000 OA
ATOM      5  N   UNL     1       5.280   3.021  19.531  0.00  0.00    +0.000 N 
ATOM      6  H   UNL     1       6.071   3.316  20.088  0.00  0.00    +0.000 HD
BRANCH   5   7
ATOM      7  O   UNL     1       4.881   1.675  19.736  0.00  0.00    +0.000 OA
ATOM      8  H   UNL     1       5.072   1.262  18.864  0.00  0.00    +0.000 HD
ENDBRANCH   5   7
ENDBRANCH   2   3
BRANCH   2   9
ATOM      9  N   UNL     1       6.161   4.969  16.597  0.00  0.00    +0.000 NA
ATOM     10  H   UNL     1       6.542   4.047  16.379  0.00  0.00    +0.000 HD
BRANCH   9  11
ATOM     11  C   UNL     1       5.272   5.330  15.498  0.00  0.00    +0.000 C 
BRANCH  11  12
ATOM     12  C   UNL     1       5.839   4.830  14.192  0.00  0.00    +0.000 A 
ATOM     13  C   UNL     1       7.180   5.099  13.830  0.00  0.00    +0.000 A 
ATOM     14  C   UNL     1       7.772   4.442  12.747  0.00  0.00    +0.000 A 
ATOM     15  C   UNL     1       7.007   3.507  12.086  0.00  0.00    +0.000 A 
ATOM     16  C   UNL     1       5.676   3.307  12.386  0.00  0.00    +0.000 A 
ATOM     17  C   UNL     1       5.051   3.979  13.402  0.00  0.00    +0.000 A 
ATOM     18  O   UNL     1       5.137   2.282  11.671  0.00  0.00    +0.000 OA
ATOM     19  C   UNL     1       6.358   1.661  11.230  0.00  0.00    +0.000 C 
ATOM     20  O   UNL     1       7.454   2.601  11.171  0.00  0.00    +0.000 OA
ENDBRANCH  11  12
ENDBRANCH   9  11
ENDBRANCH   2   9
BRANCH   2  21
ATOM     21  C   UNL     1       4.402   5.990  17.821  0.00  0.00    +0.000 C 
BRANCH  21  22
ATOM     22  S   UNL     1       2.976   5.666  18.834  0.00  0.00    +0.000 S 
ATOM     23  O   UNL     1       2.057   4.827  18.095  0.00  0.00    +0.000 OA
ATOM     24  O   UNL     1       3.414   5.323  20.168  0.00  0.00    +0.000 OA
BRANCH  22  25
ATOM     25  C   UNL     1       2.258   7.288  18.909  0.00  0.00    +0.000 A 
ATOM     26  C   UNL     1       2.295   8.112  17.780  0.00  0.00    +0.000 A 
ATOM     27  C   UNL     1       1.774   9.403  17.866  0.00  0.00    +0.000 A 
ATOM     28  C   UNL     1       1.222   9.858  19.066  0.00  0.00    +0.000 A 
ATOM     29  C   UNL     1       1.227   9.037  20.200  0.00  0.00    +0.000 A 
ATOM     30  C   UNL     1       1.719   7.736  20.116  0.00  0.00    +0.000 A 
BRANCH  28  31
ATOM     31  O   UNL     1       0.756  11.152  19.050  0.00  0.00    +0.000 OA
BRANCH  31  32
ATOM     32  C   UNL     1      -0.599  11.393  19.031  0.00  0.00    +0.000 A 
ATOM     33  C   UNL     1      -1.094  12.208  20.055  0.00  0.00    +0.000 A 
ATOM     34  C   UNL     1      -2.447  12.509  20.127  0.00  0.00    +0.000 A 
ATOM     35  C   UNL     1      -3.320  12.003  19.163  0.00  0.00    +0.000 A 
ATOM     36  C   UNL     1      -2.834  11.216  18.122  0.00  0.00    +0.000 A 
ATOM     37  C   UNL     1      -1.469  10.933  18.038  0.00  0.00    +0.000 A 
ENDBRANCH  31  32
ENDBRANCH  28  31
ENDBRANCH  22  25
ENDBRANCH  21  22
ENDBRANCH   2  21
TORSDOF 10
ENDMDL
