MODEL 1
REMARK VINA RESULT:      -8.0      0.000      0.000
REMARK  Name = 
REMARK  8 active torsions:
REMARK  status: ('A' for Active; 'I' for Inactive)
REMARK    1  A    between atoms: C_1  and  O_2
REMARK    2  A    between atoms: O_2  and  C_3
REMARK    3  A    between atoms: C_7  and  N_8
REMARK    4  A    between atoms: N_11  and  C_12
REMARK    5  A    between atoms: C_12  and  C_13
REMARK    6  A    between atoms: N_15  and  C_16
REMARK    7  A    between atoms: C_19  and  S_20
REMARK    8  A    between atoms: S_20  and  C_21
REMARK                            x       y       z     vdW  Elec       q    Type
REMARK                         _______ _______ _______ _____ _____    ______ ____
ROOT
ATOM      1  C   UNL     1       2.593   3.772  21.122  0.00  0.00    +0.000 C 
ENDROOT
BRANCH   1   5
ATOM      2  N   UNL     1       4.304   3.562  17.828  0.00  0.00    +0.000 N 
ATOM      3  C   UNL     1       2.981   4.181  17.996  0.00  0.00    +0.000 C 
ATOM      4  C   UNL     1       2.066   3.210  18.805  0.00  0.00    +0.000 C 
ATOM      5  N   UNL     1       2.612   2.703  20.101  0.00  0.00    +0.000 NA
ATOM      6  C   UNL     1       3.989   2.195  19.841  0.00  0.00    +0.000 C 
ATOM      7  C   UNL     1       4.933   3.170  19.103  0.00  0.00    +0.000 C 
BRANCH   2  12
ATOM      8  C   UNL     1       6.916   5.629  16.220  0.00  0.00    +0.000 A 
ATOM      9  C   UNL     1       7.009   5.032  14.964  0.00  0.00    +0.000 A 
ATOM     10  C   UNL     1       6.210   3.934  14.644  0.00  0.00    +0.000 A 
ATOM     11  C   UNL     1       5.305   3.427  15.584  0.00  0.00    +0.000 A 
ATOM     12  C   UNL     1       5.183   4.009  16.850  0.00  0.00    +0.000 A 
ATOM     13  C   UNL     1       6.015   5.107  17.148  0.00  0.00    +0.000 A 
BRANCH   8  15
ATOM     14  C   UNL     1       7.543   7.449  17.618  0.00  0.00    +0.000 C 
ATOM     15  O   UNL     1       7.732   6.710  16.415  0.00  0.00    +0.000 OA
ENDBRANCH   8  15
ENDBRANCH   2  12
ENDBRANCH   1   5
BRANCH   1  16
ATOM     16  C   UNL     1       1.780   4.987  20.674  0.00  0.00    +0.000 C 
ATOM     17  O   UNL     1       0.578   4.881  20.393  0.00  0.00    +0.000 OA
ATOM     18  N   UNL     1       2.513   6.158  20.577  0.00  0.00    +0.000 N 
ATOM     19  H   UNL     1       3.503   6.014  20.381  0.00  0.00    +0.000 HD
BRANCH  18  20
ATOM     20  C   UNL     1       1.918   7.359  20.147  0.00  0.00    +0.000 A 
ATOM     21  C   UNL     1       1.091   8.084  21.009  0.00  0.00    +0.000 A 
ATOM     22  C   UNL     1       0.584   9.326  20.612  0.00  0.00    +0.000 A 
ATOM     23  C   UNL     1       0.871   9.846  19.346  0.00  0.00    +0.000 A 
ATOM     24  C   UNL     1       1.638   9.079  18.460  0.00  0.00    +0.000 A 
ATOM     25  C   UNL     1       2.184   7.854  18.873  0.00  0.00    +0.000 A 
BRANCH  23  26
ATOM     26  S   UNL     1       0.178  11.432  18.903  0.00  0.00    +0.000 S 
BRANCH  26  27
ATOM     27  C   UNL     1      -1.541  10.989  18.541  0.00  0.00    +0.000 C 
ATOM     28  F   UNL     1      -2.317  12.102  18.476  0.00  0.00    +0.000 F 
ATOM     29  F   UNL     1      -1.609  10.407  17.315  0.00  0.00    +0.000 F 
ENDBRANCH  26  27
ENDBRANCH  23  26
ENDBRANCH  18  20
ENDBRANCH   1  16
TORSDOF 7
ENDMDL
MODEL 2
REMARK VINA RESULT:      -7.8      5.701      8.236
REMARK  Name = 
REMARK  8 active torsions:
REMARK  status: ('A' for Active; 'I' for Inactive)
REMARK    1  A    between atoms: C_1  and  O_2
REMARK    2  A    between atoms: O_2  and  C_3
REMARK    3  A    between atoms: C_7  and  N_8
REMARK    4  A    between atoms: N_11  and  C_12
REMARK    5  A    between atoms: C_12  and  C_13
REMARK    6  A    between atoms: N_15  and  C_16
REMARK    7  A    between atoms: C_19  and  S_20
REMARK    8  A    between atoms: S_20  and  C_21
REMARK                            x       y       z     vdW  Elec       q    Type
REMARK                         _______ _______ _______ _____ _____    ______ ____
ROOT
ATOM      1  C   UNL     1       7.891   7.030  18.050  0.00  0.00    +0.000 C 
ENDROOT
BRANCH   1   5
ATOM      2  N   UNL     1       5.055   4.676  17.559  0.00  0.00    +0.000 N 
ATOM      3  C   UNL     1       6.449   4.225  17.675  0.00  0.00    +0.000 C 
ATOM      4  C   UNL     1       7.336   5.067  16.707  0.00  0.00    +0.000 C 
ATOM      5  N   UNL     1       7.223   6.554  16.820  0.00  0.00    +0.000 NA
ATOM      6  C   UNL     1       5.772   6.895  16.798  0.00  0.00    +0.000 C 
ATOM      7  C   UNL     1       4.886   6.122  17.799  0.00  0.00    +0.000 C 
BRANCH   2  12
ATOM      8  C   UNL     1       2.933   2.746  19.894  0.00  0.00    +0.000 A 
ATOM      9  C   UNL     1       1.944   2.265  19.038  0.00  0.00    +0.000 A 
ATOM     10  C   UNL     1       1.969   2.584  17.680  0.00  0.00    +0.000 A 
ATOM     11  C   UNL     1       2.995   3.389  17.168  0.00  0.00    +0.000 A 
ATOM     12  C   UNL     1       4.006   3.880  18.000  0.00  0.00    +0.000 A 
ATOM     13  C   UNL     1       3.943   3.552  19.370  0.00  0.00    +0.000 A 
BRANCH   8  15
ATOM     14  C   UNL     1       1.622   2.723  21.880  0.00  0.00    +0.000 C 
ATOM     15  O   UNL     1       2.818   2.353  21.199  0.00  0.00    +0.000 OA
ENDBRANCH   8  15
ENDBRANCH   2  12
ENDBRANCH   1   5
BRANCH   1  16
ATOM     16  C   UNL     1       8.083   8.547  18.054  0.00  0.00    +0.000 C 
ATOM     17  O   UNL     1       7.512   9.264  17.221  0.00  0.00    +0.000 OA
ATOM     18  N   UNL     1       8.963   9.007  19.020  0.00  0.00    +0.000 N 
ATOM     19  H   UNL     1       9.673   8.328  19.292  0.00  0.00    +0.000 HD
BRANCH  18  20
ATOM     20  C   UNL     1       9.273  10.376  19.134  0.00  0.00    +0.000 A 
ATOM     21  C   UNL     1       9.527  11.137  17.990  0.00  0.00    +0.000 A 
ATOM     22  C   UNL     1       9.735  12.517  18.101  0.00  0.00    +0.000 A 
ATOM     23  C   UNL     1       9.722  13.146  19.350  0.00  0.00    +0.000 A 
ATOM     24  C   UNL     1       9.543  12.363  20.498  0.00  0.00    +0.000 A 
ATOM     25  C   UNL     1       9.289  10.987  20.384  0.00  0.00    +0.000 A 
BRANCH  23  26
ATOM     26  S   UNL     1      10.008  14.907  19.416  0.00  0.00    +0.000 S 
BRANCH  26  27
ATOM     27  C   UNL     1      11.810  14.989  19.252  0.00  0.00    +0.000 C 
ATOM     28  F   UNL     1      12.157  15.703  18.149  0.00  0.00    +0.000 F 
ATOM     29  F   UNL     1      12.332  15.654  20.315  0.00  0.00    +0.000 F 
ENDBRANCH  26  27
ENDBRANCH  23  26
ENDBRANCH  18  20
ENDBRANCH   1  16
TORSDOF 7
ENDMDL
MODEL 3
REMARK VINA RESULT:      -7.7      2.693      3.911
REMARK  Name = 
REMARK  8 active torsions:
REMARK  status: ('A' for Active; 'I' for Inactive)
REMARK    1  A    between atoms: C_1  and  O_2
REMARK    2  A    between atoms: O_2  and  C_3
REMARK    3  A    between atoms: C_7  and  N_8
REMARK    4  A    between atoms: N_11  and  C_12
REMARK    5  A    between atoms: C_12  and  C_13
REMARK    6  A    between atoms: N_15  and  C_16
REMARK    7  A    between atoms: C_19  and  S_20
REMARK    8  A    between atoms: S_20  and  C_21
REMARK                            x       y       z     vdW  Elec       q    Type
REMARK                         _______ _______ _______ _____ _____    ______ ____
ROOT
ATOM      1  C   UNL     1       2.890   6.085  18.010  0.00  0.00    +0.000 C 
ENDROOT
BRANCH   1   5
ATOM      2  N   UNL     1       5.627   5.033  15.723  0.00  0.00    +0.000 N 
ATOM      3  C   UNL     1       4.798   4.071  16.463  0.00  0.00    +0.000 C 
ATOM      4  C   UNL     1       4.744   4.495  17.963  0.00  0.00    +0.000 C 
ATOM      5  N   UNL     1       4.339   5.907  18.243  0.00  0.00    +0.000 NA
ATOM      6  C   UNL     1       5.163   6.791  17.370  0.00  0.00    +0.000 C 
ATOM      7  C   UNL     1       5.174   6.430  15.869  0.00  0.00    +0.000 C 
BRANCH   2  12
ATOM      8  C   UNL     1       5.986   3.336  12.457  0.00  0.00    +0.000 A 
ATOM      9  C   UNL     1       7.128   3.953  11.947  0.00  0.00    +0.000 A 
ATOM     10  C   UNL     1       7.782   4.944  12.680  0.00  0.00    +0.000 A 
ATOM     11  C   UNL     1       7.297   5.320  13.939  0.00  0.00    +0.000 A 
ATOM     12  C   UNL     1       6.159   4.714  14.481  0.00  0.00    +0.000 A 
ATOM     13  C   UNL     1       5.512   3.728  13.708  0.00  0.00    +0.000 A 
BRANCH   8  15
ATOM     14  C   UNL     1       6.329   1.369  11.163  0.00  0.00    +0.000 C 
ATOM     15  O   UNL     1       5.441   2.367  11.660  0.00  0.00    +0.000 OA
ENDBRANCH   8  15
ENDBRANCH   2  12
ENDBRANCH   1   5
BRANCH   1  16
ATOM     16  C   UNL     1       2.363   7.390  18.607  0.00  0.00    +0.000 C 
ATOM     17  O   UNL     1       2.282   7.542  19.834  0.00  0.00    +0.000 OA
ATOM     18  N   UNL     1       1.963   8.326  17.668  0.00  0.00    +0.000 N 
ATOM     19  H   UNL     1       1.652   7.922  16.785  0.00  0.00    +0.000 HD
BRANCH  18  20
ATOM     20  C   UNL     1       1.424   9.568  18.056  0.00  0.00    +0.000 A 
ATOM     21  C   UNL     1       0.065   9.681  18.357  0.00  0.00    +0.000 A 
ATOM     22  C   UNL     1      -0.445  10.892  18.839  0.00  0.00    +0.000 A 
ATOM     23  C   UNL     1       0.384  12.007  18.999  0.00  0.00    +0.000 A 
ATOM     24  C   UNL     1       1.729  11.905  18.623  0.00  0.00    +0.000 A 
ATOM     25  C   UNL     1       2.252  10.680  18.182  0.00  0.00    +0.000 A 
BRANCH  23  26
ATOM     26  S   UNL     1      -0.340  13.522  19.606  0.00  0.00    +0.000 S 
BRANCH  26  27
ATOM     27  C   UNL     1      -1.936  12.938  20.232  0.00  0.00    +0.000 C 
ATOM     28  F   UNL     1      -1.798  12.418  21.480  0.00  0.00    +0.000 F 
ATOM     29  F   UNL     1      -2.788  13.990  20.351  0.00  0.00    +0.000 F 
ENDBRANCH  26  27
ENDBRANCH  23  26
ENDBRANCH  18  20
ENDBRANCH   1  16
TORSDOF 7
ENDMDL
MODEL 4
REMARK VINA RESULT:      -7.7      0.770      1.297
REMARK  Name = 
REMARK  8 active torsions:
REMARK  status: ('A' for Active; 'I' for Inactive)
REMARK    1  A    between atoms: C_1  and  O_2
REMARK    2  A    between atoms: O_2  and  C_3
REMARK    3  A    between atoms: C_7  and  N_8
REMARK    4  A    between atoms: N_11  and  C_12
REMARK    5  A    between atoms: C_12  and  C_13
REMARK    6  A    between atoms: N_15  and  C_16
REMARK    7  A    between atoms: C_19  and  S_20
REMARK    8  A    between atoms: S_20  and  C_21
REMARK                            x       y       z     vdW  Elec       q    Type
REMARK                         _______ _______ _______ _____ _____    ______ ____
ROOT
ATOM      1  C   UNL     1       2.424   3.495  20.847  0.00  0.00    +0.000 C 
ENDROOT
BRANCH   1   5
ATOM      2  N   UNL     1       4.214   3.601  17.589  0.00  0.00    +0.000 N 
ATOM      3  C   UNL     1       2.915   4.255  17.802  0.00  0.00    +0.000 C 
ATOM      4  C   UNL     1       1.938   3.237  18.467  0.00  0.00    +0.000 C 
ATOM      5  N   UNL     1       2.426   2.555  19.705  0.00  0.00    +0.000 NA
ATOM      6  C   UNL     1       3.787   2.020  19.416  0.00  0.00    +0.000 C 
ATOM      7  C   UNL     1       4.792   3.032  18.822  0.00  0.00    +0.000 C 
BRANCH   2  12
ATOM      8  C   UNL     1       6.832   5.838  16.239  0.00  0.00    +0.000 A 
ATOM      9  C   UNL     1       7.042   5.289  14.975  0.00  0.00    +0.000 A 
ATOM     10  C   UNL     1       6.321   4.167  14.564  0.00  0.00    +0.000 A 
ATOM     11  C   UNL     1       5.377   3.588  15.421  0.00  0.00    +0.000 A 
ATOM     12  C   UNL     1       5.138   4.120  16.692  0.00  0.00    +0.000 A 
ATOM     13  C   UNL     1       5.894   5.245  17.083  0.00  0.00    +0.000 A 
BRANCH   8  15
ATOM     14  C   UNL     1       7.839   7.210  17.901  0.00  0.00    +0.000 C 
ATOM     15  O   UNL     1       7.579   6.947  16.525  0.00  0.00    +0.000 OA
ENDBRANCH   8  15
ENDBRANCH   2  12
ENDBRANCH   1   5
BRANCH   1  16
ATOM     16  C   UNL     1       1.713   4.807  20.515  0.00  0.00    +0.000 C 
ATOM     17  O   UNL     1       0.494   4.834  20.295  0.00  0.00    +0.000 OA
ATOM     18  N   UNL     1       2.552   5.908  20.447  0.00  0.00    +0.000 N 
ATOM     19  H   UNL     1       3.512   5.683  20.189  0.00  0.00    +0.000 HD
BRANCH  18  20
ATOM     20  C   UNL     1       2.057   7.185  20.121  0.00  0.00    +0.000 A 
ATOM     21  C   UNL     1       2.292   7.728  18.855  0.00  0.00    +0.000 A 
ATOM     22  C   UNL     1       1.714   8.953  18.502  0.00  0.00    +0.000 A 
ATOM     23  C   UNL     1       0.921   9.660  19.411  0.00  0.00    +0.000 A 
ATOM     24  C   UNL     1       0.754   9.145  20.703  0.00  0.00    +0.000 A 
ATOM     25  C   UNL     1       1.296   7.896  21.044  0.00  0.00    +0.000 A 
BRANCH  23  26
ATOM     26  S   UNL     1       0.226  11.222  18.895  0.00  0.00    +0.000 S 
BRANCH  26  27
ATOM     27  C   UNL     1      -1.084  11.460  20.122  0.00  0.00    +0.000 C 
ATOM     28  F   UNL     1      -0.618  12.163  21.188  0.00  0.00    +0.000 F 
ATOM     29  F   UNL     1      -2.081  12.208  19.581  0.00  0.00    +0.000 F 
ENDBRANCH  26  27
ENDBRANCH  23  26
ENDBRANCH  18  20
ENDBRANCH   1  16
TORSDOF 7
ENDMDL
MODEL 5
REMARK VINA RESULT:      -7.6      2.723      4.001
REMARK  Name = 
REMARK  8 active torsions:
REMARK  status: ('A' for Active; 'I' for Inactive)
REMARK    1  A    between atoms: C_1  and  O_2
REMARK    2  A    between atoms: O_2  and  C_3
REMARK    3  A    between atoms: C_7  and  N_8
REMARK    4  A    between atoms: N_11  and  C_12
REMARK    5  A    between atoms: C_12  and  C_13
REMARK    6  A    between atoms: N_15  and  C_16
REMARK    7  A    between atoms: C_19  and  S_20
REMARK    8  A    between atoms: S_20  and  C_21
REMARK                            x       y       z     vdW  Elec       q    Type
REMARK                         _______ _______ _______ _____ _____    ______ ____
ROOT
ATOM      1  C   UNL     1       3.008   6.016  18.163  0.00  0.00    +0.000 C 
ENDROOT
BRANCH   1   5
ATOM      2  N   UNL     1       5.687   5.046  15.774  0.00  0.00    +0.000 N 
ATOM      3  C   UNL     1       4.950   4.063  16.581  0.00  0.00    +0.000 C 
ATOM      4  C   UNL     1       4.944   4.530  18.069  0.00  0.00    +0.000 C 
ATOM      5  N   UNL     1       4.474   5.926  18.329  0.00  0.00    +0.000 NA
ATOM      6  C   UNL     1       5.204   6.826  17.392  0.00  0.00    +0.000 C 
ATOM      7  C   UNL     1       5.163   6.420  15.903  0.00  0.00    +0.000 C 
BRANCH   2  12
ATOM      8  C   UNL     1       5.846   3.445  12.444  0.00  0.00    +0.000 A 
ATOM      9  C   UNL     1       7.046   3.954  11.948  0.00  0.00    +0.000 A 
ATOM     10  C   UNL     1       7.806   4.839  12.712  0.00  0.00    +0.000 A 
ATOM     11  C   UNL     1       7.370   5.219  13.988  0.00  0.00    +0.000 A 
ATOM     12  C   UNL     1       6.176   4.718  14.516  0.00  0.00    +0.000 A 
ATOM     13  C   UNL     1       5.423   3.837  13.713  0.00  0.00    +0.000 A 
BRANCH   8  15
ATOM     14  C   UNL     1       3.974   3.019  11.040  0.00  0.00    +0.000 C 
ATOM     15  O   UNL     1       5.196   2.570  11.617  0.00  0.00    +0.000 OA
ENDBRANCH   8  15
ENDBRANCH   2  12
ENDBRANCH   1   5
BRANCH   1  16
ATOM     16  C   UNL     1       2.442   7.324  18.717  0.00  0.00    +0.000 C 
ATOM     17  O   UNL     1       2.336   7.507  19.937  0.00  0.00    +0.000 OA
ATOM     18  N   UNL     1       2.038   8.226  17.746  0.00  0.00    +0.000 N 
ATOM     19  H   UNL     1       1.752   7.792  16.869  0.00  0.00    +0.000 HD
BRANCH  18  20
ATOM     20  C   UNL     1       1.466   9.465  18.091  0.00  0.00    +0.000 A 
ATOM     21  C   UNL     1       2.278  10.585  18.286  0.00  0.00    +0.000 A 
ATOM     22  C   UNL     1       1.698  11.835  18.530  0.00  0.00    +0.000 A 
ATOM     23  C   UNL     1       0.309  11.978  18.611  0.00  0.00    +0.000 A 
ATOM     24  C   UNL     1      -0.494  10.837  18.491  0.00  0.00    +0.000 A 
ATOM     25  C   UNL     1       0.084   9.591  18.201  0.00  0.00    +0.000 A 
BRANCH  23  26
ATOM     26  S   UNL     1      -0.359  13.601  18.938  0.00  0.00    +0.000 S 
BRANCH  26  27
ATOM     27  C   UNL     1      -0.914  13.427  20.654  0.00  0.00    +0.000 C 
ATOM     28  F   UNL     1      -0.151  12.513  21.311  0.00  0.00    +0.000 F 
ATOM     29  F   UNL     1      -0.741  14.605  21.308  0.00  0.00    +0.000 F 
ENDBRANCH  26  27
ENDBRANCH  23  26
ENDBRANCH  18  20
ENDBRANCH   1  16
TORSDOF 7
ENDMDL
MODEL 6
REMARK VINA RESULT:      -7.5      5.632      8.142
REMARK  Name = 
REMARK  8 active torsions:
REMARK  status: ('A' for Active; 'I' for Inactive)
REMARK    1  A    between atoms: C_1  and  O_2
REMARK    2  A    between atoms: O_2  and  C_3
REMARK    3  A    between atoms: C_7  and  N_8
REMARK    4  A    between atoms: N_11  and  C_12
REMARK    5  A    between atoms: C_12  and  C_13
REMARK    6  A    between atoms: N_15  and  C_16
REMARK    7  A    between atoms: C_19  and  S_20
REMARK    8  A    between atoms: S_20  and  C_21
REMARK                            x       y       z     vdW  Elec       q    Type
REMARK                         _______ _______ _______ _____ _____    ______ ____
ROOT
ATOM      1  C   UNL     1       7.965   7.022  18.030  0.00  0.00    +0.000 C 
ENDROOT
BRANCH   1   5
ATOM      2  N   UNL     1       5.027   4.811  17.475  0.00  0.00    +0.000 N 
ATOM      3  C   UNL     1       6.394   4.291  17.623  0.00  0.00    +0.000 C 
ATOM      4  C   UNL     1       7.344   5.087  16.675  0.00  0.00    +0.000 C 
ATOM      5  N   UNL     1       7.302   6.577  16.785  0.00  0.00    +0.000 NA
ATOM      6  C   UNL     1       5.871   6.991  16.729  0.00  0.00    +0.000 C 
ATOM      7  C   UNL     1       4.925   6.264  17.710  0.00  0.00    +0.000 C 
BRANCH   2  12
ATOM      8  C   UNL     1       1.934   3.962  19.316  0.00  0.00    +0.000 A 
ATOM      9  C   UNL     1       1.669   2.680  18.839  0.00  0.00    +0.000 A 
ATOM     10  C   UNL     1       2.511   2.090  17.896  0.00  0.00    +0.000 A 
ATOM     11  C   UNL     1       3.633   2.784  17.426  0.00  0.00    +0.000 A 
ATOM     12  C   UNL     1       3.930   4.069  17.892  0.00  0.00    +0.000 A 
ATOM     13  C   UNL     1       3.051   4.643  18.833  0.00  0.00    +0.000 A 
BRANCH   8  15
ATOM     14  C   UNL     1       1.348   5.696  20.837  0.00  0.00    +0.000 C 
ATOM     15  O   UNL     1       1.053   4.430  20.253  0.00  0.00    +0.000 OA
ENDBRANCH   8  15
ENDBRANCH   2  12
ENDBRANCH   1   5
BRANCH   1  16
ATOM     16  C   UNL     1       8.072   8.545  18.116  0.00  0.00    +0.000 C 
ATOM     17  O   UNL     1       7.345   9.275  17.428  0.00  0.00    +0.000 OA
ATOM     18  N   UNL     1       9.058   8.999  18.978  0.00  0.00    +0.000 N 
ATOM     19  H   UNL     1       9.836   8.351  19.095  0.00  0.00    +0.000 HD
BRANCH  18  20
ATOM     20  C   UNL     1       9.305  10.374  19.146  0.00  0.00    +0.000 A 
ATOM     21  C   UNL     1       9.609  11.174  18.041  0.00  0.00    +0.000 A 
ATOM     22  C   UNL     1       9.755  12.557  18.199  0.00  0.00    +0.000 A 
ATOM     23  C   UNL     1       9.628  13.153  19.458  0.00  0.00    +0.000 A 
ATOM     24  C   UNL     1       9.399  12.334  20.571  0.00  0.00    +0.000 A 
ATOM     25  C   UNL     1       9.209  10.953  20.408  0.00  0.00    +0.000 A 
BRANCH  23  26
ATOM     26  S   UNL     1       9.840  14.921  19.585  0.00  0.00    +0.000 S 
BRANCH  26  27
ATOM     27  C   UNL     1      11.604  15.048  19.980  0.00  0.00    +0.000 C 
ATOM     28  F   UNL     1      12.333  14.235  19.172  0.00  0.00    +0.000 F 
ATOM     29  F   UNL     1      12.033  16.314  19.732  0.00  0.00    +0.000 F 
ENDBRANCH  26  27
ENDBRANCH  23  26
ENDBRANCH  18  20
ENDBRANCH   1  16
TORSDOF 7
ENDMDL
MODEL 7
REMARK VINA RESULT:      -7.5      2.552      3.865
REMARK  Name = 
REMARK  8 active torsions:
REMARK  status: ('A' for Active; 'I' for Inactive)
REMARK    1  A    between atoms: C_1  and  O_2
REMARK    2  A    between atoms: O_2  and  C_3
REMARK    3  A    between atoms: C_7  and  N_8
REMARK    4  A    between atoms: N_11  and  C_12
REMARK    5  A    between atoms: C_12  and  C_13
REMARK    6  A    between atoms: N_15  and  C_16
REMARK    7  A    between atoms: C_19  and  S_20
REMARK    8  A    between atoms: S_20  and  C_21
REMARK                            x       y       z     vdW  Elec       q    Type
REMARK                         _______ _______ _______ _____ _____    ______ ____
ROOT
ATOM      1  C   UNL     1       3.933   4.984  18.753  0.00  0.00    +0.000 C 
ENDROOT
BRANCH   1   5
ATOM      2  N   UNL     1       6.203   5.006  15.808  0.00  0.00    +0.000 N 
ATOM      3  C   UNL     1       6.240   3.950  16.829  0.00  0.00    +0.000 C 
ATOM      4  C   UNL     1       6.292   4.612  18.241  0.00  0.00    +0.000 C 
ATOM      5  N   UNL     1       5.243   5.635  18.538  0.00  0.00    +0.000 NA
ATOM      6  C   UNL     1       5.216   6.594  17.397  0.00  0.00    +0.000 C 
ATOM      7  C   UNL     1       5.093   5.961  15.993  0.00  0.00    +0.000 C 
BRANCH   2  12
ATOM      8  C   UNL     1       6.055   3.415  12.472  0.00  0.00    +0.000 A 
ATOM      9  C   UNL     1       7.088   4.071  11.805  0.00  0.00    +0.000 A 
ATOM     10  C   UNL     1       7.837   5.053  12.455  0.00  0.00    +0.000 A 
ATOM     11  C   UNL     1       7.556   5.382  13.787  0.00  0.00    +0.000 A 
ATOM     12  C   UNL     1       6.531   4.735  14.486  0.00  0.00    +0.000 A 
ATOM     13  C   UNL     1       5.784   3.759  13.796  0.00  0.00    +0.000 A 
BRANCH   8  15
ATOM     14  C   UNL     1       6.200   1.407  11.206  0.00  0.00    +0.000 C 
ATOM     15  O   UNL     1       5.403   2.459  11.743  0.00  0.00    +0.000 OA
ENDBRANCH   8  15
ENDBRANCH   2  12
ENDBRANCH   1   5
BRANCH   1  16
ATOM     16  C   UNL     1       2.787   5.994  18.808  0.00  0.00    +0.000 C 
ATOM     17  O   UNL     1       1.854   5.944  17.995  0.00  0.00    +0.000 OA
ATOM     18  N   UNL     1       2.923   6.956  19.796  0.00  0.00    +0.000 N 
ATOM     19  H   UNL     1       3.889   7.156  20.051  0.00  0.00    +0.000 HD
BRANCH  18  20
ATOM     20  C   UNL     1       1.967   7.977  19.958  0.00  0.00    +0.000 A 
ATOM     21  C   UNL     1       1.759   8.913  18.942  0.00  0.00    +0.000 A 
ATOM     22  C   UNL     1       0.739   9.864  19.066  0.00  0.00    +0.000 A 
ATOM     23  C   UNL     1      -0.062   9.912  20.211  0.00  0.00    +0.000 A 
ATOM     24  C   UNL     1       0.204   9.019  21.257  0.00  0.00    +0.000 A 
ATOM     25  C   UNL     1       1.196   8.036  21.115  0.00  0.00    +0.000 A 
BRANCH  23  26
ATOM     26  S   UNL     1      -1.335  11.160  20.305  0.00  0.00    +0.000 S 
BRANCH  26  27
ATOM     27  C   UNL     1      -1.352  11.529  22.078  0.00  0.00    +0.000 C 
ATOM     28  F   UNL     1      -0.309  12.336  22.408  0.00  0.00    +0.000 F 
ATOM     29  F   UNL     1      -2.479  12.222  22.386  0.00  0.00    +0.000 F 
ENDBRANCH  26  27
ENDBRANCH  23  26
ENDBRANCH  18  20
ENDBRANCH   1  16
TORSDOF 7
ENDMDL
MODEL 8
REMARK VINA RESULT:      -7.5      2.237      3.466
REMARK  Name = 
REMARK  8 active torsions:
REMARK  status: ('A' for Active; 'I' for Inactive)
REMARK    1  A    between atoms: C_1  and  O_2
REMARK    2  A    between atoms: O_2  and  C_3
REMARK    3  A    between atoms: C_7  and  N_8
REMARK    4  A    between atoms: N_11  and  C_12
REMARK    5  A    between atoms: C_12  and  C_13
REMARK    6  A    between atoms: N_15  and  C_16
REMARK    7  A    between atoms: C_19  and  S_20
REMARK    8  A    between atoms: S_20  and  C_21
REMARK                            x       y       z     vdW  Elec       q    Type
REMARK                         _______ _______ _______ _____ _____    ______ ____
ROOT
ATOM      1  C   UNL     1       4.218   4.942  18.919  0.00  0.00    +0.000 C 
ENDROOT
BRANCH   1   5
ATOM      2  N   UNL     1       6.296   5.130  15.841  0.00  0.00    +0.000 N 
ATOM      3  C   UNL     1       6.544   4.148  16.907  0.00  0.00    +0.000 C 
ATOM      4  C   UNL     1       6.575   4.888  18.280  0.00  0.00    +0.000 C 
ATOM      5  N   UNL     1       5.404   5.763  18.593  0.00  0.00    +0.000 NA
ATOM      6  C   UNL     1       5.173   6.643  17.412  0.00  0.00    +0.000 C 
ATOM      7  C   UNL     1       5.069   5.923  16.050  0.00  0.00    +0.000 C 
BRANCH   2  12
ATOM      8  C   UNL     1       6.038   3.503  12.529  0.00  0.00    +0.000 A 
ATOM      9  C   UNL     1       7.069   4.130  11.831  0.00  0.00    +0.000 A 
ATOM     10  C   UNL     1       7.852   5.103  12.452  0.00  0.00    +0.000 A 
ATOM     11  C   UNL     1       7.609   5.454  13.786  0.00  0.00    +0.000 A 
ATOM     12  C   UNL     1       6.588   4.837  14.515  0.00  0.00    +0.000 A 
ATOM     13  C   UNL     1       5.805   3.868  13.855  0.00  0.00    +0.000 A 
BRANCH   8  15
ATOM     14  C   UNL     1       4.196   2.986  11.117  0.00  0.00    +0.000 C 
ATOM     15  O   UNL     1       5.351   2.551  11.827  0.00  0.00    +0.000 OA
ENDBRANCH   8  15
ENDBRANCH   2  12
ENDBRANCH   1   5
BRANCH   1  16
ATOM     16  C   UNL     1       2.959   5.791  19.103  0.00  0.00    +0.000 C 
ATOM     17  O   UNL     1       1.846   5.261  19.225  0.00  0.00    +0.000 OA
ATOM     18  N   UNL     1       3.185   7.158  19.076  0.00  0.00    +0.000 N 
ATOM     19  H   UNL     1       3.999   7.433  18.528  0.00  0.00    +0.000 HD
BRANCH  18  20
ATOM     20  C   UNL     1       2.125   8.076  19.199  0.00  0.00    +0.000 A 
ATOM     21  C   UNL     1       1.513   8.281  20.438  0.00  0.00    +0.000 A 
ATOM     22  C   UNL     1       0.529   9.266  20.577  0.00  0.00    +0.000 A 
ATOM     23  C   UNL     1       0.126  10.037  19.482  0.00  0.00    +0.000 A 
ATOM     24  C   UNL     1       0.691   9.773  18.228  0.00  0.00    +0.000 A 
ATOM     25  C   UNL     1       1.709   8.816  18.096  0.00  0.00    +0.000 A 
BRANCH  23  26
ATOM     26  S   UNL     1      -1.144  11.267  19.732  0.00  0.00    +0.000 S 
BRANCH  26  27
ATOM     27  C   UNL     1      -1.608  11.661  18.025  0.00  0.00    +0.000 C 
ATOM     28  F   UNL     1      -2.949  11.859  17.929  0.00  0.00    +0.000 F 
ATOM     29  F   UNL     1      -1.025  12.831  17.657  0.00  0.00    +0.000 F 
ENDBRANCH  26  27
ENDBRANCH  23  26
ENDBRANCH  18  20
ENDBRANCH   1  16
TORSDOF 7
ENDMDL
MODEL 9
REMARK VINA RESULT:      -7.4      1.156      2.086
REMARK  Name = 
REMARK  8 active torsions:
REMARK  status: ('A' for Active; 'I' for Inactive)
REMARK    1  A    between atoms: C_1  and  O_2
REMARK    2  A    between atoms: O_2  and  C_3
REMARK    3  A    between atoms: C_7  and  N_8
REMARK    4  A    between atoms: N_11  and  C_12
REMARK    5  A    between atoms: C_12  and  C_13
REMARK    6  A    between atoms: N_15  and  C_16
REMARK    7  A    between atoms: C_19  and  S_20
REMARK    8  A    between atoms: S_20  and  C_21
REMARK                            x       y       z     vdW  Elec       q    Type
REMARK                         _______ _______ _______ _____ _____    ______ ____
ROOT
ATOM      1  C   UNL     1       2.382   3.771  21.039  0.00  0.00    +0.000 C 
ENDROOT
BRANCH   1   5
ATOM      2  N   UNL     1       4.234   3.681  17.815  0.00  0.00    +0.000 N 
ATOM      3  C   UNL     1       2.940   4.361  17.967  0.00  0.00    +0.000 C 
ATOM      4  C   UNL     1       1.937   3.392  18.667  0.00  0.00    +0.000 C 
ATOM      5  N   UNL     1       2.392   2.772  19.949  0.00  0.00    +0.000 NA
ATOM      6  C   UNL     1       3.752   2.205  19.715  0.00  0.00    +0.000 C 
ATOM      7  C   UNL     1       4.781   3.171  19.087  0.00  0.00    +0.000 C 
BRANCH   2  12
ATOM      8  C   UNL     1       6.102   3.997  14.639  0.00  0.00    +0.000 A 
ATOM      9  C   UNL     1       7.049   4.966  14.968  0.00  0.00    +0.000 A 
ATOM     10  C   UNL     1       7.068   5.528  16.245  0.00  0.00    +0.000 A 
ATOM     11  C   UNL     1       6.138   5.116  17.207  0.00  0.00    +0.000 A 
ATOM     12  C   UNL     1       5.181   4.140  16.910  0.00  0.00    +0.000 A 
ATOM     13  C   UNL     1       5.178   3.603  15.606  0.00  0.00    +0.000 A 
BRANCH   8  15
ATOM     14  C   UNL     1       6.958   4.260  12.435  0.00  0.00    +0.000 C 
ATOM     15  O   UNL     1       6.191   3.503  13.367  0.00  0.00    +0.000 OA
ENDBRANCH   8  15
ENDBRANCH   2  12
ENDBRANCH   1   5
BRANCH   1  16
ATOM     16  C   UNL     1       1.662   5.058  20.636  0.00  0.00    +0.000 C 
ATOM     17  O   UNL     1       0.456   5.052  20.353  0.00  0.00    +0.000 OA
ATOM     18  N   UNL     1       2.480   6.176  20.583  0.00  0.00    +0.000 N 
ATOM     19  H   UNL     1       3.456   5.965  20.381  0.00  0.00    +0.000 HD
BRANCH  18  20
ATOM     20  C   UNL     1       1.976   7.433  20.199  0.00  0.00    +0.000 A 
ATOM     21  C   UNL     1       2.198   7.914  18.906  0.00  0.00    +0.000 A 
ATOM     22  C   UNL     1       1.611   9.117  18.498  0.00  0.00    +0.000 A 
ATOM     23  C   UNL     1       0.822   9.865  19.377  0.00  0.00    +0.000 A 
ATOM     24  C   UNL     1       0.668   9.413  20.694  0.00  0.00    +0.000 A 
ATOM     25  C   UNL     1       1.219   8.185  21.092  0.00  0.00    +0.000 A 
BRANCH  23  26
ATOM     26  S   UNL     1       0.116  11.396  18.791  0.00  0.00    +0.000 S 
BRANCH  26  27
ATOM     27  C   UNL     1      -1.406  11.492  19.769  0.00  0.00    +0.000 C 
ATOM     28  F   UNL     1      -1.202  12.221  20.898  0.00  0.00    +0.000 F 
ATOM     29  F   UNL     1      -2.359  12.151  19.059  0.00  0.00    +0.000 F 
ENDBRANCH  26  27
ENDBRANCH  23  26
ENDBRANCH  18  20
ENDBRANCH   1  16
TORSDOF 7
ENDMDL
