MODEL 1
REMARK VINA RESULT:      -6.8      0.000      0.000
REMARK  Name = 
REMARK  5 active torsions:
REMARK  status: ('A' for Active; 'I' for Inactive)
REMARK    1  A    between atoms: C_1  and  C_2
REMARK    2  A    between atoms: C_2  and  C_3
REMARK    3  A    between atoms: C_2  and  C_4
REMARK    4  A    between atoms: C_4  and  O_5
REMARK    5  A    between atoms: O_5  and  C_6
REMARK                            x       y       z     vdW  Elec       q    Type
REMARK                         _______ _______ _______ _____ _____    ______ ____
ROOT
ATOM      1  C   UNL     1       5.296   4.270  17.964  0.00  0.00    +0.000 A 
ATOM      2  N   UNL     1       6.050   4.644  19.030  0.00  0.00    +0.000 NA
ATOM      3  C   UNL     1       7.240   5.224  18.813  0.00  0.00    +0.000 A 
ATOM      4  N   UNL     1       7.958   5.574  19.938  0.00  0.00    +0.000 N 
ATOM      5  N   UNL     1       7.777   5.531  17.624  0.00  0.00    +0.000 NA
ATOM      6  C   UNL     1       7.003   5.130  16.607  0.00  0.00    +0.000 A 
ATOM      7  N   UNL     1       7.265   5.271  15.275  0.00  0.00    +0.000 N 
ATOM      8  C   UNL     1       6.219   4.716  14.589  0.00  0.00    +0.000 A 
ATOM      9  N   UNL     1       5.297   4.243  15.402  0.00  0.00    +0.000 NA
ATOM     10  C   UNL     1       5.776   4.494  16.673  0.00  0.00    +0.000 A 
ATOM     11  H   UNL     1       7.336   5.653  20.730  0.00  0.00    +0.000 HD
ATOM     12  H   UNL     1       8.567   6.354  19.740  0.00  0.00    +0.000 HD
ATOM     13  H   UNL     1       8.088   5.705  14.884  0.00  0.00    +0.000 HD
ENDROOT
BRANCH   1  14
ATOM     14  O   UNL     1       4.083   3.641  18.183  0.00  0.00    +0.000 OA
BRANCH  14  15
ATOM     15  C   UNL     1       3.496   4.056  19.420  0.00  0.00    +0.000 C 
BRANCH  15  17
ATOM     16  C   UNL     1       1.619   4.226  17.765  0.00  0.00    +0.000 C 
ATOM     17  C   UNL     1       2.074   4.582  19.180  0.00  0.00    +0.000 C 
ATOM     18  C   UNL     1       1.083   4.042  20.211  0.00  0.00    +0.000 C 
ENDBRANCH  15  17
ENDBRANCH  14  15
ENDBRANCH   1  14
TORSDOF 3
ENDMDL
MODEL 2
REMARK VINA RESULT:      -6.6      0.799      1.213
REMARK  Name = 
REMARK  5 active torsions:
REMARK  status: ('A' for Active; 'I' for Inactive)
REMARK    1  A    between atoms: C_1  and  C_2
REMARK    2  A    between atoms: C_2  and  C_3
REMARK    3  A    between atoms: C_2  and  C_4
REMARK    4  A    between atoms: C_4  and  O_5
REMARK    5  A    between atoms: O_5  and  C_6
REMARK                            x       y       z     vdW  Elec       q    Type
REMARK                         _______ _______ _______ _____ _____    ______ ____
ROOT
ATOM      1  C   UNL     1       5.248   4.851  18.521  0.00  0.00    +0.000 A 
ATOM      2  N   UNL     1       6.144   5.160  19.494  0.00  0.00    +0.000 NA
ATOM      3  C   UNL     1       7.450   5.183  19.192  0.00  0.00    +0.000 A 
ATOM      4  N   UNL     1       8.306   5.497  20.227  0.00  0.00    +0.000 N 
ATOM      5  N   UNL     1       7.998   4.972  17.987  0.00  0.00    +0.000 NA
ATOM      6  C   UNL     1       7.077   4.658  17.067  0.00  0.00    +0.000 A 
ATOM      7  N   UNL     1       7.301   4.367  15.753  0.00  0.00    +0.000 N 
ATOM      8  C   UNL     1       6.088   4.096  15.179  0.00  0.00    +0.000 A 
ATOM      9  N   UNL     1       5.101   4.212  16.043  0.00  0.00    +0.000 NA
ATOM     10  C   UNL     1       5.707   4.563  17.235  0.00  0.00    +0.000 A 
ATOM     11  H   UNL     1       7.802   5.991  20.950  0.00  0.00    +0.000 HD
ATOM     12  H   UNL     1       9.150   5.921  19.871  0.00  0.00    +0.000 HD
ATOM     13  H   UNL     1       8.203   4.353  15.302  0.00  0.00    +0.000 HD
ENDROOT
BRANCH   1  14
ATOM     14  O   UNL     1       3.902   4.794  18.835  0.00  0.00    +0.000 OA
BRANCH  14  15
ATOM     15  C   UNL     1       3.584   3.598  19.551  0.00  0.00    +0.000 C 
BRANCH  15  17
ATOM     16  C   UNL     1       1.291   3.540  20.565  0.00  0.00    +0.000 C 
ATOM     17  C   UNL     1       2.115   3.217  19.320  0.00  0.00    +0.000 C 
ATOM     18  C   UNL     1       1.528   3.919  18.095  0.00  0.00    +0.000 C 
ENDBRANCH  15  17
ENDBRANCH  14  15
ENDBRANCH   1  14
TORSDOF 3
ENDMDL
MODEL 3
REMARK VINA RESULT:      -6.6      0.741      1.042
REMARK  Name = 
REMARK  5 active torsions:
REMARK  status: ('A' for Active; 'I' for Inactive)
REMARK    1  A    between atoms: C_1  and  C_2
REMARK    2  A    between atoms: C_2  and  C_3
REMARK    3  A    between atoms: C_2  and  C_4
REMARK    4  A    between atoms: C_4  and  O_5
REMARK    5  A    between atoms: O_5  and  C_6
REMARK                            x       y       z     vdW  Elec       q    Type
REMARK                         _______ _______ _______ _____ _____    ______ ____
ROOT
ATOM      1  C   UNL     1       5.359   4.308  18.302  0.00  0.00    +0.000 A 
ATOM      2  N   UNL     1       6.174   4.748  19.295  0.00  0.00    +0.000 NA
ATOM      3  C   UNL     1       7.397   5.202  18.979  0.00  0.00    +0.000 A 
ATOM      4  N   UNL     1       8.176   5.628  20.034  0.00  0.00    +0.000 N 
ATOM      5  N   UNL     1       7.916   5.317  17.748  0.00  0.00    +0.000 NA
ATOM      6  C   UNL     1       7.080   4.857  16.808  0.00  0.00    +0.000 A 
ATOM      7  N   UNL     1       7.308   4.813  15.464  0.00  0.00    +0.000 N 
ATOM      8  C   UNL     1       6.200   4.263  14.877  0.00  0.00    +0.000 A 
ATOM      9  N   UNL     1       5.272   3.968  15.763  0.00  0.00    +0.000 NA
ATOM     10  C   UNL     1       5.811   4.334  16.982  0.00  0.00    +0.000 A 
ATOM     11  H   UNL     1       7.589   5.852  20.825  0.00  0.00    +0.000 HD
ATOM     12  H   UNL     1       8.836   6.327  19.726  0.00  0.00    +0.000 HD
ATOM     13  H   UNL     1       8.148   5.128  15.002  0.00  0.00    +0.000 HD
ENDROOT
BRANCH   1  14
ATOM     14  O   UNL     1       4.109   3.810  18.626  0.00  0.00    +0.000 OA
BRANCH  14  15
ATOM     15  C   UNL     1       3.409   4.692  19.508  0.00  0.00    +0.000 C 
BRANCH  15  17
ATOM     16  C   UNL     1       2.561   6.650  18.189  0.00  0.00    +0.000 C 
ATOM     17  C   UNL     1       2.192   5.296  18.794  0.00  0.00    +0.000 C 
ATOM     18  C   UNL     1       1.639   4.363  17.716  0.00  0.00    +0.000 C 
ENDBRANCH  15  17
ENDBRANCH  14  15
ENDBRANCH   1  14
TORSDOF 3
ENDMDL
MODEL 4
REMARK VINA RESULT:      -6.5      1.085      1.174
REMARK  Name = 
REMARK  5 active torsions:
REMARK  status: ('A' for Active; 'I' for Inactive)
REMARK    1  A    between atoms: C_1  and  C_2
REMARK    2  A    between atoms: C_2  and  C_3
REMARK    3  A    between atoms: C_2  and  C_4
REMARK    4  A    between atoms: C_4  and  O_5
REMARK    5  A    between atoms: O_5  and  C_6
REMARK                            x       y       z     vdW  Elec       q    Type
REMARK                         _______ _______ _______ _____ _____    ______ ____
ROOT
ATOM      1  C   UNL     1       4.964   4.142  16.914  0.00  0.00    +0.000 A 
ATOM      2  N   UNL     1       5.432   4.425  18.157  0.00  0.00    +0.000 NA
ATOM      3  C   UNL     1       6.661   4.948  18.286  0.00  0.00    +0.000 A 
ATOM      4  N   UNL     1       7.077   5.206  19.575  0.00  0.00    +0.000 N 
ATOM      5  N   UNL     1       7.500   5.278  17.294  0.00  0.00    +0.000 NA
ATOM      6  C   UNL     1       7.000   4.966  16.092  0.00  0.00    +0.000 A 
ATOM      7  N   UNL     1       7.604   5.152  14.882  0.00  0.00    +0.000 N 
ATOM      8  C   UNL     1       6.748   4.687  13.920  0.00  0.00    +0.000 A 
ATOM      9  N   UNL     1       5.628   4.230  14.440  0.00  0.00    +0.000 NA
ATOM     10  C   UNL     1       5.772   4.397  15.804  0.00  0.00    +0.000 A 
ATOM     11  H   UNL     1       6.275   5.283  20.185  0.00  0.00    +0.000 HD
ATOM     12  H   UNL     1       7.748   5.959  19.586  0.00  0.00    +0.000 HD
ATOM     13  H   UNL     1       8.517   5.556  14.741  0.00  0.00    +0.000 HD
ENDROOT
BRANCH   1  14
ATOM     14  O   UNL     1       3.711   3.573  16.777  0.00  0.00    +0.000 OA
BRANCH  14  15
ATOM     15  C   UNL     1       3.239   3.048  18.021  0.00  0.00    +0.000 C 
BRANCH  15  17
ATOM     16  C   UNL     1       0.914   2.481  18.772  0.00  0.00    +0.000 C 
ATOM     17  C   UNL     1       1.846   3.611  18.337  0.00  0.00    +0.000 C 
ATOM     18  C   UNL     1       1.898   4.701  19.408  0.00  0.00    +0.000 C 
ENDBRANCH  15  17
ENDBRANCH  14  15
ENDBRANCH   1  14
TORSDOF 3
ENDMDL
MODEL 5
REMARK VINA RESULT:      -6.4      1.172      1.473
REMARK  Name = 
REMARK  5 active torsions:
REMARK  status: ('A' for Active; 'I' for Inactive)
REMARK    1  A    between atoms: C_1  and  C_2
REMARK    2  A    between atoms: C_2  and  C_3
REMARK    3  A    between atoms: C_2  and  C_4
REMARK    4  A    between atoms: C_4  and  O_5
REMARK    5  A    between atoms: O_5  and  C_6
REMARK                            x       y       z     vdW  Elec       q    Type
REMARK                         _______ _______ _______ _____ _____    ______ ____
ROOT
ATOM      1  C   UNL     1       6.102   4.652  18.278  0.00  0.00    +0.000 A 
ATOM      2  N   UNL     1       6.884   5.575  18.897  0.00  0.00    +0.000 NA
ATOM      3  C   UNL     1       7.596   6.431  18.149  0.00  0.00    +0.000 A 
ATOM      4  N   UNL     1       8.372   7.338  18.840  0.00  0.00    +0.000 N 
ATOM      5  N   UNL     1       7.597   6.517  16.811  0.00  0.00    +0.000 NA
ATOM      6  C   UNL     1       6.825   5.578  16.249  0.00  0.00    +0.000 A 
ATOM      7  N   UNL     1       6.623   5.378  14.914  0.00  0.00    +0.000 N 
ATOM      8  C   UNL     1       5.774   4.313  14.782  0.00  0.00    +0.000 A 
ATOM      9  N   UNL     1       5.409   3.830  15.952  0.00  0.00    +0.000 NA
ATOM     10  C   UNL     1       6.063   4.614  16.883  0.00  0.00    +0.000 A 
ATOM     11  H   UNL     1       8.022   7.440  19.782  0.00  0.00    +0.000 HD
ATOM     12  H   UNL     1       8.505   8.177  18.295  0.00  0.00    +0.000 HD
ATOM     13  H   UNL     1       7.036   5.924  14.172  0.00  0.00    +0.000 HD
ENDROOT
BRANCH   1  14
ATOM     14  O   UNL     1       5.391   3.746  19.044  0.00  0.00    +0.000 OA
BRANCH  14  15
ATOM     15  C   UNL     1       4.069   4.221  19.318  0.00  0.00    +0.000 C 
BRANCH  15  17
ATOM     16  C   UNL     1       2.194   2.609  19.740  0.00  0.00    +0.000 C 
ATOM     17  C   UNL     1       3.031   3.298  18.663  0.00  0.00    +0.000 C 
ATOM     18  C   UNL     1       2.128   4.054  17.688  0.00  0.00    +0.000 C 
ENDBRANCH  15  17
ENDBRANCH  14  15
ENDBRANCH   1  14
TORSDOF 3
ENDMDL
MODEL 6
REMARK VINA RESULT:      -6.4      1.199      3.030
REMARK  Name = 
REMARK  5 active torsions:
REMARK  status: ('A' for Active; 'I' for Inactive)
REMARK    1  A    between atoms: C_1  and  C_2
REMARK    2  A    between atoms: C_2  and  C_3
REMARK    3  A    between atoms: C_2  and  C_4
REMARK    4  A    between atoms: C_4  and  O_5
REMARK    5  A    between atoms: O_5  and  C_6
REMARK                            x       y       z     vdW  Elec       q    Type
REMARK                         _______ _______ _______ _____ _____    ______ ____
ROOT
ATOM      1  C   UNL     1       4.689   4.642  17.064  0.00  0.00    +0.000 A 
ATOM      2  N   UNL     1       4.973   4.233  15.800  0.00  0.00    +0.000 NA
ATOM      3  C   UNL     1       6.257   4.116  15.429  0.00  0.00    +0.000 A 
ATOM      4  N   UNL     1       6.477   3.702  14.131  0.00  0.00    +0.000 N 
ATOM      5  N   UNL     1       7.336   4.322  16.197  0.00  0.00    +0.000 NA
ATOM      6  C   UNL     1       7.003   4.737  17.426  0.00  0.00    +0.000 A 
ATOM      7  N   UNL     1       7.858   5.052  18.441  0.00  0.00    +0.000 N 
ATOM      8  C   UNL     1       7.099   5.436  19.514  0.00  0.00    +0.000 A 
ATOM      9  N   UNL     1       5.810   5.370  19.250  0.00  0.00    +0.000 NA
ATOM     10  C   UNL     1       5.734   4.934  17.940  0.00  0.00    +0.000 A 
ATOM     11  H   UNL     1       5.657   3.227  13.780  0.00  0.00    +0.000 HD
ATOM     12  H   UNL     1       7.363   3.224  14.058  0.00  0.00    +0.000 HD
ATOM     13  H   UNL     1       8.865   5.008  18.393  0.00  0.00    +0.000 HD
ENDROOT
BRANCH   1  14
ATOM     14  O   UNL     1       3.367   4.795  17.442  0.00  0.00    +0.000 OA
BRANCH  14  15
ATOM     15  C   UNL     1       2.781   3.542  17.808  0.00  0.00    +0.000 C 
BRANCH  15  17
ATOM     16  C   UNL     1       0.776   2.439  18.834  0.00  0.00    +0.000 C 
ATOM     17  C   UNL     1       1.471   3.775  18.574  0.00  0.00    +0.000 C 
ATOM     18  C   UNL     1       1.701   4.521  19.888  0.00  0.00    +0.000 C 
ENDBRANCH  15  17
ENDBRANCH  14  15
ENDBRANCH   1  14
TORSDOF 3
ENDMDL
MODEL 7
REMARK VINA RESULT:      -6.4      1.404      3.148
REMARK  Name = 
REMARK  5 active torsions:
REMARK  status: ('A' for Active; 'I' for Inactive)
REMARK    1  A    between atoms: C_1  and  C_2
REMARK    2  A    between atoms: C_2  and  C_3
REMARK    3  A    between atoms: C_2  and  C_4
REMARK    4  A    between atoms: C_4  and  O_5
REMARK    5  A    between atoms: O_5  and  C_6
REMARK                            x       y       z     vdW  Elec       q    Type
REMARK                         _______ _______ _______ _____ _____    ______ ____
ROOT
ATOM      1  C   UNL     1       4.898   4.078  17.586  0.00  0.00    +0.000 A 
ATOM      2  N   UNL     1       5.058   3.747  16.278  0.00  0.00    +0.000 NA
ATOM      3  C   UNL     1       6.232   4.005  15.681  0.00  0.00    +0.000 A 
ATOM      4  N   UNL     1       6.326   3.649  14.352  0.00  0.00    +0.000 N 
ATOM      5  N   UNL     1       7.323   4.532  16.253  0.00  0.00    +0.000 NA
ATOM      6  C   UNL     1       7.110   4.855  17.535  0.00  0.00    +0.000 A 
ATOM      7  N   UNL     1       8.004   5.425  18.394  0.00  0.00    +0.000 N 
ATOM      8  C   UNL     1       7.371   5.590  19.597  0.00  0.00    +0.000 A 
ATOM      9  N   UNL     1       6.132   5.144  19.563  0.00  0.00    +0.000 NA
ATOM     10  C   UNL     1       5.953   4.681  18.273  0.00  0.00    +0.000 A 
ATOM     11  H   UNL     1       5.631   2.948  14.135  0.00  0.00    +0.000 HD
ATOM     12  H   UNL     1       7.285   3.451  14.106  0.00  0.00    +0.000 HD
ATOM     13  H   UNL     1       8.954   5.678  18.166  0.00  0.00    +0.000 HD
ENDROOT
BRANCH   1  14
ATOM     14  O   UNL     1       3.680   3.844  18.197  0.00  0.00    +0.000 OA
BRANCH  14  15
ATOM     15  C   UNL     1       3.264   2.486  18.028  0.00  0.00    +0.000 C 
BRANCH  15  17
ATOM     16  C   UNL     1       2.700   2.739  20.458  0.00  0.00    +0.000 C 
ATOM     17  C   UNL     1       2.281   2.091  19.139  0.00  0.00    +0.000 C 
ATOM     18  C   UNL     1       0.842   2.471  18.791  0.00  0.00    +0.000 C 
ENDBRANCH  15  17
ENDBRANCH  14  15
ENDBRANCH   1  14
TORSDOF 3
ENDMDL
MODEL 8
REMARK VINA RESULT:      -6.3      1.013      1.288
REMARK  Name = 
REMARK  5 active torsions:
REMARK  status: ('A' for Active; 'I' for Inactive)
REMARK    1  A    between atoms: C_1  and  C_2
REMARK    2  A    between atoms: C_2  and  C_3
REMARK    3  A    between atoms: C_2  and  C_4
REMARK    4  A    between atoms: C_4  and  O_5
REMARK    5  A    between atoms: O_5  and  C_6
REMARK                            x       y       z     vdW  Elec       q    Type
REMARK                         _______ _______ _______ _____ _____    ______ ____
ROOT
ATOM      1  C   UNL     1       5.066   4.651  17.883  0.00  0.00    +0.000 A 
ATOM      2  N   UNL     1       5.822   4.982  18.962  0.00  0.00    +0.000 NA
ATOM      3  C   UNL     1       7.133   5.213  18.791  0.00  0.00    +0.000 A 
ATOM      4  N   UNL     1       7.844   5.538  19.927  0.00  0.00    +0.000 N 
ATOM      5  N   UNL     1       7.805   5.197  17.631  0.00  0.00    +0.000 NA
ATOM      6  C   UNL     1       7.020   4.851  16.603  0.00  0.00    +0.000 A 
ATOM      7  N   UNL     1       7.394   4.723  15.297  0.00  0.00    +0.000 N 
ATOM      8  C   UNL     1       6.285   4.346  14.587  0.00  0.00    +0.000 A 
ATOM      9  N   UNL     1       5.223   4.242  15.358  0.00  0.00    +0.000 NA
ATOM     10  C   UNL     1       5.669   4.555  16.628  0.00  0.00    +0.000 A 
ATOM     11  H   UNL     1       7.214   5.886  20.637  0.00  0.00    +0.000 HD
ATOM     12  H   UNL     1       8.644   6.106  19.692  0.00  0.00    +0.000 HD
ATOM     13  H   UNL     1       8.324   4.877  14.937  0.00  0.00    +0.000 HD
ENDROOT
BRANCH   1  14
ATOM     14  O   UNL     1       3.721   4.381  18.059  0.00  0.00    +0.000 OA
BRANCH  14  15
ATOM     15  C   UNL     1       3.461   3.859  19.365  0.00  0.00    +0.000 C 
BRANCH  15  17
ATOM     16  C   UNL     1       1.314   2.760  18.675  0.00  0.00    +0.000 C 
ATOM     17  C   UNL     1       2.706   2.526  19.261  0.00  0.00    +0.000 C 
ATOM     18  C   UNL     1       3.471   1.499  18.426  0.00  0.00    +0.000 C 
ENDBRANCH  15  17
ENDBRANCH  14  15
ENDBRANCH   1  14
TORSDOF 3
ENDMDL
MODEL 9
REMARK VINA RESULT:      -6.3      1.683      1.869
REMARK  Name = 
REMARK  5 active torsions:
REMARK  status: ('A' for Active; 'I' for Inactive)
REMARK    1  A    between atoms: C_1  and  C_2
REMARK    2  A    between atoms: C_2  and  C_3
REMARK    3  A    between atoms: C_2  and  C_4
REMARK    4  A    between atoms: C_4  and  O_5
REMARK    5  A    between atoms: O_5  and  C_6
REMARK                            x       y       z     vdW  Elec       q    Type
REMARK                         _______ _______ _______ _____ _____    ______ ____
ROOT
ATOM      1  C   UNL     1       5.144   5.107  19.105  0.00  0.00    +0.000 A 
ATOM      2  N   UNL     1       6.255   4.997  19.879  0.00  0.00    +0.000 NA
ATOM      3  C   UNL     1       7.418   5.484  19.420  0.00  0.00    +0.000 A 
ATOM      4  N   UNL     1       8.507   5.334  20.253  0.00  0.00    +0.000 N 
ATOM      5  N   UNL     1       7.615   6.130  18.263  0.00  0.00    +0.000 NA
ATOM      6  C   UNL     1       6.496   6.199  17.531  0.00  0.00    +0.000 A 
ATOM      7  N   UNL     1       6.359   6.771  16.300  0.00  0.00    +0.000 N 
ATOM      8  C   UNL     1       5.055   6.611  15.915  0.00  0.00    +0.000 A 
ATOM      9  N   UNL     1       4.347   5.986  16.833  0.00  0.00    +0.000 NA
ATOM     10  C   UNL     1       5.240   5.719  17.854  0.00  0.00    +0.000 A 
ATOM     11  H   UNL     1       8.195   5.195  21.204  0.00  0.00    +0.000 HD
ATOM     12  H   UNL     1       9.185   6.062  20.083  0.00  0.00    +0.000 HD
ATOM     13  H   UNL     1       7.096   7.223  15.779  0.00  0.00    +0.000 HD
ENDROOT
BRANCH   1  14
ATOM     14  O   UNL     1       3.949   4.578  19.559  0.00  0.00    +0.000 OA
BRANCH  14  15
ATOM     15  C   UNL     1       3.883   3.168  19.328  0.00  0.00    +0.000 C 
BRANCH  15  17
ATOM     16  C   UNL     1       2.249   3.401  21.217  0.00  0.00    +0.000 C 
ATOM     17  C   UNL     1       2.621   2.585  19.980  0.00  0.00    +0.000 C 
ATOM     18  C   UNL     1       1.446   2.530  19.004  0.00  0.00    +0.000 C 
ENDBRANCH  15  17
ENDBRANCH  14  15
ENDBRANCH   1  14
TORSDOF 3
ENDMDL
