MODEL 1
REMARK VINA RESULT:      -7.3      0.000      0.000
REMARK  Name = 
REMARK  0 active torsions:
REMARK  status: ('A' for Active; 'I' for Inactive)
REMARK                            x       y       z     vdW  Elec       q    Type
REMARK                         _______ _______ _______ _____ _____    ______ ____
ROOT
ATOM      1  C   UNL     1       1.168   1.714  19.266  0.00  0.00    +0.000 A 
ATOM      2  C   UNL     1       0.460   2.723  18.665  0.00  0.00    +0.000 A 
ATOM      3  C   UNL     1       1.071   3.930  18.366  0.00  0.00    +0.000 A 
ATOM      4  C   UNL     1       2.448   4.080  18.632  0.00  0.00    +0.000 A 
ATOM      5  C   UNL     1       3.077   5.193  18.130  0.00  0.00    +0.000 A 
ATOM      6  C   UNL     1       4.456   5.285  18.227  0.00  0.00    +0.000 A 
ATOM      7  N   UNL     1       4.988   6.237  17.477  0.00  0.00    +0.000 NA
ATOM      8  C   UNL     1       6.262   6.514  17.703  0.00  0.00    +0.000 A 
ATOM      9  C   UNL     1       6.820   7.493  16.958  0.00  0.00    +0.000 A 
ATOM     10  C   UNL     1       7.770   8.331  17.527  0.00  0.00    +0.000 A 
ATOM     11  C   UNL     1       8.496   7.809  18.566  0.00  0.00    +0.000 A 
ATOM     12  C   UNL     1       8.208   6.533  19.069  0.00  0.00    +0.000 A 
ATOM     13  C   UNL     1       7.005   5.890  18.727  0.00  0.00    +0.000 A 
ATOM     14  N   UNL     1       6.510   4.783  19.329  0.00  0.00    +0.000 NA
ATOM     15  C   UNL     1       5.200   4.459  19.062  0.00  0.00    +0.000 A 
ATOM     16  C   UNL     1       4.559   3.332  19.573  0.00  0.00    +0.000 A 
ATOM     17  C   UNL     1       3.182   3.084  19.296  0.00  0.00    +0.000 A 
ATOM     18  C   UNL     1       2.518   1.895  19.621  0.00  0.00    +0.000 A 
ENDROOT
TORSDOF 0
ENDMDL
MODEL 2
REMARK VINA RESULT:      -7.2      3.553      5.866
REMARK  Name = 
REMARK  0 active torsions:
REMARK  status: ('A' for Active; 'I' for Inactive)
REMARK                            x       y       z     vdW  Elec       q    Type
REMARK                         _______ _______ _______ _____ _____    ______ ____
ROOT
ATOM      1  C   UNL     1       0.722  10.818  20.011  0.00  0.00    +0.000 A 
ATOM      2  C   UNL     1       1.162  10.923  18.716  0.00  0.00    +0.000 A 
ATOM      3  C   UNL     1       1.779   9.849  18.093  0.00  0.00    +0.000 A 
ATOM      4  C   UNL     1       1.888   8.628  18.792  0.00  0.00    +0.000 A 
ATOM      5  C   UNL     1       2.298   7.525  18.085  0.00  0.00    +0.000 A 
ATOM      6  C   UNL     1       2.253   6.283  18.696  0.00  0.00    +0.000 A 
ATOM      7  N   UNL     1       2.394   5.264  17.862  0.00  0.00    +0.000 NA
ATOM      8  C   UNL     1       2.584   4.078  18.416  0.00  0.00    +0.000 A 
ATOM      9  C   UNL     1       2.743   3.028  17.581  0.00  0.00    +0.000 A 
ATOM     10  C   UNL     1       3.617   2.004  17.926  0.00  0.00    +0.000 A 
ATOM     11  C   UNL     1       3.825   1.809  19.266  0.00  0.00    +0.000 A 
ATOM     12  C   UNL     1       3.250   2.669  20.212  0.00  0.00    +0.000 A 
ATOM     13  C   UNL     1       2.704   3.901  19.810  0.00  0.00    +0.000 A 
ATOM     14  N   UNL     1       2.346   4.908  20.642  0.00  0.00    +0.000 NA
ATOM     15  C   UNL     1       2.099   6.134  20.070  0.00  0.00    +0.000 A 
ATOM     16  C   UNL     1       1.685   7.256  20.786  0.00  0.00    +0.000 A 
ATOM     17  C   UNL     1       1.496   8.511  20.134  0.00  0.00    +0.000 A 
ATOM     18  C   UNL     1       0.917   9.631  20.743  0.00  0.00    +0.000 A 
ENDROOT
TORSDOF 0
ENDMDL
MODEL 3
REMARK VINA RESULT:      -7.1      2.554      6.162
REMARK  Name = 
REMARK  0 active torsions:
REMARK  status: ('A' for Active; 'I' for Inactive)
REMARK                            x       y       z     vdW  Elec       q    Type
REMARK                         _______ _______ _______ _____ _____    ______ ____
ROOT
ATOM      1  C   UNL     1       6.876   4.711  13.952  0.00  0.00    +0.000 A 
ATOM      2  C   UNL     1       7.732   5.115  14.944  0.00  0.00    +0.000 A 
ATOM      3  C   UNL     1       7.327   5.106  16.270  0.00  0.00    +0.000 A 
ATOM      4  C   UNL     1       6.043   4.614  16.585  0.00  0.00    +0.000 A 
ATOM      5  C   UNL     1       5.748   4.408  17.911  0.00  0.00    +0.000 A 
ATOM      6  C   UNL     1       4.565   3.769  18.243  0.00  0.00    +0.000 A 
ATOM      7  N   UNL     1       4.502   3.368  19.503  0.00  0.00    +0.000 NA
ATOM      8  C   UNL     1       3.317   2.960  19.927  0.00  0.00    +0.000 A 
ATOM      9  C   UNL     1       3.228   2.560  21.214  0.00  0.00    +0.000 A 
ATOM     10  C   UNL     1       2.071   2.822  21.936  0.00  0.00    +0.000 A 
ATOM     11  C   UNL     1       0.915   2.937  21.209  0.00  0.00    +0.000 A 
ATOM     12  C   UNL     1       0.943   2.886  19.808  0.00  0.00    +0.000 A 
ATOM     13  C   UNL     1       2.162   3.010  19.118  0.00  0.00    +0.000 A 
ATOM     14  N   UNL     1       2.290   3.217  17.786  0.00  0.00    +0.000 NA
ATOM     15  C   UNL     1       3.531   3.594  17.328  0.00  0.00    +0.000 A 
ATOM     16  C   UNL     1       3.832   3.806  15.985  0.00  0.00    +0.000 A 
ATOM     17  C   UNL     1       5.129   4.247  15.586  0.00  0.00    +0.000 A 
ATOM     18  C   UNL     1       5.560   4.312  14.255  0.00  0.00    +0.000 A 
ENDROOT
TORSDOF 0
ENDMDL
MODEL 4
REMARK VINA RESULT:      -7.0      3.710      4.698
REMARK  Name = 
REMARK  0 active torsions:
REMARK  status: ('A' for Active; 'I' for Inactive)
REMARK                            x       y       z     vdW  Elec       q    Type
REMARK                         _______ _______ _______ _____ _____    ______ ____
ROOT
ATOM      1  C   UNL     1       3.677   1.765  19.288  0.00  0.00    +0.000 A 
ATOM      2  C   UNL     1       3.520   1.946  17.938  0.00  0.00    +0.000 A 
ATOM      3  C   UNL     1       2.989   3.128  17.444  0.00  0.00    +0.000 A 
ATOM      4  C   UNL     1       2.673   4.163  18.349  0.00  0.00    +0.000 A 
ATOM      5  C   UNL     1       2.360   5.393  17.825  0.00  0.00    +0.000 A 
ATOM      6  C   UNL     1       2.211   6.469  18.685  0.00  0.00    +0.000 A 
ATOM      7  N   UNL     1       2.192   7.646  18.079  0.00  0.00    +0.000 NA
ATOM      8  C   UNL     1       1.829   8.679  18.822  0.00  0.00    +0.000 A 
ATOM      9  C   UNL     1       1.790   9.887  18.218  0.00  0.00    +0.000 A 
ATOM     10  C   UNL     1       0.810  10.803  18.580  0.00  0.00    +0.000 A 
ATOM     11  C   UNL     1       0.320  10.695  19.856  0.00  0.00    +0.000 A 
ATOM     12  C   UNL     1       0.731   9.651  20.694  0.00  0.00    +0.000 A 
ATOM     13  C   UNL     1       1.414   8.542  20.163  0.00  0.00    +0.000 A 
ATOM     14  N   UNL     1       1.645   7.378  20.815  0.00  0.00    +0.000 NA
ATOM     15  C   UNL     1       2.070   6.310  20.059  0.00  0.00    +0.000 A 
ATOM     16  C   UNL     1       2.386   5.060  20.588  0.00  0.00    +0.000 A 
ATOM     17  C   UNL     1       2.772   3.982  19.737  0.00  0.00    +0.000 A 
ATOM     18  C   UNL     1       3.272   2.759  20.200  0.00  0.00    +0.000 A 
ENDROOT
TORSDOF 0
ENDMDL
MODEL 5
REMARK VINA RESULT:      -7.0      2.572      5.854
REMARK  Name = 
REMARK  0 active torsions:
REMARK  status: ('A' for Active; 'I' for Inactive)
REMARK                            x       y       z     vdW  Elec       q    Type
REMARK                         _______ _______ _______ _____ _____    ______ ____
ROOT
ATOM      1  C   UNL     1       7.590   5.128  14.395  0.00  0.00    +0.000 A 
ATOM      2  C   UNL     1       6.655   4.514  13.602  0.00  0.00    +0.000 A 
ATOM      3  C   UNL     1       5.527   3.936  14.163  0.00  0.00    +0.000 A 
ATOM      4  C   UNL     1       5.327   4.046  15.555  0.00  0.00    +0.000 A 
ATOM      5  C   UNL     1       4.107   3.664  16.056  0.00  0.00    +0.000 A 
ATOM      6  C   UNL     1       3.819   3.917  17.386  0.00  0.00    +0.000 A 
ATOM      7  N   UNL     1       2.540   3.774  17.700  0.00  0.00    +0.000 NA
ATOM      8  C   UNL     1       2.252   3.783  18.991  0.00  0.00    +0.000 A 
ATOM      9  C   UNL     1       0.954   3.625  19.332  0.00  0.00    +0.000 A 
ATOM     10  C   UNL     1       0.628   2.914  20.480  0.00  0.00    +0.000 A 
ATOM     11  C   UNL     1       1.569   2.905  21.476  0.00  0.00    +0.000 A 
ATOM     12  C   UNL     1       2.821   3.506  21.283  0.00  0.00    +0.000 A 
ATOM     13  C   UNL     1       3.243   3.865  19.990  0.00  0.00    +0.000 A 
ATOM     14  N   UNL     1       4.504   4.222  19.650  0.00  0.00    +0.000 NA
ATOM     15  C   UNL     1       4.801   4.264  18.307  0.00  0.00    +0.000 A 
ATOM     16  C   UNL     1       6.040   4.649  17.797  0.00  0.00    +0.000 A 
ATOM     17  C   UNL     1       6.294   4.620  16.394  0.00  0.00    +0.000 A 
ATOM     18  C   UNL     1       7.441   5.155  15.795  0.00  0.00    +0.000 A 
ENDROOT
TORSDOF 0
ENDMDL
MODEL 6
REMARK VINA RESULT:      -6.9      3.655      5.969
REMARK  Name = 
REMARK  0 active torsions:
REMARK  status: ('A' for Active; 'I' for Inactive)
REMARK                            x       y       z     vdW  Elec       q    Type
REMARK                         _______ _______ _______ _____ _____    ______ ____
ROOT
ATOM      1  C   UNL     1       1.010  11.250  19.588  0.00  0.00    +0.000 A 
ATOM      2  C   UNL     1       0.627  10.765  20.812  0.00  0.00    +0.000 A 
ATOM      3  C   UNL     1       0.749   9.416  21.105  0.00  0.00    +0.000 A 
ATOM      4  C   UNL     1       1.334   8.562  20.146  0.00  0.00    +0.000 A 
ATOM      5  C   UNL     1       1.646   7.283  20.537  0.00  0.00    +0.000 A 
ATOM      6  C   UNL     1       2.371   6.477  19.676  0.00  0.00    +0.000 A 
ATOM      7  N   UNL     1       2.860   5.384  20.242  0.00  0.00    +0.000 NA
ATOM      8  C   UNL     1       3.363   4.477  19.421  0.00  0.00    +0.000 A 
ATOM      9  C   UNL     1       3.854   3.348  19.978  0.00  0.00    +0.000 A 
ATOM     10  C   UNL     1       3.708   2.136  19.315  0.00  0.00    +0.000 A 
ATOM     11  C   UNL     1       3.609   2.200  17.949  0.00  0.00    +0.000 A 
ATOM     12  C   UNL     1       3.563   3.437  17.292  0.00  0.00    +0.000 A 
ATOM     13  C   UNL     1       3.324   4.617  18.018  0.00  0.00    +0.000 A 
ATOM     14  N   UNL     1       3.020   5.821  17.478  0.00  0.00    +0.000 NA
ATOM     15  C   UNL     1       2.542   6.788  18.332  0.00  0.00    +0.000 A 
ATOM     16  C   UNL     1       2.223   8.085  17.936  0.00  0.00    +0.000 A 
ATOM     17  C   UNL     1       1.683   9.022  18.867  0.00  0.00    +0.000 A 
ATOM     18  C   UNL     1       1.504  10.384  18.593  0.00  0.00    +0.000 A 
ENDROOT
TORSDOF 0
ENDMDL
MODEL 7
REMARK VINA RESULT:      -6.8      2.467      2.920
REMARK  Name = 
REMARK  0 active torsions:
REMARK  status: ('A' for Active; 'I' for Inactive)
REMARK                            x       y       z     vdW  Elec       q    Type
REMARK                         _______ _______ _______ _____ _____    ______ ____
ROOT
ATOM      1  C   UNL     1       1.550   3.195  21.399  0.00  0.00    +0.000 A 
ATOM      2  C   UNL     1       0.670   2.901  20.389  0.00  0.00    +0.000 A 
ATOM      3  C   UNL     1       1.028   3.100  19.064  0.00  0.00    +0.000 A 
ATOM      4  C   UNL     1       2.333   3.550  18.773  0.00  0.00    +0.000 A 
ATOM      5  C   UNL     1       2.735   3.529  17.460  0.00  0.00    +0.000 A 
ATOM      6  C   UNL     1       4.059   3.802  17.160  0.00  0.00    +0.000 A 
ATOM      7  N   UNL     1       4.410   3.485  15.923  0.00  0.00    +0.000 NA
ATOM      8  C   UNL     1       5.589   3.929  15.519  0.00  0.00    +0.000 A 
ATOM      9  C   UNL     1       5.959   3.628  14.255  0.00  0.00    +0.000 A 
ATOM     10  C   UNL     1       6.691   4.549  13.517  0.00  0.00    +0.000 A 
ATOM     11  C   UNL     1       7.469   5.421  14.234  0.00  0.00    +0.000 A 
ATOM     12  C   UNL     1       7.435   5.424  15.635  0.00  0.00    +0.000 A 
ATOM     13  C   UNL     1       6.405   4.753  16.320  0.00  0.00    +0.000 A 
ATOM     14  N   UNL     1       6.129   4.884  17.640  0.00  0.00    +0.000 NA
ATOM     15  C   UNL     1       4.927   4.381  18.079  0.00  0.00    +0.000 A 
ATOM     16  C   UNL     1       4.516   4.404  19.411  0.00  0.00    +0.000 A 
ATOM     17  C   UNL     1       3.232   3.910  19.789  0.00  0.00    +0.000 A 
ATOM     18  C   UNL     1       2.818   3.736  21.115  0.00  0.00    +0.000 A 
ENDROOT
TORSDOF 0
ENDMDL
MODEL 8
REMARK VINA RESULT:      -6.8      3.379      4.427
REMARK  Name = 
REMARK  0 active torsions:
REMARK  status: ('A' for Active; 'I' for Inactive)
REMARK                            x       y       z     vdW  Elec       q    Type
REMARK                         _______ _______ _______ _____ _____    ______ ____
ROOT
ATOM      1  C   UNL     1      -0.246   9.303  20.807  0.00  0.00    +0.000 A 
ATOM      2  C   UNL     1      -0.066  10.158  19.750  0.00  0.00    +0.000 A 
ATOM      3  C   UNL     1       0.957   9.945  18.839  0.00  0.00    +0.000 A 
ATOM      4  C   UNL     1       1.769   8.801  18.983  0.00  0.00    +0.000 A 
ATOM      5  C   UNL     1       2.626   8.495  17.954  0.00  0.00    +0.000 A 
ATOM      6  C   UNL     1       3.310   7.291  17.988  0.00  0.00    +0.000 A 
ATOM      7  N   UNL     1       3.882   6.962  16.840  0.00  0.00    +0.000 NA
ATOM      8  C   UNL     1       4.728   5.946  16.880  0.00  0.00    +0.000 A 
ATOM      9  C   UNL     1       5.333   5.604  15.721  0.00  0.00    +0.000 A 
ATOM     10  C   UNL     1       6.647   5.153  15.739  0.00  0.00    +0.000 A 
ATOM     11  C   UNL     1       7.065   4.549  16.896  0.00  0.00    +0.000 A 
ATOM     12  C   UNL     1       6.224   4.488  18.016  0.00  0.00    +0.000 A 
ATOM     13  C   UNL     1       5.069   5.287  18.079  0.00  0.00    +0.000 A 
ATOM     14  N   UNL     1       4.321   5.496  19.189  0.00  0.00    +0.000 NA
ATOM     15  C   UNL     1       3.402   6.519  19.141  0.00  0.00    +0.000 A 
ATOM     16  C   UNL     1       2.534   6.833  20.184  0.00  0.00    +0.000 A 
ATOM     17  C   UNL     1       1.641   7.941  20.085  0.00  0.00    +0.000 A 
ATOM     18  C   UNL     1       0.624   8.213  21.008  0.00  0.00    +0.000 A 
ENDROOT
TORSDOF 0
ENDMDL
MODEL 9
REMARK VINA RESULT:      -6.7      2.289      3.294
REMARK  Name = 
REMARK  0 active torsions:
REMARK  status: ('A' for Active; 'I' for Inactive)
REMARK                            x       y       z     vdW  Elec       q    Type
REMARK                         _______ _______ _______ _____ _____    ______ ____
ROOT
ATOM      1  C   UNL     1       0.766   2.703  21.059  0.00  0.00    +0.000 A 
ATOM      2  C   UNL     1       1.893   2.576  21.830  0.00  0.00    +0.000 A 
ATOM      3  C   UNL     1       3.152   2.719  21.266  0.00  0.00    +0.000 A 
ATOM      4  C   UNL     1       3.250   3.060  19.901  0.00  0.00    +0.000 A 
ATOM      5  C   UNL     1       4.488   3.411  19.420  0.00  0.00    +0.000 A 
ATOM      6  C   UNL     1       4.590   3.913  18.133  0.00  0.00    +0.000 A 
ATOM      7  N   UNL     1       5.756   4.479  17.864  0.00  0.00    +0.000 NA
ATOM      8  C   UNL     1       5.985   4.769  16.594  0.00  0.00    +0.000 A 
ATOM      9  C   UNL     1       7.175   5.334  16.297  0.00  0.00    +0.000 A 
ATOM     10  C   UNL     1       7.807   5.015  15.101  0.00  0.00    +0.000 A 
ATOM     11  C   UNL     1       6.993   4.629  14.068  0.00  0.00    +0.000 A 
ATOM     12  C   UNL     1       5.613   4.481  14.263  0.00  0.00    +0.000 A 
ATOM     13  C   UNL     1       5.081   4.436  15.564  0.00  0.00    +0.000 A 
ATOM     14  N   UNL     1       3.819   4.059  15.882  0.00  0.00    +0.000 NA
ATOM     15  C   UNL     1       3.558   3.803  17.208  0.00  0.00    +0.000 A 
ATOM     16  C   UNL     1       2.304   3.444  17.697  0.00  0.00    +0.000 A 
ATOM     17  C   UNL     1       2.116   3.143  19.079  0.00  0.00    +0.000 A 
ATOM     18  C   UNL     1       0.864   2.948  19.676  0.00  0.00    +0.000 A 
ENDROOT
TORSDOF 0
ENDMDL
