MODEL 1
REMARK VINA RESULT:      -5.9      0.000      0.000
REMARK  Name = 
REMARK  9 active torsions:
REMARK  status: ('A' for Active; 'I' for Inactive)
REMARK    1  A    between atoms: C_1  and  C_2
REMARK    2  A    between atoms: C_2  and  C_3
REMARK    3  A    between atoms: C_3  and  S_18
REMARK    4  A    between atoms: C_4  and  C_5
REMARK    5  A    between atoms: C_10  and  O_11
REMARK    6  A    between atoms: O_11  and  C_12
REMARK    7  A    between atoms: N_15  and  C_16
REMARK    8  A    between atoms: C_16  and  C_17
REMARK    9  A    between atoms: S_18  and  C_19
REMARK                            x       y       z     vdW  Elec       q    Type
REMARK                         _______ _______ _______ _____ _____    ______ ____
ROOT
ATOM      1  C   UNL     1       2.878   6.746  18.616  0.00  0.00    +0.000 A 
ATOM      2  S   UNL     1       2.378   8.188  17.828  0.00  0.00    +0.000 S 
ATOM      3  C   UNL     1       1.593   8.762  19.241  0.00  0.00    +0.000 A 
ATOM      4  C   UNL     1       1.000  10.015  19.448  0.00  0.00    +0.000 A 
ATOM      5  C   UNL     1       0.430  10.274  20.696  0.00  0.00    +0.000 A 
ATOM      6  C   UNL     1       0.415   9.299  21.688  0.00  0.00    +0.000 A 
ATOM      7  C   UNL     1       1.032   8.056  21.479  0.00  0.00    +0.000 A 
ATOM      8  C   UNL     1       1.633   7.787  20.235  0.00  0.00    +0.000 A 
ATOM      9  N   UNL     1       2.342   6.654  19.828  0.00  0.00    +0.000 N 
ENDROOT
BRANCH   1  11
ATOM     10  C   UNL     1       3.735   4.768  17.398  0.00  0.00    +0.000 C 
ATOM     11  C   UNL     1       3.894   5.946  18.039  0.00  0.00    +0.000 C 
BRANCH  10  13
ATOM     12  C   UNL     1       5.543   4.802  15.514  0.00  0.00    +0.000 C 
ATOM     13  C   UNL     1       4.912   4.082  16.706  0.00  0.00    +0.000 C 
ENDBRANCH  10  13
BRANCH  10  14
ATOM     14  S   UNL     1       2.171   3.968  17.380  0.00  0.00    +0.000 S 
ATOM     15  C   UNL     1       2.545   2.261  17.874  0.00  0.00    +0.000 C 
ENDBRANCH  10  14
ENDBRANCH   1  11
BRANCH   6  16
ATOM     16  O   UNL     1      -0.146   9.463  22.927  0.00  0.00    +0.000 OA
ATOM     17  C   UNL     1      -0.985  10.610  23.077  0.00  0.00    +0.000 C 
ENDBRANCH   6  16
BRANCH   9  18
ATOM     18  C   UNL     1       2.523   5.481  20.691  0.00  0.00    +0.000 C 
ATOM     19  C   UNL     1       1.331   4.537  20.654  0.00  0.00    +0.000 C 
ENDBRANCH   9  18
TORSDOF 5
ENDMDL
MODEL 2
REMARK VINA RESULT:      -5.7      3.886      7.582
REMARK  Name = 
REMARK  9 active torsions:
REMARK  status: ('A' for Active; 'I' for Inactive)
REMARK    1  A    between atoms: C_1  and  C_2
REMARK    2  A    between atoms: C_2  and  C_3
REMARK    3  A    between atoms: C_3  and  S_18
REMARK    4  A    between atoms: C_4  and  C_5
REMARK    5  A    between atoms: C_10  and  O_11
REMARK    6  A    between atoms: O_11  and  C_12
REMARK    7  A    between atoms: N_15  and  C_16
REMARK    8  A    between atoms: C_16  and  C_17
REMARK    9  A    between atoms: S_18  and  C_19
REMARK                            x       y       z     vdW  Elec       q    Type
REMARK                         _______ _______ _______ _____ _____    ______ ____
ROOT
ATOM      1  C   UNL     1       4.831   4.147  18.479  0.00  0.00    +0.000 A 
ATOM      2  S   UNL     1       6.270   5.083  18.413  0.00  0.00    +0.000 S 
ATOM      3  C   UNL     1       6.435   4.826  16.725  0.00  0.00    +0.000 A 
ATOM      4  C   UNL     1       7.369   5.402  15.853  0.00  0.00    +0.000 A 
ATOM      5  C   UNL     1       7.305   5.059  14.502  0.00  0.00    +0.000 A 
ATOM      6  C   UNL     1       6.368   4.138  14.044  0.00  0.00    +0.000 A 
ATOM      7  C   UNL     1       5.421   3.585  14.922  0.00  0.00    +0.000 A 
ATOM      8  C   UNL     1       5.456   3.939  16.283  0.00  0.00    +0.000 A 
ATOM      9  N   UNL     1       4.591   3.558  17.313  0.00  0.00    +0.000 N 
ENDROOT
BRANCH   1  11
ATOM     10  C   UNL     1       2.929   5.066  19.770  0.00  0.00    +0.000 C 
ATOM     11  C   UNL     1       3.984   4.239  19.609  0.00  0.00    +0.000 C 
BRANCH  10  13
ATOM     12  C   UNL     1       1.900   3.588  21.661  0.00  0.00    +0.000 C 
ATOM     13  C   UNL     1       2.021   4.958  20.994  0.00  0.00    +0.000 C 
ENDBRANCH  10  13
BRANCH  10  14
ATOM     14  S   UNL     1       2.596   6.322  18.587  0.00  0.00    +0.000 S 
ATOM     15  C   UNL     1       2.056   7.737  19.590  0.00  0.00    +0.000 C 
ENDBRANCH  10  14
ENDBRANCH   1  11
BRANCH   6  16
ATOM     16  O   UNL     1       6.256   3.728  12.742  0.00  0.00    +0.000 OA
ATOM     17  C   UNL     1       4.929   3.434  12.300  0.00  0.00    +0.000 C 
ENDBRANCH   6  16
BRANCH   9  18
ATOM     18  C   UNL     1       3.478   2.624  17.107  0.00  0.00    +0.000 C 
ATOM     19  C   UNL     1       3.499   1.462  18.088  0.00  0.00    +0.000 C 
ENDBRANCH   9  18
TORSDOF 5
ENDMDL
MODEL 3
REMARK VINA RESULT:      -5.6      3.749      6.382
REMARK  Name = 
REMARK  9 active torsions:
REMARK  status: ('A' for Active; 'I' for Inactive)
REMARK    1  A    between atoms: C_1  and  C_2
REMARK    2  A    between atoms: C_2  and  C_3
REMARK    3  A    between atoms: C_3  and  S_18
REMARK    4  A    between atoms: C_4  and  C_5
REMARK    5  A    between atoms: C_10  and  O_11
REMARK    6  A    between atoms: O_11  and  C_12
REMARK    7  A    between atoms: N_15  and  C_16
REMARK    8  A    between atoms: C_16  and  C_17
REMARK    9  A    between atoms: S_18  and  C_19
REMARK                            x       y       z     vdW  Elec       q    Type
REMARK                         _______ _______ _______ _____ _____    ______ ____
ROOT
ATOM      1  C   UNL     1       3.017   4.484  17.869  0.00  0.00    +0.000 A 
ATOM      2  S   UNL     1       3.692   3.502  16.632  0.00  0.00    +0.000 S 
ATOM      3  C   UNL     1       5.068   4.516  16.491  0.00  0.00    +0.000 A 
ATOM      4  C   UNL     1       6.216   4.306  15.716  0.00  0.00    +0.000 A 
ATOM      5  C   UNL     1       7.230   5.264  15.770  0.00  0.00    +0.000 A 
ATOM      6  C   UNL     1       7.082   6.414  16.539  0.00  0.00    +0.000 A 
ATOM      7  C   UNL     1       5.938   6.604  17.331  0.00  0.00    +0.000 A 
ATOM      8  C   UNL     1       4.917   5.635  17.306  0.00  0.00    +0.000 A 
ATOM      9  N   UNL     1       3.731   5.590  18.043  0.00  0.00    +0.000 N 
ENDROOT
BRANCH   1  11
ATOM     10  C   UNL     1       2.083   3.244  19.798  0.00  0.00    +0.000 C 
ATOM     11  C   UNL     1       1.965   3.979  18.672  0.00  0.00    +0.000 C 
BRANCH  10  13
ATOM     12  C   UNL     1       1.103   2.404  22.068  0.00  0.00    +0.000 C 
ATOM     13  C   UNL     1       0.858   2.883  20.637  0.00  0.00    +0.000 C 
ENDBRANCH  10  13
BRANCH  10  14
ATOM     14  S   UNL     1       3.654   2.643  20.307  0.00  0.00    +0.000 S 
ATOM     15  C   UNL     1       3.952   1.218  19.222  0.00  0.00    +0.000 C 
ENDBRANCH  10  14
ENDBRANCH   1  11
BRANCH   6  16
ATOM     16  O   UNL     1       8.015   7.414  16.626  0.00  0.00    +0.000 OA
ATOM     17  C   UNL     1       7.886   8.280  17.754  0.00  0.00    +0.000 C 
ENDBRANCH   6  16
BRANCH   9  18
ATOM     18  C   UNL     1       3.335   6.656  18.972  0.00  0.00    +0.000 C 
ATOM     19  C   UNL     1       2.502   7.737  18.302  0.00  0.00    +0.000 C 
ENDBRANCH   9  18
TORSDOF 5
ENDMDL
MODEL 4
REMARK VINA RESULT:      -5.5      3.770      7.430
REMARK  Name = 
REMARK  9 active torsions:
REMARK  status: ('A' for Active; 'I' for Inactive)
REMARK    1  A    between atoms: C_1  and  C_2
REMARK    2  A    between atoms: C_2  and  C_3
REMARK    3  A    between atoms: C_3  and  S_18
REMARK    4  A    between atoms: C_4  and  C_5
REMARK    5  A    between atoms: C_10  and  O_11
REMARK    6  A    between atoms: O_11  and  C_12
REMARK    7  A    between atoms: N_15  and  C_16
REMARK    8  A    between atoms: C_16  and  C_17
REMARK    9  A    between atoms: S_18  and  C_19
REMARK                            x       y       z     vdW  Elec       q    Type
REMARK                         _______ _______ _______ _____ _____    ______ ____
ROOT
ATOM      1  C   UNL     1       3.894   5.330  18.107  0.00  0.00    +0.000 A 
ATOM      2  S   UNL     1       5.462   6.030  18.166  0.00  0.00    +0.000 S 
ATOM      3  C   UNL     1       5.905   5.316  16.671  0.00  0.00    +0.000 A 
ATOM      4  C   UNL     1       7.079   5.519  15.933  0.00  0.00    +0.000 A 
ATOM      5  C   UNL     1       7.221   4.841  14.722  0.00  0.00    +0.000 A 
ATOM      6  C   UNL     1       6.242   3.955  14.283  0.00  0.00    +0.000 A 
ATOM      7  C   UNL     1       5.059   3.776  15.017  0.00  0.00    +0.000 A 
ATOM      8  C   UNL     1       4.889   4.471  16.229  0.00  0.00    +0.000 A 
ATOM      9  N   UNL     1       3.786   4.488  17.087  0.00  0.00    +0.000 N 
ENDROOT
BRANCH   1  11
ATOM     10  C   UNL     1       2.469   5.297  20.131  0.00  0.00    +0.000 C 
ATOM     11  C   UNL     1       2.873   5.823  18.955  0.00  0.00    +0.000 C 
BRANCH  10  13
ATOM     12  C   UNL     1       1.391   7.542  20.918  0.00  0.00    +0.000 C 
ATOM     13  C   UNL     1       1.443   6.016  21.006  0.00  0.00    +0.000 C 
ENDBRANCH  10  13
BRANCH  10  14
ATOM     14  S   UNL     1       3.084   3.741  20.668  0.00  0.00    +0.000 S 
ATOM     15  C   UNL     1       1.650   2.949  21.452  0.00  0.00    +0.000 C 
ENDBRANCH  10  14
ENDBRANCH   1  11
BRANCH   6  16
ATOM     16  O   UNL     1       6.315   3.231  13.123  0.00  0.00    +0.000 OA
ATOM     17  C   UNL     1       7.028   3.854  12.052  0.00  0.00    +0.000 C 
ENDBRANCH   6  16
BRANCH   9  18
ATOM     18  C   UNL     1       2.586   3.677  16.847  0.00  0.00    +0.000 C 
ATOM     19  C   UNL     1       2.651   2.318  17.527  0.00  0.00    +0.000 C 
ENDBRANCH   9  18
TORSDOF 5
ENDMDL
MODEL 5
REMARK VINA RESULT:      -5.5      3.668      7.569
REMARK  Name = 
REMARK  9 active torsions:
REMARK  status: ('A' for Active; 'I' for Inactive)
REMARK    1  A    between atoms: C_1  and  C_2
REMARK    2  A    between atoms: C_2  and  C_3
REMARK    3  A    between atoms: C_3  and  S_18
REMARK    4  A    between atoms: C_4  and  C_5
REMARK    5  A    between atoms: C_10  and  O_11
REMARK    6  A    between atoms: O_11  and  C_12
REMARK    7  A    between atoms: N_15  and  C_16
REMARK    8  A    between atoms: C_16  and  C_17
REMARK    9  A    between atoms: S_18  and  C_19
REMARK                            x       y       z     vdW  Elec       q    Type
REMARK                         _______ _______ _______ _____ _____    ______ ____
ROOT
ATOM      1  C   UNL     1       4.573   4.898  18.508  0.00  0.00    +0.000 A 
ATOM      2  S   UNL     1       6.085   5.688  18.309  0.00  0.00    +0.000 S 
ATOM      3  C   UNL     1       6.245   5.113  16.701  0.00  0.00    +0.000 A 
ATOM      4  C   UNL     1       7.232   5.442  15.762  0.00  0.00    +0.000 A 
ATOM      5  C   UNL     1       7.153   4.863  14.495  0.00  0.00    +0.000 A 
ATOM      6  C   UNL     1       6.146   3.952  14.189  0.00  0.00    +0.000 A 
ATOM      7  C   UNL     1       5.149   3.647  15.129  0.00  0.00    +0.000 A 
ATOM      8  C   UNL     1       5.200   4.241  16.404  0.00  0.00    +0.000 A 
ATOM      9  N   UNL     1       4.296   4.127  17.464  0.00  0.00    +0.000 N 
ENDROOT
BRANCH   1  11
ATOM     10  C   UNL     1       2.576   5.967  19.507  0.00  0.00    +0.000 C 
ATOM     11  C   UNL     1       3.726   5.264  19.582  0.00  0.00    +0.000 C 
BRANCH  10  13
ATOM     12  C   UNL     1       1.252   7.599  21.058  0.00  0.00    +0.000 C 
ATOM     13  C   UNL     1       1.693   6.171  20.737  0.00  0.00    +0.000 C 
ENDBRANCH  10  13
BRANCH  10  14
ATOM     14  S   UNL     1       2.083   6.708  17.991  0.00  0.00    +0.000 S 
ATOM     15  C   UNL     1       2.986   8.283  17.959  0.00  0.00    +0.000 C 
ENDBRANCH  10  14
ENDBRANCH   1  11
BRANCH   6  16
ATOM     16  O   UNL     1       6.014   3.320  12.981  0.00  0.00    +0.000 OA
ATOM     17  C   UNL     1       6.929   3.733  11.966  0.00  0.00    +0.000 C 
ENDBRANCH   6  16
BRANCH   9  18
ATOM     18  C   UNL     1       3.111   3.262  17.404  0.00  0.00    +0.000 C 
ATOM     19  C   UNL     1       3.346   1.901  18.040  0.00  0.00    +0.000 C 
ENDBRANCH   9  18
TORSDOF 5
ENDMDL
MODEL 6
REMARK VINA RESULT:      -5.4      2.220      4.307
REMARK  Name = 
REMARK  9 active torsions:
REMARK  status: ('A' for Active; 'I' for Inactive)
REMARK    1  A    between atoms: C_1  and  C_2
REMARK    2  A    between atoms: C_2  and  C_3
REMARK    3  A    between atoms: C_3  and  S_18
REMARK    4  A    between atoms: C_4  and  C_5
REMARK    5  A    between atoms: C_10  and  O_11
REMARK    6  A    between atoms: O_11  and  C_12
REMARK    7  A    between atoms: N_15  and  C_16
REMARK    8  A    between atoms: C_16  and  C_17
REMARK    9  A    between atoms: S_18  and  C_19
REMARK                            x       y       z     vdW  Elec       q    Type
REMARK                         _______ _______ _______ _____ _____    ______ ____
ROOT
ATOM      1  C   UNL     1       4.288   4.649  17.019  0.00  0.00    +0.000 A 
ATOM      2  S   UNL     1       3.710   3.194  17.726  0.00  0.00    +0.000 S 
ATOM      3  C   UNL     1       2.775   4.052  18.880  0.00  0.00    +0.000 A 
ATOM      4  C   UNL     1       1.864   3.532  19.808  0.00  0.00    +0.000 A 
ATOM      5  C   UNL     1       1.195   4.427  20.644  0.00  0.00    +0.000 A 
ATOM      6  C   UNL     1       1.459   5.792  20.586  0.00  0.00    +0.000 A 
ATOM      7  C   UNL     1       2.357   6.305  19.635  0.00  0.00    +0.000 A 
ATOM      8  C   UNL     1       3.022   5.419  18.768  0.00  0.00    +0.000 A 
ATOM      9  N   UNL     1       3.905   5.707  17.724  0.00  0.00    +0.000 N 
ENDROOT
BRANCH   1  11
ATOM     10  C   UNL     1       6.215   4.514  15.470  0.00  0.00    +0.000 C 
ATOM     11  C   UNL     1       4.896   4.616  15.741  0.00  0.00    +0.000 C 
BRANCH  10  13
ATOM     12  C   UNL     1       5.825   3.583  13.062  0.00  0.00    +0.000 C 
ATOM     13  C   UNL     1       6.716   4.353  14.036  0.00  0.00    +0.000 C 
ENDBRANCH  10  13
BRANCH  10  14
ATOM     14  S   UNL     1       7.398   4.609  16.766  0.00  0.00    +0.000 S 
ATOM     15  C   UNL     1       7.497   6.383  17.142  0.00  0.00    +0.000 C 
ENDBRANCH  10  14
ENDBRANCH   1  11
BRANCH   6  16
ATOM     16  O   UNL     1       0.868   6.731  21.387  0.00  0.00    +0.000 OA
ATOM     17  C   UNL     1       1.211   8.089  21.101  0.00  0.00    +0.000 C 
ENDBRANCH   6  16
BRANCH   9  18
ATOM     18  C   UNL     1       4.332   7.075  17.403  0.00  0.00    +0.000 C 
ATOM     19  C   UNL     1       3.178   8.065  17.412  0.00  0.00    +0.000 C 
ENDBRANCH   9  18
TORSDOF 5
ENDMDL
MODEL 7
REMARK VINA RESULT:      -5.4      4.665      7.567
REMARK  Name = 
REMARK  9 active torsions:
REMARK  status: ('A' for Active; 'I' for Inactive)
REMARK    1  A    between atoms: C_1  and  C_2
REMARK    2  A    between atoms: C_2  and  C_3
REMARK    3  A    between atoms: C_3  and  S_18
REMARK    4  A    between atoms: C_4  and  C_5
REMARK    5  A    between atoms: C_10  and  O_11
REMARK    6  A    between atoms: O_11  and  C_12
REMARK    7  A    between atoms: N_15  and  C_16
REMARK    8  A    between atoms: C_16  and  C_17
REMARK    9  A    between atoms: S_18  and  C_19
REMARK                            x       y       z     vdW  Elec       q    Type
REMARK                         _______ _______ _______ _____ _____    ______ ____
ROOT
ATOM      1  C   UNL     1       4.914   3.995  18.723  0.00  0.00    +0.000 A 
ATOM      2  S   UNL     1       6.257   5.059  18.594  0.00  0.00    +0.000 S 
ATOM      3  C   UNL     1       6.391   4.785  16.906  0.00  0.00    +0.000 A 
ATOM      4  C   UNL     1       7.238   5.427  15.993  0.00  0.00    +0.000 A 
ATOM      5  C   UNL     1       7.164   5.053  14.651  0.00  0.00    +0.000 A 
ATOM      6  C   UNL     1       6.303   4.041  14.240  0.00  0.00    +0.000 A 
ATOM      7  C   UNL     1       5.441   3.419  15.158  0.00  0.00    +0.000 A 
ATOM      8  C   UNL     1       5.486   3.802  16.512  0.00  0.00    +0.000 A 
ATOM      9  N   UNL     1       4.694   3.363  17.576  0.00  0.00    +0.000 N 
ENDROOT
BRANCH   1  11
ATOM     10  C   UNL     1       2.938   4.701  20.036  0.00  0.00    +0.000 C 
ATOM     11  C   UNL     1       4.099   4.030  19.880  0.00  0.00    +0.000 C 
BRANCH  10  13
ATOM     12  C   UNL     1       1.664   3.119  21.678  0.00  0.00    +0.000 C 
ATOM     13  C   UNL     1       2.095   4.536  21.300  0.00  0.00    +0.000 C 
ENDBRANCH  10  13
BRANCH  10  14
ATOM     14  S   UNL     1       2.384   5.821  18.800  0.00  0.00    +0.000 S 
ATOM     15  C   UNL     1       1.353   4.797  17.711  0.00  0.00    +0.000 C 
ENDBRANCH  10  14
ENDBRANCH   1  11
BRANCH   6  16
ATOM     16  O   UNL     1       6.188   3.596  12.950  0.00  0.00    +0.000 OA
ATOM     17  C   UNL     1       7.119   4.155  12.021  0.00  0.00    +0.000 C 
ENDBRANCH   6  16
BRANCH   9  18
ATOM     18  C   UNL     1       3.667   2.326  17.423  0.00  0.00    +0.000 C 
ATOM     19  C   UNL     1       3.799   1.214  18.453  0.00  0.00    +0.000 C 
ENDBRANCH   9  18
TORSDOF 5
ENDMDL
MODEL 8
REMARK VINA RESULT:      -5.3      2.594      6.294
REMARK  Name = 
REMARK  9 active torsions:
REMARK  status: ('A' for Active; 'I' for Inactive)
REMARK    1  A    between atoms: C_1  and  C_2
REMARK    2  A    between atoms: C_2  and  C_3
REMARK    3  A    between atoms: C_3  and  S_18
REMARK    4  A    between atoms: C_4  and  C_5
REMARK    5  A    between atoms: C_10  and  O_11
REMARK    6  A    between atoms: O_11  and  C_12
REMARK    7  A    between atoms: N_15  and  C_16
REMARK    8  A    between atoms: C_16  and  C_17
REMARK    9  A    between atoms: S_18  and  C_19
REMARK                            x       y       z     vdW  Elec       q    Type
REMARK                         _______ _______ _______ _____ _____    ______ ____
ROOT
ATOM      1  C   UNL     1       1.311   9.797  19.307  0.00  0.00    +0.000 A 
ATOM      2  S   UNL     1       2.040   9.165  17.885  0.00  0.00    +0.000 S 
ATOM      3  C   UNL     1       2.216   7.612  18.591  0.00  0.00    +0.000 A 
ATOM      4  C   UNL     1       2.658   6.432  17.977  0.00  0.00    +0.000 A 
ATOM      5  C   UNL     1       2.704   5.269  18.746  0.00  0.00    +0.000 A 
ATOM      6  C   UNL     1       2.363   5.292  20.095  0.00  0.00    +0.000 A 
ATOM      7  C   UNL     1       1.899   6.474  20.694  0.00  0.00    +0.000 A 
ATOM      8  C   UNL     1       1.823   7.651  19.927  0.00  0.00    +0.000 A 
ATOM      9  N   UNL     1       1.348   8.912  20.296  0.00  0.00    +0.000 N 
ENDROOT
BRANCH   1  11
ATOM     10  C   UNL     1      -0.641  11.226  18.783  0.00  0.00    +0.000 C 
ATOM     11  C   UNL     1       0.609  11.025  19.250  0.00  0.00    +0.000 C 
BRANCH  10  13
ATOM     12  C   UNL     1      -2.276  12.790  20.088  0.00  0.00    +0.000 C 
ATOM     13  C   UNL     1      -1.322  12.588  18.910  0.00  0.00    +0.000 C 
ENDBRANCH  10  13
BRANCH  10  14
ATOM     14  S   UNL     1      -1.508   9.929  17.973  0.00  0.00    +0.000 S 
ATOM     15  C   UNL     1      -2.455  10.777  16.677  0.00  0.00    +0.000 C 
ENDBRANCH  10  14
ENDBRANCH   1  11
BRANCH   6  16
ATOM     16  O   UNL     1       2.407   4.203  20.924  0.00  0.00    +0.000 OA
ATOM     17  C   UNL     1       1.269   3.341  20.870  0.00  0.00    +0.000 C 
ENDBRANCH   6  16
BRANCH   9  18
ATOM     18  C   UNL     1       0.879   9.215  21.653  0.00  0.00    +0.000 C 
ATOM     19  C   UNL     1      -0.553   8.762  21.893  0.00  0.00    +0.000 C 
ENDBRANCH   9  18
TORSDOF 5
ENDMDL
MODEL 9
REMARK VINA RESULT:      -5.3      2.745      6.844
REMARK  Name = 
REMARK  9 active torsions:
REMARK  status: ('A' for Active; 'I' for Inactive)
REMARK    1  A    between atoms: C_1  and  C_2
REMARK    2  A    between atoms: C_2  and  C_3
REMARK    3  A    between atoms: C_3  and  S_18
REMARK    4  A    between atoms: C_4  and  C_5
REMARK    5  A    between atoms: C_10  and  O_11
REMARK    6  A    between atoms: O_11  and  C_12
REMARK    7  A    between atoms: N_15  and  C_16
REMARK    8  A    between atoms: C_16  and  C_17
REMARK    9  A    between atoms: S_18  and  C_19
REMARK                            x       y       z     vdW  Elec       q    Type
REMARK                         _______ _______ _______ _____ _____    ______ ____
ROOT
ATOM      1  C   UNL     1       0.866   9.747  19.241  0.00  0.00    +0.000 A 
ATOM      2  S   UNL     1       1.923   9.695  17.887  0.00  0.00    +0.000 S 
ATOM      3  C   UNL     1       2.503   8.140  18.320  0.00  0.00    +0.000 A 
ATOM      4  C   UNL     1       3.369   7.312  17.594  0.00  0.00    +0.000 A 
ATOM      5  C   UNL     1       3.695   6.067  18.135  0.00  0.00    +0.000 A 
ATOM      6  C   UNL     1       3.207   5.681  19.379  0.00  0.00    +0.000 A 
ATOM      7  C   UNL     1       2.321   6.509  20.088  0.00  0.00    +0.000 A 
ATOM      8  C   UNL     1       1.963   7.757  19.545  0.00  0.00    +0.000 A 
ATOM      9  N   UNL     1       1.067   8.708  20.043  0.00  0.00    +0.000 N 
ENDROOT
BRANCH   1  11
ATOM     10  C   UNL     1      -0.106  11.971  19.725  0.00  0.00    +0.000 C 
ATOM     11  C   UNL     1      -0.180  10.699  19.280  0.00  0.00    +0.000 C 
BRANCH  10  13
ATOM     12  C   UNL     1      -2.587  12.556  20.293  0.00  0.00    +0.000 C 
ATOM     13  C   UNL     1      -1.287  12.929  19.579  0.00  0.00    +0.000 C 
ENDBRANCH  10  13
BRANCH  10  14
ATOM     14  S   UNL     1       1.347  12.549  20.528  0.00  0.00    +0.000 S 
ATOM     15  C   UNL     1       2.097  13.678  19.318  0.00  0.00    +0.000 C 
ENDBRANCH  10  14
ENDBRANCH   1  11
BRANCH   6  16
ATOM     16  O   UNL     1       3.499   4.491  19.992  0.00  0.00    +0.000 OA
ATOM     17  C   UNL     1       4.417   3.648  19.293  0.00  0.00    +0.000 C 
ENDBRANCH   6  16
BRANCH   9  18
ATOM     18  C   UNL     1       0.369   8.542  21.323  0.00  0.00    +0.000 C 
ATOM     19  C   UNL     1       1.092   9.219  22.477  0.00  0.00    +0.000 C 
ENDBRANCH   9  18
TORSDOF 5
ENDMDL
