MODEL 1
REMARK VINA RESULT:      -8.2      0.000      0.000
REMARK  Name = 
REMARK  4 active torsions:
REMARK  status: ('A' for Active; 'I' for Inactive)
REMARK    1  A    between atoms: N_5  and  N_6
REMARK    2  A    between atoms: C_7  and  C_8
REMARK    3  A    between atoms: C_14  and  C_15
REMARK    4  A    between atoms: C_15  and  C_16
REMARK                            x       y       z     vdW  Elec       q    Type
REMARK                         _______ _______ _______ _____ _____    ______ ____
ROOT
ATOM      1  O   UNL     1       6.896   5.205  14.844  0.00  0.00    +0.000 OA
ATOM      2  C   UNL     1       7.036   5.517  16.022  0.00  0.00    +0.000 C 
ATOM      3  N   UNL     1       7.493   6.751  16.420  0.00  0.00    +0.000 NA
ATOM      4  C   UNL     1       7.535   6.896  17.699  0.00  0.00    +0.000 C 
ATOM      5  N   UNL     1       7.949   7.992  18.415  0.00  0.00    +0.000 N 
ATOM      6  S   UNL     1       7.056   5.530  18.663  0.00  0.00    +0.000 S 
ATOM      7  C   UNL     1       6.716   4.555  17.156  0.00  0.00    +0.000 C 
ATOM      8  H   UNL     1       7.592   8.038  19.368  0.00  0.00    +0.000 HD
ENDROOT
BRANCH   5   9
ATOM      9  N   UNL     1       8.528   9.137  17.939  0.00  0.00    +0.000 NA
ATOM     10  C   UNL     1       8.920   9.968  18.857  0.00  0.00    +0.000 C 
BRANCH  10  11
ATOM     11  C   UNL     1       9.554  11.216  18.519  0.00  0.00    +0.000 A 
ATOM     12  C   UNL     1       9.077  12.267  17.769  0.00  0.00    +0.000 A 
ATOM     13  C   UNL     1      10.027  13.325  17.668  0.00  0.00    +0.000 A 
ATOM     14  C   UNL     1      11.190  13.044  18.345  0.00  0.00    +0.000 A 
ATOM     15  S   UNL     1      11.136  11.514  19.103  0.00  0.00    +0.000 S 
ENDBRANCH  10  11
ENDBRANCH   5   9
BRANCH   7  16
ATOM     16  C   UNL     1       5.258   4.100  17.061  0.00  0.00    +0.000 C 
BRANCH  16  17
ATOM     17  C   UNL     1       4.310   4.890  17.943  0.00  0.00    +0.000 A 
ATOM     18  C   UNL     1       3.876   6.153  17.499  0.00  0.00    +0.000 A 
ATOM     19  C   UNL     1       3.057   6.952  18.297  0.00  0.00    +0.000 A 
ATOM     20  C   UNL     1       2.637   6.485  19.538  0.00  0.00    +0.000 A 
ATOM     21 CL   UNL     1       1.625   7.470  20.519  0.00  0.00    +0.000 Cl
ATOM     22  C   UNL     1       3.035   5.230  19.990  0.00  0.00    +0.000 A 
ATOM     23  C   UNL     1       3.877   4.440  19.201  0.00  0.00    +0.000 A 
ATOM     24 CL   UNL     1       4.362   2.909  19.837  0.00  0.00    +0.000 Cl
ENDBRANCH  16  17
ENDBRANCH   7  16
TORSDOF 4
ENDMDL
MODEL 2
REMARK VINA RESULT:      -8.1      1.338      2.074
REMARK  Name = 
REMARK  4 active torsions:
REMARK  status: ('A' for Active; 'I' for Inactive)
REMARK    1  A    between atoms: N_5  and  N_6
REMARK    2  A    between atoms: C_7  and  C_8
REMARK    3  A    between atoms: C_14  and  C_15
REMARK    4  A    between atoms: C_15  and  C_16
REMARK                            x       y       z     vdW  Elec       q    Type
REMARK                         _______ _______ _______ _____ _____    ______ ____
ROOT
ATOM      1  O   UNL     1       6.773   5.354  14.758  0.00  0.00    +0.000 OA
ATOM      2  C   UNL     1       6.835   5.598  15.958  0.00  0.00    +0.000 C 
ATOM      3  N   UNL     1       7.476   6.703  16.465  0.00  0.00    +0.000 NA
ATOM      4  C   UNL     1       7.399   6.800  17.747  0.00  0.00    +0.000 C 
ATOM      5  N   UNL     1       7.935   7.770  18.558  0.00  0.00    +0.000 N 
ATOM      6  S   UNL     1       6.554   5.531  18.583  0.00  0.00    +0.000 S 
ATOM      7  C   UNL     1       6.205   4.688  17.002  0.00  0.00    +0.000 C 
ATOM      8  H   UNL     1       7.487   7.860  19.468  0.00  0.00    +0.000 HD
ENDROOT
BRANCH   5   9
ATOM      9  N   UNL     1       8.777   8.790  18.205  0.00  0.00    +0.000 NA
ATOM     10  C   UNL     1       8.908   9.720  19.102  0.00  0.00    +0.000 C 
BRANCH  10  11
ATOM     11  C   UNL     1       9.764  10.857  18.885  0.00  0.00    +0.000 A 
ATOM     12  C   UNL     1      10.229  11.392  17.704  0.00  0.00    +0.000 A 
ATOM     13  C   UNL     1      11.062  12.527  17.925  0.00  0.00    +0.000 A 
ATOM     14  C   UNL     1      11.200  12.818  19.262  0.00  0.00    +0.000 A 
ATOM     15  S   UNL     1      10.325  11.730  20.247  0.00  0.00    +0.000 S 
ENDBRANCH  10  11
ENDBRANCH   5   9
BRANCH   7  16
ATOM     16  C   UNL     1       4.707   4.537  16.729  0.00  0.00    +0.000 C 
BRANCH  16  17
ATOM     17  C   UNL     1       3.896   4.158  17.953  0.00  0.00    +0.000 A 
ATOM     18  C   UNL     1       3.992   2.842  18.441  0.00  0.00    +0.000 A 
ATOM     19  C   UNL     1       3.220   2.419  19.523  0.00  0.00    +0.000 A 
ATOM     20  C   UNL     1       2.363   3.317  20.150  0.00  0.00    +0.000 A 
ATOM     21 CL   UNL     1       1.414   2.795  21.486  0.00  0.00    +0.000 Cl
ATOM     22  C   UNL     1       2.266   4.631  19.701  0.00  0.00    +0.000 A 
ATOM     23  C   UNL     1       3.021   5.047  18.600  0.00  0.00    +0.000 A 
ATOM     24 CL   UNL     1       2.826   6.680  18.070  0.00  0.00    +0.000 Cl
ENDBRANCH  16  17
ENDBRANCH   7  16
TORSDOF 4
ENDMDL
MODEL 3
REMARK VINA RESULT:      -7.8      1.327      1.793
REMARK  Name = 
REMARK  4 active torsions:
REMARK  status: ('A' for Active; 'I' for Inactive)
REMARK    1  A    between atoms: N_5  and  N_6
REMARK    2  A    between atoms: C_7  and  C_8
REMARK    3  A    between atoms: C_14  and  C_15
REMARK    4  A    between atoms: C_15  and  C_16
REMARK                            x       y       z     vdW  Elec       q    Type
REMARK                         _______ _______ _______ _____ _____    ______ ____
ROOT
ATOM      1  O   UNL     1       7.385   5.129  14.859  0.00  0.00    +0.000 OA
ATOM      2  C   UNL     1       7.383   5.504  16.026  0.00  0.00    +0.000 C 
ATOM      3  N   UNL     1       7.735   6.779  16.402  0.00  0.00    +0.000 NA
ATOM      4  C   UNL     1       7.634   6.988  17.670  0.00  0.00    +0.000 C 
ATOM      5  N   UNL     1       7.917   8.137  18.364  0.00  0.00    +0.000 N 
ATOM      6  S   UNL     1       7.119   5.647  18.650  0.00  0.00    +0.000 S 
ATOM      7  C   UNL     1       6.988   4.584  17.171  0.00  0.00    +0.000 C 
ATOM      8  H   UNL     1       7.458   8.212  19.271  0.00  0.00    +0.000 HD
ENDROOT
BRANCH   5   9
ATOM      9  N   UNL     1       8.488   9.287  17.890  0.00  0.00    +0.000 NA
ATOM     10  C   UNL     1       9.081  10.010  18.793  0.00  0.00    +0.000 C 
BRANCH  10  11
ATOM     11  C   UNL     1       9.736  11.247  18.453  0.00  0.00    +0.000 A 
ATOM     12  C   UNL     1      11.072  11.576  18.513  0.00  0.00    +0.000 A 
ATOM     13  C   UNL     1      11.310  12.915  18.087  0.00  0.00    +0.000 A 
ATOM     14  C   UNL     1      10.152  13.555  17.714  0.00  0.00    +0.000 A 
ATOM     15  S   UNL     1       8.783  12.545  17.874  0.00  0.00    +0.000 S 
ENDBRANCH  10  11
ENDBRANCH   5   9
BRANCH   7  16
ATOM     16  C   UNL     1       5.572   4.049  16.949  0.00  0.00    +0.000 C 
BRANCH  16  17
ATOM     17  C   UNL     1       4.556   4.570  17.947  0.00  0.00    +0.000 A 
ATOM     18  C   UNL     1       4.208   3.753  19.038  0.00  0.00    +0.000 A 
ATOM     19  C   UNL     1       3.232   4.152  19.951  0.00  0.00    +0.000 A 
ATOM     20  C   UNL     1       2.612   5.388  19.800  0.00  0.00    +0.000 A 
ATOM     21 CL   UNL     1       1.411   5.879  20.928  0.00  0.00    +0.000 Cl
ATOM     22  C   UNL     1       2.954   6.224  18.742  0.00  0.00    +0.000 A 
ATOM     23  C   UNL     1       3.914   5.812  17.812  0.00  0.00    +0.000 A 
ATOM     24 CL   UNL     1       4.266   6.881  16.502  0.00  0.00    +0.000 Cl
ENDBRANCH  16  17
ENDBRANCH   7  16
TORSDOF 4
ENDMDL
MODEL 4
REMARK VINA RESULT:      -7.6      5.247      7.493
REMARK  Name = 
REMARK  4 active torsions:
REMARK  status: ('A' for Active; 'I' for Inactive)
REMARK    1  A    between atoms: N_5  and  N_6
REMARK    2  A    between atoms: C_7  and  C_8
REMARK    3  A    between atoms: C_14  and  C_15
REMARK    4  A    between atoms: C_15  and  C_16
REMARK                            x       y       z     vdW  Elec       q    Type
REMARK                         _______ _______ _______ _____ _____    ______ ____
ROOT
ATOM      1  O   UNL     1       3.302   3.203  20.354  0.00  0.00    +0.000 OA
ATOM      2  C   UNL     1       3.202   4.229  19.689  0.00  0.00    +0.000 C 
ATOM      3  N   UNL     1       2.643   5.386  20.178  0.00  0.00    +0.000 NA
ATOM      4  C   UNL     1       2.663   6.362  19.338  0.00  0.00    +0.000 C 
ATOM      5  N   UNL     1       2.180   7.636  19.507  0.00  0.00    +0.000 N 
ATOM      6  S   UNL     1       3.341   6.038  17.770  0.00  0.00    +0.000 S 
ATOM      7  C   UNL     1       3.690   4.311  18.251  0.00  0.00    +0.000 C 
ATOM      8  H   UNL     1       2.587   8.333  18.885  0.00  0.00    +0.000 HD
ENDROOT
BRANCH   5   9
ATOM      9  N   UNL     1       1.456   8.128  20.559  0.00  0.00    +0.000 NA
ATOM     10  C   UNL     1       0.959   9.313  20.368  0.00  0.00    +0.000 C 
BRANCH  10  11
ATOM     11  C   UNL     1       0.167   9.966  21.378  0.00  0.00    +0.000 A 
ATOM     12  C   UNL     1      -0.276   9.488  22.591  0.00  0.00    +0.000 A 
ATOM     13  C   UNL     1      -1.042  10.458  23.299  0.00  0.00    +0.000 A 
ATOM     14  C   UNL     1      -1.154  11.640  22.605  0.00  0.00    +0.000 A 
ATOM     15  S   UNL     1      -0.334  11.580  21.106  0.00  0.00    +0.000 S 
ENDBRANCH  10  11
ENDBRANCH   5   9
BRANCH   7  16
ATOM     16  C   UNL     1       5.180   3.966  18.183  0.00  0.00    +0.000 C 
BRANCH  16  17
ATOM     17  C   UNL     1       5.834   4.334  16.865  0.00  0.00    +0.000 A 
ATOM     18  C   UNL     1       5.364   3.722  15.689  0.00  0.00    +0.000 A 
ATOM     19  C   UNL     1       5.971   3.972  14.458  0.00  0.00    +0.000 A 
ATOM     20  C   UNL     1       7.038   4.861  14.384  0.00  0.00    +0.000 A 
ATOM     21 CL   UNL     1       7.783   5.170  12.865  0.00  0.00    +0.000 Cl
ATOM     22  C   UNL     1       7.508   5.496  15.530  0.00  0.00    +0.000 A 
ATOM     23  C   UNL     1       6.916   5.225  16.768  0.00  0.00    +0.000 A 
ATOM     24 CL   UNL     1       7.570   6.019  18.155  0.00  0.00    +0.000 Cl
ENDBRANCH  16  17
ENDBRANCH   7  16
TORSDOF 4
ENDMDL
MODEL 5
REMARK VINA RESULT:      -7.3      5.405      7.678
REMARK  Name = 
REMARK  4 active torsions:
REMARK  status: ('A' for Active; 'I' for Inactive)
REMARK    1  A    between atoms: N_5  and  N_6
REMARK    2  A    between atoms: C_7  and  C_8
REMARK    3  A    between atoms: C_14  and  C_15
REMARK    4  A    between atoms: C_15  and  C_16
REMARK                            x       y       z     vdW  Elec       q    Type
REMARK                         _______ _______ _______ _____ _____    ______ ____
ROOT
ATOM      1  O   UNL     1       2.116   3.975  21.212  0.00  0.00    +0.000 OA
ATOM      2  C   UNL     1       2.220   4.924  20.443  0.00  0.00    +0.000 C 
ATOM      3  N   UNL     1       1.831   6.201  20.773  0.00  0.00    +0.000 NA
ATOM      4  C   UNL     1       2.055   7.064  19.843  0.00  0.00    +0.000 C 
ATOM      5  N   UNL     1       1.778   8.408  19.850  0.00  0.00    +0.000 N 
ATOM      6  S   UNL     1       2.754   6.467  18.367  0.00  0.00    +0.000 S 
ATOM      7  C   UNL     1       2.791   4.770  19.041  0.00  0.00    +0.000 C 
ATOM      8  H   UNL     1       2.326   8.960  19.192  0.00  0.00    +0.000 HD
ENDROOT
BRANCH   5   9
ATOM      9  N   UNL     1       1.088   9.120  20.794  0.00  0.00    +0.000 NA
ATOM     10  C   UNL     1       0.198   9.936  20.315  0.00  0.00    +0.000 C 
BRANCH  10  11
ATOM     11  C   UNL     1      -0.615  10.751  21.180  0.00  0.00    +0.000 A 
ATOM     12  C   UNL     1      -1.378  11.858  20.880  0.00  0.00    +0.000 A 
ATOM     13  C   UNL     1      -2.034  12.381  22.032  0.00  0.00    +0.000 A 
ATOM     14  C   UNL     1      -1.752  11.654  23.165  0.00  0.00    +0.000 A 
ATOM     15  S   UNL     1      -0.704  10.345  22.840  0.00  0.00    +0.000 S 
ENDBRANCH  10  11
ENDBRANCH   5   9
BRANCH   7  16
ATOM     16  C   UNL     1       4.205   4.191  19.113  0.00  0.00    +0.000 C 
BRANCH  16  17
ATOM     17  C   UNL     1       5.033   4.438  17.865  0.00  0.00    +0.000 A 
ATOM     18  C   UNL     1       4.522   4.009  16.627  0.00  0.00    +0.000 A 
ATOM     19  C   UNL     1       5.267   4.150  15.456  0.00  0.00    +0.000 A 
ATOM     20  C   UNL     1       6.521   4.750  15.505  0.00  0.00    +0.000 A 
ATOM     21 CL   UNL     1       7.437   4.925  14.060  0.00  0.00    +0.000 Cl
ATOM     22  C   UNL     1       7.039   5.202  16.715  0.00  0.00    +0.000 A 
ATOM     23  C   UNL     1       6.303   5.037  17.892  0.00  0.00    +0.000 A 
ATOM     24 CL   UNL     1       7.018   5.588  19.365  0.00  0.00    +0.000 Cl
ENDBRANCH  16  17
ENDBRANCH   7  16
TORSDOF 4
ENDMDL
MODEL 6
REMARK VINA RESULT:      -7.2      1.546      1.861
REMARK  Name = 
REMARK  4 active torsions:
REMARK  status: ('A' for Active; 'I' for Inactive)
REMARK    1  A    between atoms: N_5  and  N_6
REMARK    2  A    between atoms: C_7  and  C_8
REMARK    3  A    between atoms: C_14  and  C_15
REMARK    4  A    between atoms: C_15  and  C_16
REMARK                            x       y       z     vdW  Elec       q    Type
REMARK                         _______ _______ _______ _____ _____    ______ ____
ROOT
ATOM      1  O   UNL     1       6.757   5.174  14.755  0.00  0.00    +0.000 OA
ATOM      2  C   UNL     1       6.777   5.501  15.937  0.00  0.00    +0.000 C 
ATOM      3  N   UNL     1       7.452   6.608  16.395  0.00  0.00    +0.000 NA
ATOM      4  C   UNL     1       7.322   6.801  17.662  0.00  0.00    +0.000 C 
ATOM      5  N   UNL     1       7.871   7.800  18.428  0.00  0.00    +0.000 N 
ATOM      6  S   UNL     1       6.374   5.640  18.543  0.00  0.00    +0.000 S 
ATOM      7  C   UNL     1       6.053   4.702  17.009  0.00  0.00    +0.000 C 
ATOM      8  H   UNL     1       7.387   7.978  19.307  0.00  0.00    +0.000 HD
ENDROOT
BRANCH   5   9
ATOM      9  N   UNL     1       8.781   8.748  18.046  0.00  0.00    +0.000 NA
ATOM     10  C   UNL     1       8.452   9.968  18.348  0.00  0.00    +0.000 C 
BRANCH  10  11
ATOM     11  C   UNL     1       9.307  11.079  18.020  0.00  0.00    +0.000 A 
ATOM     12  C   UNL     1      10.675  11.116  17.861  0.00  0.00    +0.000 A 
ATOM     13  C   UNL     1      11.139  12.424  17.538  0.00  0.00    +0.000 A 
ATOM     14  C   UNL     1      10.111  13.335  17.460  0.00  0.00    +0.000 A 
ATOM     15  S   UNL     1       8.593  12.614  17.769  0.00  0.00    +0.000 S 
ENDBRANCH  10  11
ENDBRANCH   5   9
BRANCH   7  16
ATOM     16  C   UNL     1       4.563   4.606  16.674  0.00  0.00    +0.000 C 
BRANCH  16  17
ATOM     17  C   UNL     1       3.696   4.185  17.846  0.00  0.00    +0.000 A 
ATOM     18  C   UNL     1       3.050   5.184  18.595  0.00  0.00    +0.000 A 
ATOM     19  C   UNL     1       2.294   4.861  19.722  0.00  0.00    +0.000 A 
ATOM     20  C   UNL     1       2.152   3.530  20.096  0.00  0.00    +0.000 A 
ATOM     21 CL   UNL     1       1.217   3.132  21.485  0.00  0.00    +0.000 Cl
ATOM     22  C   UNL     1       2.763   2.520  19.359  0.00  0.00    +0.000 A 
ATOM     23  C   UNL     1       3.541   2.847  18.244  0.00  0.00    +0.000 A 
ATOM     24 CL   UNL     1       4.302   1.550  17.394  0.00  0.00    +0.000 Cl
ENDBRANCH  16  17
ENDBRANCH   7  16
TORSDOF 4
ENDMDL
MODEL 7
REMARK VINA RESULT:      -7.1      5.342      7.562
REMARK  Name = 
REMARK  4 active torsions:
REMARK  status: ('A' for Active; 'I' for Inactive)
REMARK    1  A    between atoms: N_5  and  N_6
REMARK    2  A    between atoms: C_7  and  C_8
REMARK    3  A    between atoms: C_14  and  C_15
REMARK    4  A    between atoms: C_15  and  C_16
REMARK                            x       y       z     vdW  Elec       q    Type
REMARK                         _______ _______ _______ _____ _____    ______ ____
ROOT
ATOM      1  O   UNL     1       2.528   4.191  20.928  0.00  0.00    +0.000 OA
ATOM      2  C   UNL     1       2.518   5.178  20.200  0.00  0.00    +0.000 C 
ATOM      3  N   UNL     1       1.969   6.380  20.576  0.00  0.00    +0.000 NA
ATOM      4  C   UNL     1       2.090   7.303  19.686  0.00  0.00    +0.000 C 
ATOM      5  N   UNL     1       1.645   8.600  19.743  0.00  0.00    +0.000 N 
ATOM      6  S   UNL     1       2.873   6.862  18.197  0.00  0.00    +0.000 S 
ATOM      7  C   UNL     1       3.118   5.157  18.802  0.00  0.00    +0.000 C 
ATOM      8  H   UNL     1       2.125   9.244  19.116  0.00  0.00    +0.000 HD
ENDROOT
BRANCH   5   9
ATOM      9  N   UNL     1       0.862   9.179  20.705  0.00  0.00    +0.000 NA
ATOM     10  C   UNL     1       0.697  10.461  20.571  0.00  0.00    +0.000 C 
BRANCH  10  11
ATOM     11  C   UNL     1      -0.106  11.215  21.499  0.00  0.00    +0.000 A 
ATOM     12  C   UNL     1      -0.940  10.770  22.501  0.00  0.00    +0.000 A 
ATOM     13  C   UNL     1      -1.559  11.848  23.196  0.00  0.00    +0.000 A 
ATOM     14  C   UNL     1      -1.174  13.073  22.704  0.00  0.00    +0.000 A 
ATOM     15  S   UNL     1      -0.067  12.924  21.411  0.00  0.00    +0.000 S 
ENDBRANCH  10  11
ENDBRANCH   5   9
BRANCH   7  16
ATOM     16  C   UNL     1       4.594   4.758  18.871  0.00  0.00    +0.000 C 
BRANCH  16  17
ATOM     17  C   UNL     1       5.318   4.855  17.542  0.00  0.00    +0.000 A 
ATOM     18  C   UNL     1       4.699   4.312  16.401  0.00  0.00    +0.000 A 
ATOM     19  C   UNL     1       5.346   4.313  15.165  0.00  0.00    +0.000 A 
ATOM     20  C   UNL     1       6.608   4.885  15.049  0.00  0.00    +0.000 A 
ATOM     21 CL   UNL     1       7.403   4.888  13.524  0.00  0.00    +0.000 Cl
ATOM     22  C   UNL     1       7.232   5.448  16.158  0.00  0.00    +0.000 A 
ATOM     23  C   UNL     1       6.594   5.423  17.402  0.00  0.00    +0.000 A 
ATOM     24 CL   UNL     1       7.439   6.106  18.745  0.00  0.00    +0.000 Cl
ENDBRANCH  16  17
ENDBRANCH   7  16
TORSDOF 4
ENDMDL
MODEL 8
REMARK VINA RESULT:      -7.1      5.028      7.238
REMARK  Name = 
REMARK  4 active torsions:
REMARK  status: ('A' for Active; 'I' for Inactive)
REMARK    1  A    between atoms: N_5  and  N_6
REMARK    2  A    between atoms: C_7  and  C_8
REMARK    3  A    between atoms: C_14  and  C_15
REMARK    4  A    between atoms: C_15  and  C_16
REMARK                            x       y       z     vdW  Elec       q    Type
REMARK                         _______ _______ _______ _____ _____    ______ ____
ROOT
ATOM      1  O   UNL     1       3.070   2.863  20.783  0.00  0.00    +0.000 OA
ATOM      2  C   UNL     1       2.913   3.811  20.022  0.00  0.00    +0.000 C 
ATOM      3  N   UNL     1       2.463   5.041  20.441  0.00  0.00    +0.000 NA
ATOM      4  C   UNL     1       2.400   5.915  19.497  0.00  0.00    +0.000 C 
ATOM      5  N   UNL     1       1.986   7.221  19.578  0.00  0.00    +0.000 N 
ATOM      6  S   UNL     1       2.849   5.386  17.903  0.00  0.00    +0.000 S 
ATOM      7  C   UNL     1       3.204   3.709  18.533  0.00  0.00    +0.000 C 
ATOM      8  H   UNL     1       2.328   7.824  18.831  0.00  0.00    +0.000 HD
ENDROOT
BRANCH   5   9
ATOM      9  N   UNL     1       1.428   7.862  20.652  0.00  0.00    +0.000 NA
ATOM     10  C   UNL     1       0.797   8.959  20.360  0.00  0.00    +0.000 C 
BRANCH  10  11
ATOM     11  C   UNL     1       0.149   9.745  21.378  0.00  0.00    +0.000 A 
ATOM     12  C   UNL     1      -0.450   9.341  22.550  0.00  0.00    +0.000 A 
ATOM     13  C   UNL     1      -0.981  10.440  23.284  0.00  0.00    +0.000 A 
ATOM     14  C   UNL     1      -0.766  11.641  22.649  0.00  0.00    +0.000 A 
ATOM     15  S   UNL     1       0.076  11.444  21.176  0.00  0.00    +0.000 S 
ENDBRANCH  10  11
ENDBRANCH   5   9
BRANCH   7  16
ATOM     16  C   UNL     1       4.659   3.288  18.311  0.00  0.00    +0.000 C 
BRANCH  16  17
ATOM     17  C   UNL     1       5.605   4.450  18.078  0.00  0.00    +0.000 A 
ATOM     18  C   UNL     1       6.170   5.089  19.197  0.00  0.00    +0.000 A 
ATOM     19  C   UNL     1       6.995   6.204  19.047  0.00  0.00    +0.000 A 
ATOM     20  C   UNL     1       7.288   6.676  17.772  0.00  0.00    +0.000 A 
ATOM     21 CL   UNL     1       8.307   8.049  17.588  0.00  0.00    +0.000 Cl
ATOM     22  C   UNL     1       6.759   6.049  16.648  0.00  0.00    +0.000 A 
ATOM     23  C   UNL     1       5.912   4.947  16.800  0.00  0.00    +0.000 A 
ATOM     24 CL   UNL     1       5.260   4.237  15.367  0.00  0.00    +0.000 Cl
ENDBRANCH  16  17
ENDBRANCH   7  16
TORSDOF 4
ENDMDL
MODEL 9
REMARK VINA RESULT:      -6.9      5.726      8.090
REMARK  Name = 
REMARK  4 active torsions:
REMARK  status: ('A' for Active; 'I' for Inactive)
REMARK    1  A    between atoms: N_5  and  N_6
REMARK    2  A    between atoms: C_7  and  C_8
REMARK    3  A    between atoms: C_14  and  C_15
REMARK    4  A    between atoms: C_15  and  C_16
REMARK                            x       y       z     vdW  Elec       q    Type
REMARK                         _______ _______ _______ _____ _____    ______ ____
ROOT
ATOM      1  O   UNL     1       2.245   5.068  20.855  0.00  0.00    +0.000 OA
ATOM      2  C   UNL     1       2.165   6.085  20.175  0.00  0.00    +0.000 C 
ATOM      3  N   UNL     1       1.541   7.230  20.611  0.00  0.00    +0.000 NA
ATOM      4  C   UNL     1       1.595   8.200  19.766  0.00  0.00    +0.000 C 
ATOM      5  N   UNL     1       1.067   9.461  19.888  0.00  0.00    +0.000 N 
ATOM      6  S   UNL     1       2.393   7.883  18.254  0.00  0.00    +0.000 S 
ATOM      7  C   UNL     1       2.753   6.170  18.775  0.00  0.00    +0.000 C 
ATOM      8  H   UNL     1       1.499  10.164  19.290  0.00  0.00    +0.000 HD
ENDROOT
BRANCH   5   9
ATOM      9  N   UNL     1       0.256   9.941  20.881  0.00  0.00    +0.000 NA
ATOM     10  C   UNL     1      -0.406  11.014  20.569  0.00  0.00    +0.000 C 
BRANCH  10  11
ATOM     11  C   UNL     1      -1.307  11.638  21.503  0.00  0.00    +0.000 A 
ATOM     12  C   UNL     1      -1.372  11.517  22.873  0.00  0.00    +0.000 A 
ATOM     13  C   UNL     1      -2.421  12.306  23.428  0.00  0.00    +0.000 A 
ATOM     14  C   UNL     1      -3.114  13.001  22.465  0.00  0.00    +0.000 A 
ATOM     15  S   UNL     1      -2.500  12.707  20.898  0.00  0.00    +0.000 S 
ENDBRANCH  10  11
ENDBRANCH   5   9
BRANCH   7  16
ATOM     16  C   UNL     1       4.252   5.866  18.817  0.00  0.00    +0.000 C 
BRANCH  16  17
ATOM     17  C   UNL     1       4.800   5.301  17.520  0.00  0.00    +0.000 A 
ATOM     18  C   UNL     1       5.326   6.194  16.569  0.00  0.00    +0.000 A 
ATOM     19  C   UNL     1       5.783   5.739  15.332  0.00  0.00    +0.000 A 
ATOM     20  C   UNL     1       5.747   4.379  15.043  0.00  0.00    +0.000 A 
ATOM     21 CL   UNL     1       6.313   3.819  13.519  0.00  0.00    +0.000 Cl
ATOM     22  C   UNL     1       5.251   3.473  15.975  0.00  0.00    +0.000 A 
ATOM     23  C   UNL     1       4.769   3.933  17.205  0.00  0.00    +0.000 A 
ATOM     24 CL   UNL     1       4.134   2.759  18.302  0.00  0.00    +0.000 Cl
ENDBRANCH  16  17
ENDBRANCH   7  16
TORSDOF 4
ENDMDL
