MODEL 1
REMARK VINA RESULT:      -7.6      0.000      0.000
REMARK  Name = 
REMARK  3 active torsions:
REMARK  status: ('A' for Active; 'I' for Inactive)
REMARK    1  A    between atoms: C_4  and  C_5
REMARK    2  A    between atoms: C_7  and  C_8
REMARK    3  A    between atoms: C_8  and  N_9
REMARK                            x       y       z     vdW  Elec       q    Type
REMARK                         _______ _______ _______ _____ _____    ______ ____
ROOT
ATOM      1  C   UNL     1       6.800   5.143  15.599  0.00  0.00    +0.000 A 
ATOM      2  N   UNL     1       6.176   4.552  16.609  0.00  0.00    +0.000 NA
ATOM      3  C   UNL     1       6.506   5.299  17.719  0.00  0.00    +0.000 A 
ATOM      4  C   UNL     1       7.322   6.336  17.336  0.00  0.00    +0.000 A 
ATOM      5  O   UNL     1       7.518   6.251  15.988  0.00  0.00    +0.000 OA
ENDROOT
BRANCH   1   9
ATOM      6  C   UNL     1       6.022   3.410  12.397  0.00  0.00    +0.000 A 
ATOM      7  C   UNL     1       7.120   4.060  11.885  0.00  0.00    +0.000 A 
ATOM      8  S   UNL     1       7.861   5.080  13.045  0.00  0.00    +0.000 S 
ATOM      9  C   UNL     1       6.733   4.637  14.256  0.00  0.00    +0.000 A 
ATOM     10  C   UNL     1       5.799   3.744  13.764  0.00  0.00    +0.000 A 
ENDBRANCH   1   9
BRANCH   3  11
ATOM     11  C   UNL     1       6.003   4.912  19.075  0.00  0.00    +0.000 C 
BRANCH  11  12
ATOM     12  N   UNL     1       4.613   4.405  19.036  0.00  0.00    +0.000 NA
ATOM     13  C   UNL     1       4.521   3.051  19.607  0.00  0.00    +0.000 C 
ATOM     14  C   UNL     1       3.244   2.279  19.251  0.00  0.00    +0.000 C 
ATOM     15  C   UNL     1       2.779   2.466  17.803  0.00  0.00    +0.000 C 
ATOM     16  C   UNL     1       1.613   3.445  17.647  0.00  0.00    +0.000 C 
ATOM     17  C   UNL     1       1.922   4.918  17.928  0.00  0.00    +0.000 C 
ATOM     18  C   UNL     1       2.228   5.221  19.398  0.00  0.00    +0.000 C 
ATOM     19  C   UNL     1       3.724   5.369  19.706  0.00  0.00    +0.000 C 
ENDBRANCH  11  12
ENDBRANCH   3  11
TORSDOF 3
ENDMDL
MODEL 2
REMARK VINA RESULT:      -7.1      1.096      1.999
REMARK  Name = 
REMARK  3 active torsions:
REMARK  status: ('A' for Active; 'I' for Inactive)
REMARK    1  A    between atoms: C_4  and  C_5
REMARK    2  A    between atoms: C_7  and  C_8
REMARK    3  A    between atoms: C_8  and  N_9
REMARK                            x       y       z     vdW  Elec       q    Type
REMARK                         _______ _______ _______ _____ _____    ______ ____
ROOT
ATOM      1  C   UNL     1       6.710   4.646  15.842  0.00  0.00    +0.000 A 
ATOM      2  N   UNL     1       5.658   5.092  16.514  0.00  0.00    +0.000 NA
ATOM      3  C   UNL     1       6.081   5.179  17.823  0.00  0.00    +0.000 A 
ATOM      4  C   UNL     1       7.395   4.786  17.897  0.00  0.00    +0.000 A 
ATOM      5  O   UNL     1       7.811   4.443  16.644  0.00  0.00    +0.000 OA
ENDROOT
BRANCH   1   9
ATOM      6  C   UNL     1       5.992   3.489  12.377  0.00  0.00    +0.000 A 
ATOM      7  C   UNL     1       7.073   4.250  11.998  0.00  0.00    +0.000 A 
ATOM      8  S   UNL     1       7.781   5.066  13.326  0.00  0.00    +0.000 S 
ATOM      9  C   UNL     1       6.663   4.385  14.430  0.00  0.00    +0.000 A 
ATOM     10  C   UNL     1       5.756   3.568  13.780  0.00  0.00    +0.000 A 
ENDBRANCH   1   9
BRANCH   3  11
ATOM     11  C   UNL     1       5.141   5.626  18.899  0.00  0.00    +0.000 C 
BRANCH  11  12
ATOM     12  N   UNL     1       4.042   4.659  19.122  0.00  0.00    +0.000 NA
ATOM     13  C   UNL     1       3.009   4.775  18.079  0.00  0.00    +0.000 C 
ATOM     14  C   UNL     1       1.659   4.133  18.424  0.00  0.00    +0.000 C 
ATOM     15  C   UNL     1       1.219   4.337  19.878  0.00  0.00    +0.000 C 
ATOM     16  C   UNL     1       1.445   3.116  20.773  0.00  0.00    +0.000 C 
ATOM     17  C   UNL     1       2.902   2.757  21.076  0.00  0.00    +0.000 C 
ATOM     18  C   UNL     1       3.684   2.249  19.860  0.00  0.00    +0.000 C 
ATOM     19  C   UNL     1       4.602   3.300  19.223  0.00  0.00    +0.000 C 
ENDBRANCH  11  12
ENDBRANCH   3  11
TORSDOF 3
ENDMDL
MODEL 3
REMARK VINA RESULT:      -6.9      4.707      7.206
REMARK  Name = 
REMARK  3 active torsions:
REMARK  status: ('A' for Active; 'I' for Inactive)
REMARK    1  A    between atoms: C_4  and  C_5
REMARK    2  A    between atoms: C_7  and  C_8
REMARK    3  A    between atoms: C_8  and  N_9
REMARK                            x       y       z     vdW  Elec       q    Type
REMARK                         _______ _______ _______ _____ _____    ______ ____
ROOT
ATOM      1  C   UNL     1       1.675   8.486  19.561  0.00  0.00    +0.000 A 
ATOM      2  N   UNL     1       2.331   7.345  19.722  0.00  0.00    +0.000 NA
ATOM      3  C   UNL     1       2.913   7.091  18.500  0.00  0.00    +0.000 A 
ATOM      4  C   UNL     1       2.592   8.105  17.630  0.00  0.00    +0.000 A 
ATOM      5  O   UNL     1       1.804   9.002  18.290  0.00  0.00    +0.000 OA
ENDROOT
BRANCH   1   9
ATOM      6  C   UNL     1      -0.416   9.277  22.537  0.00  0.00    +0.000 A 
ATOM      7  C   UNL     1      -0.381  10.581  22.100  0.00  0.00    +0.000 A 
ATOM      8  S   UNL     1       0.554  10.756  20.676  0.00  0.00    +0.000 S 
ATOM      9  C   UNL     1       0.897   9.079  20.613  0.00  0.00    +0.000 A 
ATOM     10  C   UNL     1       0.322   8.412  21.679  0.00  0.00    +0.000 A 
ENDBRANCH   1   9
BRANCH   3  11
ATOM     11  C   UNL     1       3.724   5.850  18.285  0.00  0.00    +0.000 C 
BRANCH  11  12
ATOM     12  N   UNL     1       3.081   4.651  18.868  0.00  0.00    +0.000 NA
ATOM     13  C   UNL     1       2.000   4.150  18.002  0.00  0.00    +0.000 C 
ATOM     14  C   UNL     1       1.015   3.189  18.681  0.00  0.00    +0.000 C 
ATOM     15  C   UNL     1       0.646   3.576  20.117  0.00  0.00    +0.000 C 
ATOM     16  C   UNL     1       1.377   2.762  21.187  0.00  0.00    +0.000 C 
ATOM     17  C   UNL     1       2.883   3.008  21.316  0.00  0.00    +0.000 C 
ATOM     18  C   UNL     1       3.699   2.519  20.116  0.00  0.00    +0.000 C 
ATOM     19  C   UNL     1       4.110   3.634  19.144  0.00  0.00    +0.000 C 
ENDBRANCH  11  12
ENDBRANCH   3  11
TORSDOF 3
ENDMDL
MODEL 4
REMARK VINA RESULT:      -6.9      1.307      2.065
REMARK  Name = 
REMARK  3 active torsions:
REMARK  status: ('A' for Active; 'I' for Inactive)
REMARK    1  A    between atoms: C_4  and  C_5
REMARK    2  A    between atoms: C_7  and  C_8
REMARK    3  A    between atoms: C_8  and  N_9
REMARK                            x       y       z     vdW  Elec       q    Type
REMARK                         _______ _______ _______ _____ _____    ______ ____
ROOT
ATOM      1  C   UNL     1       5.749   5.027  15.300  0.00  0.00    +0.000 A 
ATOM      2  N   UNL     1       5.680   4.263  16.382  0.00  0.00    +0.000 NA
ATOM      3  C   UNL     1       5.371   5.126  17.411  0.00  0.00    +0.000 A 
ATOM      4  C   UNL     1       5.254   6.399  16.908  0.00  0.00    +0.000 A 
ATOM      5  O   UNL     1       5.492   6.353  15.565  0.00  0.00    +0.000 OA
ENDROOT
BRANCH   1   9
ATOM      6  C   UNL     1       5.966   3.236  12.044  0.00  0.00    +0.000 A 
ATOM      7  C   UNL     1       7.167   3.883  11.873  0.00  0.00    +0.000 A 
ATOM      8  S   UNL     1       7.527   4.925  13.184  0.00  0.00    +0.000 S 
ATOM      9  C   UNL     1       6.089   4.497  14.009  0.00  0.00    +0.000 A 
ATOM     10  C   UNL     1       5.344   3.592  13.275  0.00  0.00    +0.000 A 
ENDBRANCH   1   9
BRANCH   3  11
ATOM     11  C   UNL     1       5.239   4.622  18.815  0.00  0.00    +0.000 C 
BRANCH  11  12
ATOM     12  N   UNL     1       3.832   4.349  19.183  0.00  0.00    +0.000 NA
ATOM     13  C   UNL     1       3.214   5.514  19.837  0.00  0.00    +0.000 C 
ATOM     14  C   UNL     1       1.926   5.217  20.616  0.00  0.00    +0.000 C 
ATOM     15  C   UNL     1       1.954   3.900  21.400  0.00  0.00    +0.000 C 
ATOM     16  C   UNL     1       1.195   2.757  20.722  0.00  0.00    +0.000 C 
ATOM     17  C   UNL     1       1.807   2.209  19.430  0.00  0.00    +0.000 C 
ATOM     18  C   UNL     1       1.762   3.190  18.254  0.00  0.00    +0.000 C 
ATOM     19  C   UNL     1       3.093   3.907  17.987  0.00  0.00    +0.000 C 
ENDBRANCH  11  12
ENDBRANCH   3  11
TORSDOF 3
ENDMDL
MODEL 5
REMARK VINA RESULT:      -6.9      0.880      1.923
REMARK  Name = 
REMARK  3 active torsions:
REMARK  status: ('A' for Active; 'I' for Inactive)
REMARK    1  A    between atoms: C_4  and  C_5
REMARK    2  A    between atoms: C_7  and  C_8
REMARK    3  A    between atoms: C_8  and  N_9
REMARK                            x       y       z     vdW  Elec       q    Type
REMARK                         _______ _______ _______ _____ _____    ______ ____
ROOT
ATOM      1  C   UNL     1       6.679   4.941  15.617  0.00  0.00    +0.000 A 
ATOM      2  N   UNL     1       6.018   4.239  16.527  0.00  0.00    +0.000 NA
ATOM      3  C   UNL     1       6.259   4.883  17.720  0.00  0.00    +0.000 A 
ATOM      4  C   UNL     1       7.062   5.974  17.488  0.00  0.00    +0.000 A 
ATOM      5  O   UNL     1       7.338   6.025  16.152  0.00  0.00    +0.000 OA
ENDROOT
BRANCH   1   9
ATOM      6  C   UNL     1       6.153   3.494  12.227  0.00  0.00    +0.000 A 
ATOM      7  C   UNL     1       7.241   4.242  11.840  0.00  0.00    +0.000 A 
ATOM      8  S   UNL     1       7.869   5.176  13.131  0.00  0.00    +0.000 S 
ATOM      9  C   UNL     1       6.706   4.566  14.230  0.00  0.00    +0.000 A 
ATOM     10  C   UNL     1       5.845   3.682  13.605  0.00  0.00    +0.000 A 
ENDBRANCH   1   9
BRANCH   3  11
ATOM     11  C   UNL     1       5.692   4.353  19.001  0.00  0.00    +0.000 C 
BRANCH  11  12
ATOM     12  N   UNL     1       4.216   4.450  19.044  0.00  0.00    +0.000 NA
ATOM     13  C   UNL     1       3.765   5.835  18.826  0.00  0.00    +0.000 C 
ATOM     14  C   UNL     1       2.319   6.124  19.251  0.00  0.00    +0.000 C 
ATOM     15  C   UNL     1       1.900   5.444  20.559  0.00  0.00    +0.000 C 
ATOM     16  C   UNL     1       1.046   4.189  20.361  0.00  0.00    +0.000 C 
ATOM     17  C   UNL     1       1.752   2.978  19.747  0.00  0.00    +0.000 C 
ATOM     18  C   UNL     1       2.153   3.167  18.281  0.00  0.00    +0.000 C 
ATOM     19  C   UNL     1       3.637   3.501  18.078  0.00  0.00    +0.000 C 
ENDBRANCH  11  12
ENDBRANCH   3  11
TORSDOF 3
ENDMDL
MODEL 6
REMARK VINA RESULT:      -6.8      1.141      1.413
REMARK  Name = 
REMARK  3 active torsions:
REMARK  status: ('A' for Active; 'I' for Inactive)
REMARK    1  A    between atoms: C_4  and  C_5
REMARK    2  A    between atoms: C_7  and  C_8
REMARK    3  A    between atoms: C_8  and  N_9
REMARK                            x       y       z     vdW  Elec       q    Type
REMARK                         _______ _______ _______ _____ _____    ______ ____
ROOT
ATOM      1  C   UNL     1       6.462   5.425  15.430  0.00  0.00    +0.000 A 
ATOM      2  N   UNL     1       5.298   5.483  16.064  0.00  0.00    +0.000 NA
ATOM      3  C   UNL     1       5.571   6.121  17.254  0.00  0.00    +0.000 A 
ATOM      4  C   UNL     1       6.907   6.439  17.297  0.00  0.00    +0.000 A 
ATOM      5  O   UNL     1       7.489   6.004  16.142  0.00  0.00    +0.000 OA
ENDROOT
BRANCH   1   9
ATOM      6  C   UNL     1       7.430   4.296  12.018  0.00  0.00    +0.000 A 
ATOM      7  C   UNL     1       6.353   3.445  12.094  0.00  0.00    +0.000 A 
ATOM      8  S   UNL     1       5.538   3.573  13.595  0.00  0.00    +0.000 S 
ATOM      9  C   UNL     1       6.605   4.793  14.148  0.00  0.00    +0.000 A 
ATOM     10  C   UNL     1       7.576   5.072  13.203  0.00  0.00    +0.000 A 
ENDBRANCH   1   9
BRANCH   3  11
ATOM     11  C   UNL     1       4.488   6.345  18.264  0.00  0.00    +0.000 C 
BRANCH  11  12
ATOM     12  N   UNL     1       3.805   5.088  18.643  0.00  0.00    +0.000 NA
ATOM     13  C   UNL     1       4.736   4.144  19.284  0.00  0.00    +0.000 C 
ATOM     14  C   UNL     1       4.253   2.689  19.341  0.00  0.00    +0.000 C 
ATOM     15  C   UNL     1       3.531   2.216  18.074  0.00  0.00    +0.000 C 
ATOM     16  C   UNL     1       2.006   2.185  18.203  0.00  0.00    +0.000 C 
ATOM     17  C   UNL     1       1.307   3.543  18.312  0.00  0.00    +0.000 C 
ATOM     18  C   UNL     1       1.593   4.288  19.620  0.00  0.00    +0.000 C 
ATOM     19  C   UNL     1       2.639   5.403  19.487  0.00  0.00    +0.000 C 
ENDBRANCH  11  12
ENDBRANCH   3  11
TORSDOF 3
ENDMDL
MODEL 7
REMARK VINA RESULT:      -6.8      1.023      1.609
REMARK  Name = 
REMARK  3 active torsions:
REMARK  status: ('A' for Active; 'I' for Inactive)
REMARK    1  A    between atoms: C_4  and  C_5
REMARK    2  A    between atoms: C_7  and  C_8
REMARK    3  A    between atoms: C_8  and  N_9
REMARK                            x       y       z     vdW  Elec       q    Type
REMARK                         _______ _______ _______ _____ _____    ______ ____
ROOT
ATOM      1  C   UNL     1       6.535   4.780  15.679  0.00  0.00    +0.000 A 
ATOM      2  N   UNL     1       5.459   5.340  16.213  0.00  0.00    +0.000 NA
ATOM      3  C   UNL     1       5.743   5.452  17.556  0.00  0.00    +0.000 A 
ATOM      4  C   UNL     1       7.004   4.957  17.791  0.00  0.00    +0.000 A 
ATOM      5  O   UNL     1       7.522   4.525  16.605  0.00  0.00    +0.000 OA
ENDROOT
BRANCH   1   9
ATOM      6  C   UNL     1       6.161   3.453  12.221  0.00  0.00    +0.000 A 
ATOM      7  C   UNL     1       7.240   4.243  11.900  0.00  0.00    +0.000 A 
ATOM      8  S   UNL     1       7.800   5.142  13.246  0.00  0.00    +0.000 S 
ATOM      9  C   UNL     1       6.619   4.459  14.281  0.00  0.00    +0.000 A 
ATOM     10  C   UNL     1       5.803   3.579  13.594  0.00  0.00    +0.000 A 
ENDBRANCH   1   9
BRANCH   3  11
ATOM     11  C   UNL     1       4.734   6.022  18.505  0.00  0.00    +0.000 C 
BRANCH  11  12
ATOM     12  N   UNL     1       3.639   5.070  18.797  0.00  0.00    +0.000 NA
ATOM     13  C   UNL     1       3.207   5.167  20.202  0.00  0.00    +0.000 C 
ATOM     14  C   UNL     1       2.389   3.976  20.716  0.00  0.00    +0.000 C 
ATOM     15  C   UNL     1       2.886   2.612  20.224  0.00  0.00    +0.000 C 
ATOM     16  C   UNL     1       2.057   2.025  19.078  0.00  0.00    +0.000 C 
ATOM     17  C   UNL     1       2.153   2.748  17.732  0.00  0.00    +0.000 C 
ATOM     18  C   UNL     1       1.522   4.143  17.727  0.00  0.00    +0.000 C 
ATOM     19  C   UNL     1       2.537   5.288  17.844  0.00  0.00    +0.000 C 
ENDBRANCH  11  12
ENDBRANCH   3  11
TORSDOF 3
ENDMDL
MODEL 8
REMARK VINA RESULT:      -6.8      1.134      1.156
REMARK  Name = 
REMARK  3 active torsions:
REMARK  status: ('A' for Active; 'I' for Inactive)
REMARK    1  A    between atoms: C_4  and  C_5
REMARK    2  A    between atoms: C_7  and  C_8
REMARK    3  A    between atoms: C_8  and  N_9
REMARK                            x       y       z     vdW  Elec       q    Type
REMARK                         _______ _______ _______ _____ _____    ______ ____
ROOT
ATOM      1  C   UNL     1       5.632   5.371  15.338  0.00  0.00    +0.000 A 
ATOM      2  N   UNL     1       5.587   4.740  16.503  0.00  0.00    +0.000 NA
ATOM      3  C   UNL     1       5.245   5.708  17.422  0.00  0.00    +0.000 A 
ATOM      4  C   UNL     1       5.083   6.907  16.771  0.00  0.00    +0.000 A 
ATOM      5  O   UNL     1       5.325   6.710  15.443  0.00  0.00    +0.000 OA
ENDROOT
BRANCH   1   9
ATOM      6  C   UNL     1       5.879   3.271  12.275  0.00  0.00    +0.000 A 
ATOM      7  C   UNL     1       7.123   3.832  12.102  0.00  0.00    +0.000 A 
ATOM      8  S   UNL     1       7.488   4.973  13.327  0.00  0.00    +0.000 S 
ATOM      9  C   UNL     1       5.993   4.704  14.118  0.00  0.00    +0.000 A 
ATOM     10  C   UNL     1       5.228   3.775  13.437  0.00  0.00    +0.000 A 
ENDBRANCH   1   9
BRANCH   3  11
ATOM     11  C   UNL     1       5.127   5.371  18.876  0.00  0.00    +0.000 C 
BRANCH  11  12
ATOM     12  N   UNL     1       4.064   4.375  19.138  0.00  0.00    +0.000 NA
ATOM     13  C   UNL     1       4.634   3.080  19.546  0.00  0.00    +0.000 C 
ATOM     14  C   UNL     1       3.677   1.885  19.443  0.00  0.00    +0.000 C 
ATOM     15  C   UNL     1       2.782   1.901  18.199  0.00  0.00    +0.000 C 
ATOM     16  C   UNL     1       1.349   2.366  18.470  0.00  0.00    +0.000 C 
ATOM     17  C   UNL     1       1.173   3.842  18.837  0.00  0.00    +0.000 C 
ATOM     18  C   UNL     1       1.756   4.219  20.202  0.00  0.00    +0.000 C 
ATOM     19  C   UNL     1       3.119   4.920  20.128  0.00  0.00    +0.000 C 
ENDBRANCH  11  12
ENDBRANCH   3  11
TORSDOF 3
ENDMDL
MODEL 9
REMARK VINA RESULT:      -6.8      3.856      5.734
REMARK  Name = 
REMARK  3 active torsions:
REMARK  status: ('A' for Active; 'I' for Inactive)
REMARK    1  A    between atoms: C_4  and  C_5
REMARK    2  A    between atoms: C_7  and  C_8
REMARK    3  A    between atoms: C_8  and  N_9
REMARK                            x       y       z     vdW  Elec       q    Type
REMARK                         _______ _______ _______ _____ _____    ______ ____
ROOT
ATOM      1  C   UNL     1       3.063   7.452  18.123  0.00  0.00    +0.000 A 
ATOM      2  N   UNL     1       3.151   6.183  18.494  0.00  0.00    +0.000 NA
ATOM      3  C   UNL     1       4.173   5.657  17.735  0.00  0.00    +0.000 A 
ATOM      4  C   UNL     1       4.683   6.643  16.924  0.00  0.00    +0.000 A 
ATOM      5  O   UNL     1       3.987   7.793  17.160  0.00  0.00    +0.000 OA
ENDROOT
BRANCH   1   9
ATOM      6  C   UNL     1       0.536  10.095  18.819  0.00  0.00    +0.000 A 
ATOM      7  C   UNL     1       0.513   9.605  20.104  0.00  0.00    +0.000 A 
ATOM      8  S   UNL     1       1.560   8.264  20.298  0.00  0.00    +0.000 S 
ATOM      9  C   UNL     1       2.078   8.344  18.668  0.00  0.00    +0.000 A 
ATOM     10  C   UNL     1       1.438   9.367  17.991  0.00  0.00    +0.000 A 
ENDBRANCH   1   9
BRANCH   3  11
ATOM     11  C   UNL     1       4.549   4.213  17.857  0.00  0.00    +0.000 C 
BRANCH  11  12
ATOM     12  N   UNL     1       3.601   3.455  18.703  0.00  0.00    +0.000 NA
ATOM     13  C   UNL     1       2.740   2.580  17.890  0.00  0.00    +0.000 C 
ATOM     14  C   UNL     1       1.475   2.073  18.595  0.00  0.00    +0.000 C 
ATOM     15  C   UNL     1       0.785   3.119  19.477  0.00  0.00    +0.000 C 
ATOM     16  C   UNL     1       1.062   2.950  20.973  0.00  0.00    +0.000 C 
ATOM     17  C   UNL     1       2.492   3.242  21.435  0.00  0.00    +0.000 C 
ATOM     18  C   UNL     1       3.527   2.230  20.935  0.00  0.00    +0.000 C 
ATOM     19  C   UNL     1       4.351   2.719  19.736  0.00  0.00    +0.000 C 
ENDBRANCH  11  12
ENDBRANCH   3  11
TORSDOF 3
ENDMDL
