MODEL 1
REMARK VINA RESULT:      -8.1      0.000      0.000
REMARK  Name = 
REMARK  15 active torsions:
REMARK  status: ('A' for Active; 'I' for Inactive)
REMARK    1  A    between atoms: C_1  and  C_2
REMARK    2  A    between atoms: C_2  and  C_3
REMARK    3  A    between atoms: C_2  and  C_4
REMARK    4  A    between atoms: C_4  and  C_5
REMARK    5  A    between atoms: C_5  and  N_6
REMARK    6  A    between atoms: C_7  and  C_9
REMARK    7  A    between atoms: C_12  and  C_13
REMARK    8  A    between atoms: C_13  and  S_14
REMARK    9  A    between atoms: S_14  and  C_15
REMARK   10  A    between atoms: C_23  and  C_24
REMARK   11  A    between atoms: N_26  and  C_27
REMARK   12  A    between atoms: C_27  and  C_28
REMARK   13  A    between atoms: C_28  and  C_29
REMARK   14  A    between atoms: C_29  and  C_30
REMARK   15  A    between atoms: C_29  and  C_31
REMARK                            x       y       z     vdW  Elec       q    Type
REMARK                         _______ _______ _______ _____ _____    ______ ____
ROOT
ATOM      1  C   UNL     1       6.263   4.834  18.524  0.00  0.00    +0.000 A 
ATOM      2  O   UNL     1       5.890   4.121  19.623  0.00  0.00    +0.000 OA
ATOM      3  N   UNL     1       4.841   3.303  19.327  0.00  0.00    +0.000 NA
ATOM      4  C   UNL     1       4.515   3.535  18.045  0.00  0.00    +0.000 A 
ATOM      5  C   UNL     1       5.402   4.525  17.478  0.00  0.00    +0.000 A 
ENDROOT
BRANCH   1   7
ATOM      6  N   UNL     1       7.324   6.912  18.028  0.00  0.00    +0.000 N 
ATOM      7  C   UNL     1       7.411   5.696  18.673  0.00  0.00    +0.000 C 
ATOM      8  O   UNL     1       8.403   5.396  19.334  0.00  0.00    +0.000 OA
ATOM      9  H   UNL     1       6.498   7.107  17.471  0.00  0.00    +0.000 HD
BRANCH   6  10
ATOM     10  C   UNL     1       8.399   7.881  18.060  0.00  0.00    +0.000 C 
BRANCH  10  11
ATOM     11  C   UNL     1       7.897   9.324  17.964  0.00  0.00    +0.000 C 
BRANCH  11  13
ATOM     12  C   UNL     1       8.510  11.780  17.754  0.00  0.00    +0.000 C 
ATOM     13  C   UNL     1       8.971  10.399  18.223  0.00  0.00    +0.000 C 
ATOM     14  C   UNL     1       9.319  10.448  19.713  0.00  0.00    +0.000 C 
ENDBRANCH  11  13
ENDBRANCH  10  11
ENDBRANCH   6  10
ENDBRANCH   1   7
BRANCH   5  15
ATOM     15  C   UNL     1       5.363   5.030  16.115  0.00  0.00    +0.000 C 
ATOM     16  O   UNL     1       5.166   6.219  15.898  0.00  0.00    +0.000 OA
ATOM     17  N   UNL     1       5.551   4.136  15.080  0.00  0.00    +0.000 N 
ATOM     18  H   UNL     1       5.756   3.156  15.274  0.00  0.00    +0.000 HD
BRANCH  17  19
ATOM     19  C   UNL     1       5.633   4.552  13.696  0.00  0.00    +0.000 C 
BRANCH  19  20
ATOM     20  C   UNL     1       6.329   3.517  12.810  0.00  0.00    +0.000 C 
BRANCH  20  21
ATOM     21  C   UNL     1       5.369   2.553  12.088  0.00  0.00    +0.000 C 
ATOM     22  C   UNL     1       4.300   3.309  11.298  0.00  0.00    +0.000 C 
ATOM     23  C   UNL     1       6.155   1.636  11.149  0.00  0.00    +0.000 C 
ENDBRANCH  20  21
ENDBRANCH  19  20
ENDBRANCH  17  19
ENDBRANCH   5  15
BRANCH   4  24
ATOM     24  C   UNL     1       3.389   2.752  17.393  0.00  0.00    +0.000 C 
BRANCH  24  25
ATOM     25  S   UNL     1       1.778   3.116  18.219  0.00  0.00    +0.000 S 
BRANCH  25  26
ATOM     26  C   UNL     1       1.830   4.786  18.833  0.00  0.00    +0.000 A 
ATOM     27  C   UNL     1       1.462   4.907  20.189  0.00  0.00    +0.000 A 
ATOM     28  C   UNL     1       1.539   6.125  20.865  0.00  0.00    +0.000 A 
ATOM     29  C   UNL     1       1.973   7.246  20.178  0.00  0.00    +0.000 A 
ATOM     30  F   UNL     1       2.096   8.408  20.834  0.00  0.00    +0.000 F 
ATOM     31  C   UNL     1       2.285   7.158  18.824  0.00  0.00    +0.000 A 
ATOM     32  F   UNL     1       2.678   8.256  18.165  0.00  0.00    +0.000 F 
ATOM     33  C   UNL     1       2.212   5.937  18.142  0.00  0.00    +0.000 A 
ENDBRANCH  25  26
ENDBRANCH  24  25
ENDBRANCH   4  24
TORSDOF 11
ENDMDL
MODEL 2
REMARK VINA RESULT:      -8.1      3.040      6.660
REMARK  Name = 
REMARK  15 active torsions:
REMARK  status: ('A' for Active; 'I' for Inactive)
REMARK    1  A    between atoms: C_1  and  C_2
REMARK    2  A    between atoms: C_2  and  C_3
REMARK    3  A    between atoms: C_2  and  C_4
REMARK    4  A    between atoms: C_4  and  C_5
REMARK    5  A    between atoms: C_5  and  N_6
REMARK    6  A    between atoms: C_7  and  C_9
REMARK    7  A    between atoms: C_12  and  C_13
REMARK    8  A    between atoms: C_13  and  S_14
REMARK    9  A    between atoms: S_14  and  C_15
REMARK   10  A    between atoms: C_23  and  C_24
REMARK   11  A    between atoms: N_26  and  C_27
REMARK   12  A    between atoms: C_27  and  C_28
REMARK   13  A    between atoms: C_28  and  C_29
REMARK   14  A    between atoms: C_29  and  C_30
REMARK   15  A    between atoms: C_29  and  C_31
REMARK                            x       y       z     vdW  Elec       q    Type
REMARK                         _______ _______ _______ _____ _____    ______ ____
ROOT
ATOM      1  C   UNL     1       5.861   4.602  18.799  0.00  0.00    +0.000 A 
ATOM      2  O   UNL     1       6.410   4.830  20.025  0.00  0.00    +0.000 OA
ATOM      3  N   UNL     1       7.368   5.796  19.946  0.00  0.00    +0.000 NA
ATOM      4  C   UNL     1       7.463   6.148  18.653  0.00  0.00    +0.000 A 
ATOM      5  C   UNL     1       6.512   5.399  17.864  0.00  0.00    +0.000 A 
ENDROOT
BRANCH   1   7
ATOM      6  N   UNL     1       3.729   3.993  17.920  0.00  0.00    +0.000 N 
ATOM      7  C   UNL     1       4.780   3.647  18.744  0.00  0.00    +0.000 C 
ATOM      8  O   UNL     1       4.779   2.588  19.366  0.00  0.00    +0.000 OA
ATOM      9  H   UNL     1       3.760   4.891  17.446  0.00  0.00    +0.000 HD
BRANCH   6  10
ATOM     10  C   UNL     1       2.558   3.156  17.771  0.00  0.00    +0.000 C 
BRANCH  10  11
ATOM     11  C   UNL     1       1.275   3.847  18.240  0.00  0.00    +0.000 C 
BRANCH  11  13
ATOM     12  C   UNL     1       1.531   2.387  20.302  0.00  0.00    +0.000 C 
ATOM     13  C   UNL     1       0.975   3.698  19.744  0.00  0.00    +0.000 C 
ATOM     14  C   UNL     1       1.563   4.881  20.518  0.00  0.00    +0.000 C 
ENDBRANCH  11  13
ENDBRANCH  10  11
ENDBRANCH   6  10
ENDBRANCH   1   7
BRANCH   5  15
ATOM     15  C   UNL     1       6.315   5.508  16.427  0.00  0.00    +0.000 C 
ATOM     16  O   UNL     1       5.679   6.442  15.955  0.00  0.00    +0.000 OA
ATOM     17  N   UNL     1       6.861   4.532  15.617  0.00  0.00    +0.000 N 
ATOM     18  H   UNL     1       7.425   3.782  16.018  0.00  0.00    +0.000 HD
BRANCH  17  19
ATOM     19  C   UNL     1       6.812   4.602  14.172  0.00  0.00    +0.000 C 
BRANCH  19  20
ATOM     20  C   UNL     1       5.636   3.819  13.584  0.00  0.00    +0.000 C 
BRANCH  20  21
ATOM     21  C   UNL     1       5.717   3.604  12.061  0.00  0.00    +0.000 C 
ATOM     22  C   UNL     1       6.737   2.525  11.698  0.00  0.00    +0.000 C 
ATOM     23  C   UNL     1       4.340   3.222  11.512  0.00  0.00    +0.000 C 
ENDBRANCH  20  21
ENDBRANCH  19  20
ENDBRANCH  17  19
ENDBRANCH   5  15
BRANCH   4  24
ATOM     24  C   UNL     1       8.433   7.237  18.230  0.00  0.00    +0.000 C 
BRANCH  24  25
ATOM     25  S   UNL     1       7.522   8.763  17.731  0.00  0.00    +0.000 S 
BRANCH  25  26
ATOM     26  C   UNL     1       8.477  10.176  18.242  0.00  0.00    +0.000 A 
ATOM     27  C   UNL     1       9.232   9.959  19.413  0.00  0.00    +0.000 A 
ATOM     28  C   UNL     1      10.116  10.921  19.906  0.00  0.00    +0.000 A 
ATOM     29  C   UNL     1      10.239  12.124  19.234  0.00  0.00    +0.000 A 
ATOM     30  F   UNL     1      11.121  13.033  19.672  0.00  0.00    +0.000 F 
ATOM     31  C   UNL     1       9.458  12.378  18.109  0.00  0.00    +0.000 A 
ATOM     32  F   UNL     1       9.567  13.559  17.483  0.00  0.00    +0.000 F 
ATOM     33  C   UNL     1       8.572  11.415  17.609  0.00  0.00    +0.000 A 
ENDBRANCH  25  26
ENDBRANCH  24  25
ENDBRANCH   4  24
TORSDOF 11
ENDMDL
MODEL 3
REMARK VINA RESULT:      -8.1      3.211      6.599
REMARK  Name = 
REMARK  15 active torsions:
REMARK  status: ('A' for Active; 'I' for Inactive)
REMARK    1  A    between atoms: C_1  and  C_2
REMARK    2  A    between atoms: C_2  and  C_3
REMARK    3  A    between atoms: C_2  and  C_4
REMARK    4  A    between atoms: C_4  and  C_5
REMARK    5  A    between atoms: C_5  and  N_6
REMARK    6  A    between atoms: C_7  and  C_9
REMARK    7  A    between atoms: C_12  and  C_13
REMARK    8  A    between atoms: C_13  and  S_14
REMARK    9  A    between atoms: S_14  and  C_15
REMARK   10  A    between atoms: C_23  and  C_24
REMARK   11  A    between atoms: N_26  and  C_27
REMARK   12  A    between atoms: C_27  and  C_28
REMARK   13  A    between atoms: C_28  and  C_29
REMARK   14  A    between atoms: C_29  and  C_30
REMARK   15  A    between atoms: C_29  and  C_31
REMARK                            x       y       z     vdW  Elec       q    Type
REMARK                         _______ _______ _______ _____ _____    ______ ____
ROOT
ATOM      1  C   UNL     1       5.163   5.686  16.463  0.00  0.00    +0.000 A 
ATOM      2  O   UNL     1       5.056   6.994  16.096  0.00  0.00    +0.000 OA
ATOM      3  N   UNL     1       4.201   7.654  16.927  0.00  0.00    +0.000 NA
ATOM      4  C   UNL     1       3.725   6.748  17.797  0.00  0.00    +0.000 A 
ATOM      5  C   UNL     1       4.311   5.453  17.537  0.00  0.00    +0.000 A 
ENDROOT
BRANCH   1   7
ATOM      6  N   UNL     1       5.569   4.270  14.588  0.00  0.00    +0.000 N 
ATOM      7  C   UNL     1       6.092   4.878  15.710  0.00  0.00    +0.000 C 
ATOM      8  O   UNL     1       7.273   4.738  16.018  0.00  0.00    +0.000 OA
ATOM      9  H   UNL     1       4.582   4.391  14.386  0.00  0.00    +0.000 HD
BRANCH   6  10
ATOM     10  C   UNL     1       6.363   3.408  13.737  0.00  0.00    +0.000 C 
BRANCH  10  11
ATOM     11  C   UNL     1       6.419   3.898  12.288  0.00  0.00    +0.000 C 
BRANCH  11  13
ATOM     12  C   UNL     1       5.975   1.536  11.467  0.00  0.00    +0.000 C 
ATOM     13  C   UNL     1       5.652   3.019  11.281  0.00  0.00    +0.000 C 
ATOM     14  C   UNL     1       4.144   3.242  11.426  0.00  0.00    +0.000 C 
ENDBRANCH  11  13
ENDBRANCH  10  11
ENDBRANCH   6  10
ENDBRANCH   1   7
BRANCH   5  15
ATOM     15  C   UNL     1       4.045   4.228  18.273  0.00  0.00    +0.000 C 
ATOM     16  O   UNL     1       4.739   3.914  19.231  0.00  0.00    +0.000 OA
ATOM     17  N   UNL     1       2.994   3.433  17.860  0.00  0.00    +0.000 N 
ATOM     18  H   UNL     1       2.395   3.726  17.088  0.00  0.00    +0.000 HD
BRANCH  17  19
ATOM     19  C   UNL     1       2.581   2.249  18.584  0.00  0.00    +0.000 C 
BRANCH  19  20
ATOM     20  C   UNL     1       1.184   2.388  19.192  0.00  0.00    +0.000 C 
BRANCH  20  21
ATOM     21  C   UNL     1       1.168   2.987  20.611  0.00  0.00    +0.000 C 
ATOM     22  C   UNL     1       2.395   2.559  21.417  0.00  0.00    +0.000 C 
ATOM     23  C   UNL     1       1.104   4.514  20.534  0.00  0.00    +0.000 C 
ENDBRANCH  20  21
ENDBRANCH  19  20
ENDBRANCH  17  19
ENDBRANCH   5  15
BRANCH   4  24
ATOM     24  C   UNL     1       2.758   7.176  18.887  0.00  0.00    +0.000 C 
BRANCH  24  25
ATOM     25  S   UNL     1       1.801   8.665  18.361  0.00  0.00    +0.000 S 
BRANCH  25  26
ATOM     26  C   UNL     1       1.066   9.397  19.808  0.00  0.00    +0.000 A 
ATOM     27  C   UNL     1       0.435  10.634  19.563  0.00  0.00    +0.000 A 
ATOM     28  C   UNL     1      -0.279  11.304  20.558  0.00  0.00    +0.000 A 
ATOM     29  C   UNL     1      -0.352  10.745  21.822  0.00  0.00    +0.000 A 
ATOM     30  F   UNL     1      -1.077  11.358  22.768  0.00  0.00    +0.000 F 
ATOM     31  C   UNL     1       0.314   9.553  22.097  0.00  0.00    +0.000 A 
ATOM     32  F   UNL     1       0.257   9.036  23.333  0.00  0.00    +0.000 F 
ATOM     33  C   UNL     1       1.028   8.875  21.102  0.00  0.00    +0.000 A 
ENDBRANCH  25  26
ENDBRANCH  24  25
ENDBRANCH   4  24
TORSDOF 11
ENDMDL
MODEL 4
REMARK VINA RESULT:      -8.0      3.241      6.548
REMARK  Name = 
REMARK  15 active torsions:
REMARK  status: ('A' for Active; 'I' for Inactive)
REMARK    1  A    between atoms: C_1  and  C_2
REMARK    2  A    between atoms: C_2  and  C_3
REMARK    3  A    between atoms: C_2  and  C_4
REMARK    4  A    between atoms: C_4  and  C_5
REMARK    5  A    between atoms: C_5  and  N_6
REMARK    6  A    between atoms: C_7  and  C_9
REMARK    7  A    between atoms: C_12  and  C_13
REMARK    8  A    between atoms: C_13  and  S_14
REMARK    9  A    between atoms: S_14  and  C_15
REMARK   10  A    between atoms: C_23  and  C_24
REMARK   11  A    between atoms: N_26  and  C_27
REMARK   12  A    between atoms: C_27  and  C_28
REMARK   13  A    between atoms: C_28  and  C_29
REMARK   14  A    between atoms: C_29  and  C_30
REMARK   15  A    between atoms: C_29  and  C_31
REMARK                            x       y       z     vdW  Elec       q    Type
REMARK                         _______ _______ _______ _____ _____    ______ ____
ROOT
ATOM      1  C   UNL     1       5.201   5.924  16.466  0.00  0.00    +0.000 A 
ATOM      2  O   UNL     1       5.222   7.280  16.333  0.00  0.00    +0.000 OA
ATOM      3  N   UNL     1       4.293   7.853  17.149  0.00  0.00    +0.000 NA
ATOM      4  C   UNL     1       3.645   6.852  17.767  0.00  0.00    +0.000 A 
ATOM      5  C   UNL     1       4.190   5.579  17.356  0.00  0.00    +0.000 A 
ENDROOT
BRANCH   1   7
ATOM      6  N   UNL     1       5.691   4.494  14.622  0.00  0.00    +0.000 N 
ATOM      7  C   UNL     1       6.183   5.186  15.709  0.00  0.00    +0.000 C 
ATOM      8  O   UNL     1       7.380   5.171  15.984  0.00  0.00    +0.000 OA
ATOM      9  H   UNL     1       4.691   4.512  14.447  0.00  0.00    +0.000 HD
BRANCH   6  10
ATOM     10  C   UNL     1       6.541   3.686  13.773  0.00  0.00    +0.000 C 
BRANCH  10  11
ATOM     11  C   UNL     1       6.122   3.735  12.301  0.00  0.00    +0.000 C 
BRANCH  11  13
ATOM     12  C   UNL     1       4.022   3.166  10.991  0.00  0.00    +0.000 C 
ATOM     13  C   UNL     1       5.147   2.621  11.871  0.00  0.00    +0.000 C 
ATOM     14  C   UNL     1       5.902   1.519  11.122  0.00  0.00    +0.000 C 
ENDBRANCH  11  13
ENDBRANCH  10  11
ENDBRANCH   6  10
ENDBRANCH   1   7
BRANCH   5  15
ATOM     15  C   UNL     1       3.750   4.270  17.812  0.00  0.00    +0.000 C 
ATOM     16  O   UNL     1       3.117   3.532  17.068  0.00  0.00    +0.000 OA
ATOM     17  N   UNL     1       4.063   3.889  19.102  0.00  0.00    +0.000 N 
ATOM     18  H   UNL     1       4.627   4.493  19.699  0.00  0.00    +0.000 HD
BRANCH  17  19
ATOM     19  C   UNL     1       3.763   2.570  19.618  0.00  0.00    +0.000 C 
BRANCH  19  20
ATOM     20  C   UNL     1       2.849   2.611  20.845  0.00  0.00    +0.000 C 
BRANCH  20  21
ATOM     21  C   UNL     1       1.356   2.795  20.516  0.00  0.00    +0.000 C 
ATOM     22  C   UNL     1       0.975   4.273  20.438  0.00  0.00    +0.000 C 
ATOM     23  C   UNL     1       1.022   2.103  19.192  0.00  0.00    +0.000 C 
ENDBRANCH  20  21
ENDBRANCH  19  20
ENDBRANCH  17  19
ENDBRANCH   5  15
BRANCH   4  24
ATOM     24  C   UNL     1       2.555   7.162  18.778  0.00  0.00    +0.000 C 
BRANCH  24  25
ATOM     25  S   UNL     1       1.727   8.762  18.374  0.00  0.00    +0.000 S 
BRANCH  25  26
ATOM     26  C   UNL     1       1.062   9.443  19.879  0.00  0.00    +0.000 A 
ATOM     27  C   UNL     1       0.818  10.830  19.817  0.00  0.00    +0.000 A 
ATOM     28  C   UNL     1       0.206  11.516  20.868  0.00  0.00    +0.000 A 
ATOM     29  C   UNL     1      -0.154  10.815  22.006  0.00  0.00    +0.000 A 
ATOM     30  F   UNL     1      -0.786  11.456  22.998  0.00  0.00    +0.000 F 
ATOM     31  C   UNL     1       0.133   9.456  22.107  0.00  0.00    +0.000 A 
ATOM     32  F   UNL     1      -0.197   8.794  23.226  0.00  0.00    +0.000 F 
ATOM     33  C   UNL     1       0.743   8.763  21.055  0.00  0.00    +0.000 A 
ENDBRANCH  25  26
ENDBRANCH  24  25
ENDBRANCH   4  24
TORSDOF 11
ENDMDL
MODEL 5
REMARK VINA RESULT:      -7.9      4.354      6.670
REMARK  Name = 
REMARK  15 active torsions:
REMARK  status: ('A' for Active; 'I' for Inactive)
REMARK    1  A    between atoms: C_1  and  C_2
REMARK    2  A    between atoms: C_2  and  C_3
REMARK    3  A    between atoms: C_2  and  C_4
REMARK    4  A    between atoms: C_4  and  C_5
REMARK    5  A    between atoms: C_5  and  N_6
REMARK    6  A    between atoms: C_7  and  C_9
REMARK    7  A    between atoms: C_12  and  C_13
REMARK    8  A    between atoms: C_13  and  S_14
REMARK    9  A    between atoms: S_14  and  C_15
REMARK   10  A    between atoms: C_23  and  C_24
REMARK   11  A    between atoms: N_26  and  C_27
REMARK   12  A    between atoms: C_27  and  C_28
REMARK   13  A    between atoms: C_28  and  C_29
REMARK   14  A    between atoms: C_29  and  C_30
REMARK   15  A    between atoms: C_29  and  C_31
REMARK                            x       y       z     vdW  Elec       q    Type
REMARK                         _______ _______ _______ _____ _____    ______ ____
ROOT
ATOM      1  C   UNL     1       2.883   7.519  17.895  0.00  0.00    +0.000 A 
ATOM      2  O   UNL     1       2.764   8.634  17.122  0.00  0.00    +0.000 OA
ATOM      3  N   UNL     1       2.043   9.590  17.773  0.00  0.00    +0.000 NA
ATOM      4  C   UNL     1       1.661   9.060  18.946  0.00  0.00    +0.000 A 
ATOM      5  C   UNL     1       2.173   7.715  19.074  0.00  0.00    +0.000 A 
ENDROOT
BRANCH   1   7
ATOM      6  N   UNL     1       4.784   6.837  16.625  0.00  0.00    +0.000 N 
ATOM      7  C   UNL     1       3.683   6.444  17.358  0.00  0.00    +0.000 C 
ATOM      8  O   UNL     1       3.430   5.255  17.539  0.00  0.00    +0.000 OA
ATOM      9  H   UNL     1       4.939   7.829  16.478  0.00  0.00    +0.000 HD
BRANCH   6  10
ATOM     10  C   UNL     1       5.675   5.883  16.001  0.00  0.00    +0.000 C 
BRANCH  10  11
ATOM     11  C   UNL     1       7.025   5.780  16.714  0.00  0.00    +0.000 C 
BRANCH  11  13
ATOM     12  C   UNL     1       7.918   5.927  19.088  0.00  0.00    +0.000 C 
ATOM     13  C   UNL     1       7.154   6.652  17.979  0.00  0.00    +0.000 C 
ATOM     14  C   UNL     1       7.857   7.969  17.643  0.00  0.00    +0.000 C 
ENDBRANCH  11  13
ENDBRANCH  10  11
ENDBRANCH   6  10
ENDBRANCH   1   7
BRANCH   5  15
ATOM     15  C   UNL     1       1.973   6.825  20.206  0.00  0.00    +0.000 C 
ATOM     16  O   UNL     1       1.258   7.160  21.142  0.00  0.00    +0.000 OA
ATOM     17  N   UNL     1       2.610   5.600  20.196  0.00  0.00    +0.000 N 
ATOM     18  H   UNL     1       3.168   5.314  19.392  0.00  0.00    +0.000 HD
BRANCH  17  19
ATOM     19  C   UNL     1       2.395   4.602  21.222  0.00  0.00    +0.000 C 
BRANCH  19  20
ATOM     20  C   UNL     1       1.257   3.639  20.879  0.00  0.00    +0.000 C 
BRANCH  20  21
ATOM     21  C   UNL     1       1.691   2.417  20.047  0.00  0.00    +0.000 C 
ATOM     22  C   UNL     1       1.050   2.425  18.659  0.00  0.00    +0.000 C 
ATOM     23  C   UNL     1       3.215   2.388  19.914  0.00  0.00    +0.000 C 
ENDBRANCH  20  21
ENDBRANCH  19  20
ENDBRANCH  17  19
ENDBRANCH   5  15
BRANCH   4  24
ATOM     24  C   UNL     1       0.857   9.891  19.931  0.00  0.00    +0.000 C 
BRANCH  24  25
ATOM     25  S   UNL     1       0.242  11.437  19.128  0.00  0.00    +0.000 S 
BRANCH  25  26
ATOM     26  C   UNL     1      -1.346  11.094  18.400  0.00  0.00    +0.000 A 
ATOM     27  C   UNL     1      -2.401  11.849  18.952  0.00  0.00    +0.000 A 
ATOM     28  C   UNL     1      -3.697  11.786  18.438  0.00  0.00    +0.000 A 
ATOM     29  C   UNL     1      -3.953  10.946  17.369  0.00  0.00    +0.000 A 
ATOM     30  F   UNL     1      -5.184  10.917  16.839  0.00  0.00    +0.000 F 
ATOM     31  C   UNL     1      -2.936  10.150  16.848  0.00  0.00    +0.000 A 
ATOM     32  F   UNL     1      -3.204   9.321  15.829  0.00  0.00    +0.000 F 
ATOM     33  C   UNL     1      -1.633  10.212  17.358  0.00  0.00    +0.000 A 
ENDBRANCH  25  26
ENDBRANCH  24  25
ENDBRANCH   4  24
TORSDOF 11
ENDMDL
MODEL 6
REMARK VINA RESULT:      -7.7      4.393      6.931
REMARK  Name = 
REMARK  15 active torsions:
REMARK  status: ('A' for Active; 'I' for Inactive)
REMARK    1  A    between atoms: C_1  and  C_2
REMARK    2  A    between atoms: C_2  and  C_3
REMARK    3  A    between atoms: C_2  and  C_4
REMARK    4  A    between atoms: C_4  and  C_5
REMARK    5  A    between atoms: C_5  and  N_6
REMARK    6  A    between atoms: C_7  and  C_9
REMARK    7  A    between atoms: C_12  and  C_13
REMARK    8  A    between atoms: C_13  and  S_14
REMARK    9  A    between atoms: S_14  and  C_15
REMARK   10  A    between atoms: C_23  and  C_24
REMARK   11  A    between atoms: N_26  and  C_27
REMARK   12  A    between atoms: C_27  and  C_28
REMARK   13  A    between atoms: C_28  and  C_29
REMARK   14  A    between atoms: C_29  and  C_30
REMARK   15  A    between atoms: C_29  and  C_31
REMARK                            x       y       z     vdW  Elec       q    Type
REMARK                         _______ _______ _______ _____ _____    ______ ____
ROOT
ATOM      1  C   UNL     1       1.896   6.825  20.154  0.00  0.00    +0.000 A 
ATOM      2  O   UNL     1       1.184   7.298  21.215  0.00  0.00    +0.000 OA
ATOM      3  N   UNL     1       0.842   8.602  21.015  0.00  0.00    +0.000 NA
ATOM      4  C   UNL     1       1.383   8.973  19.842  0.00  0.00    +0.000 A 
ATOM      5  C   UNL     1       2.083   7.860  19.244  0.00  0.00    +0.000 A 
ENDROOT
BRANCH   1   7
ATOM      6  N   UNL     1       1.218   4.541  20.264  0.00  0.00    +0.000 N 
ATOM      7  C   UNL     1       2.269   5.431  20.197  0.00  0.00    +0.000 C 
ATOM      8  O   UNL     1       3.433   5.040  20.164  0.00  0.00    +0.000 OA
ATOM      9  H   UNL     1       0.273   4.909  20.317  0.00  0.00    +0.000 HD
BRANCH   6  10
ATOM     10  C   UNL     1       1.423   3.110  20.337  0.00  0.00    +0.000 C 
BRANCH  10  11
ATOM     11  C   UNL     1       1.027   2.390  19.045  0.00  0.00    +0.000 C 
BRANCH  11  13
ATOM     12  C   UNL     1       2.401   3.459  17.197  0.00  0.00    +0.000 C 
ATOM     13  C   UNL     1       2.175   2.201  18.035  0.00  0.00    +0.000 C 
ATOM     14  C   UNL     1       3.467   1.829  18.768  0.00  0.00    +0.000 C 
ENDBRANCH  11  13
ENDBRANCH  10  11
ENDBRANCH   6  10
ENDBRANCH   1   7
BRANCH   5  15
ATOM     15  C   UNL     1       2.790   7.874  17.974  0.00  0.00    +0.000 C 
ATOM     16  O   UNL     1       2.505   8.697  17.113  0.00  0.00    +0.000 OA
ATOM     17  N   UNL     1       3.783   6.937  17.767  0.00  0.00    +0.000 N 
ATOM     18  H   UNL     1       4.040   6.285  18.507  0.00  0.00    +0.000 HD
BRANCH  17  19
ATOM     19  C   UNL     1       4.614   6.932  16.582  0.00  0.00    +0.000 C 
BRANCH  19  20
ATOM     20  C   UNL     1       5.691   5.846  16.623  0.00  0.00    +0.000 C 
BRANCH  20  21
ATOM     21  C   UNL     1       5.681   4.898  15.408  0.00  0.00    +0.000 C 
ATOM     22  C   UNL     1       6.887   5.134  14.500  0.00  0.00    +0.000 C 
ATOM     23  C   UNL     1       5.664   3.442  15.880  0.00  0.00    +0.000 C 
ENDBRANCH  20  21
ENDBRANCH  19  20
ENDBRANCH  17  19
ENDBRANCH   5  15
BRANCH   4  24
ATOM     24  C   UNL     1       1.158  10.378  19.312  0.00  0.00    +0.000 C 
BRANCH  24  25
ATOM     25  S   UNL     1      -0.445  11.058  19.927  0.00  0.00    +0.000 S 
BRANCH  25  26
ATOM     26  C   UNL     1      -1.670  10.838  18.655  0.00  0.00    +0.000 A 
ATOM     27  C   UNL     1      -2.847  11.588  18.861  0.00  0.00    +0.000 A 
ATOM     28  C   UNL     1      -3.874  11.617  17.917  0.00  0.00    +0.000 A 
ATOM     29  C   UNL     1      -3.739  10.875  16.757  0.00  0.00    +0.000 A 
ATOM     30  F   UNL     1      -4.699  10.936  15.824  0.00  0.00    +0.000 F 
ATOM     31  C   UNL     1      -2.610  10.083  16.563  0.00  0.00    +0.000 A 
ATOM     32  F   UNL     1      -2.504   9.348  15.447  0.00  0.00    +0.000 F 
ATOM     33  C   UNL     1      -1.575  10.053  17.506  0.00  0.00    +0.000 A 
ENDBRANCH  25  26
ENDBRANCH  24  25
ENDBRANCH   4  24
TORSDOF 11
ENDMDL
MODEL 7
REMARK VINA RESULT:      -7.6      3.267      6.550
REMARK  Name = 
REMARK  15 active torsions:
REMARK  status: ('A' for Active; 'I' for Inactive)
REMARK    1  A    between atoms: C_1  and  C_2
REMARK    2  A    between atoms: C_2  and  C_3
REMARK    3  A    between atoms: C_2  and  C_4
REMARK    4  A    between atoms: C_4  and  C_5
REMARK    5  A    between atoms: C_5  and  N_6
REMARK    6  A    between atoms: C_7  and  C_9
REMARK    7  A    between atoms: C_12  and  C_13
REMARK    8  A    between atoms: C_13  and  S_14
REMARK    9  A    between atoms: S_14  and  C_15
REMARK   10  A    between atoms: C_23  and  C_24
REMARK   11  A    between atoms: N_26  and  C_27
REMARK   12  A    between atoms: C_27  and  C_28
REMARK   13  A    between atoms: C_28  and  C_29
REMARK   14  A    between atoms: C_29  and  C_30
REMARK   15  A    between atoms: C_29  and  C_31
REMARK                            x       y       z     vdW  Elec       q    Type
REMARK                         _______ _______ _______ _____ _____    ______ ____
ROOT
ATOM      1  C   UNL     1       5.382   5.546  16.074  0.00  0.00    +0.000 A 
ATOM      2  O   UNL     1       5.519   6.892  15.916  0.00  0.00    +0.000 OA
ATOM      3  N   UNL     1       4.714   7.559  16.791  0.00  0.00    +0.000 NA
ATOM      4  C   UNL     1       4.025   6.629  17.474  0.00  0.00    +0.000 A 
ATOM      5  C   UNL     1       4.415   5.306  17.044  0.00  0.00    +0.000 A 
ENDROOT
BRANCH   1   7
ATOM      6  N   UNL     1       5.696   4.343  14.038  0.00  0.00    +0.000 N 
ATOM      7  C   UNL     1       6.229   4.711  15.256  0.00  0.00    +0.000 C 
ATOM      8  O   UNL     1       7.355   4.351  15.593  0.00  0.00    +0.000 OA
ATOM      9  H   UNL     1       4.752   4.640  13.812  0.00  0.00    +0.000 HD
BRANCH   6  10
ATOM     10  C   UNL     1       6.408   3.489  13.111  0.00  0.00    +0.000 C 
BRANCH  10  11
ATOM     11  C   UNL     1       5.474   2.767  12.137  0.00  0.00    +0.000 C 
BRANCH  11  13
ATOM     12  C   UNL     1       7.692   2.213  11.031  0.00  0.00    +0.000 C 
ATOM     13  C   UNL     1       6.190   1.931  11.058  0.00  0.00    +0.000 C 
ATOM     14  C   UNL     1       5.948   0.439  11.300  0.00  0.00    +0.000 C 
ENDBRANCH  11  13
ENDBRANCH  10  11
ENDBRANCH   6  10
ENDBRANCH   1   7
BRANCH   5  15
ATOM     15  C   UNL     1       3.893   4.049  17.555  0.00  0.00    +0.000 C 
ATOM     16  O   UNL     1       3.262   3.295  16.825  0.00  0.00    +0.000 OA
ATOM     17  N   UNL     1       4.125   3.735  18.880  0.00  0.00    +0.000 N 
ATOM     18  H   UNL     1       4.687   4.351  19.467  0.00  0.00    +0.000 HD
BRANCH  17  19
ATOM     19  C   UNL     1       3.737   2.466  19.459  0.00  0.00    +0.000 C 
BRANCH  19  20
ATOM     20  C   UNL     1       2.982   2.627  20.779  0.00  0.00    +0.000 C 
BRANCH  20  21
ATOM     21  C   UNL     1       1.480   2.929  20.617  0.00  0.00    +0.000 C 
ATOM     22  C   UNL     1       1.207   4.433  20.602  0.00  0.00    +0.000 C 
ATOM     23  C   UNL     1       0.955   2.294  19.327  0.00  0.00    +0.000 C 
ENDBRANCH  20  21
ENDBRANCH  19  20
ENDBRANCH  17  19
ENDBRANCH   5  15
BRANCH   4  24
ATOM     24  C   UNL     1       3.051   7.050  18.559  0.00  0.00    +0.000 C 
BRANCH  24  25
ATOM     25  S   UNL     1       2.027   8.481  17.997  0.00  0.00    +0.000 S 
BRANCH  25  26
ATOM     26  C   UNL     1       1.240   9.199  19.423  0.00  0.00    +0.000 A 
ATOM     27  C   UNL     1       1.247   8.363  20.559  0.00  0.00    +0.000 A 
ATOM     28  C   UNL     1       0.763   8.798  21.794  0.00  0.00    +0.000 A 
ATOM     29  C   UNL     1       0.248  10.078  21.898  0.00  0.00    +0.000 A 
ATOM     30  F   UNL     1      -0.173  10.520  23.092  0.00  0.00    +0.000 F 
ATOM     31  C   UNL     1       0.179  10.897  20.774  0.00  0.00    +0.000 A 
ATOM     32  F   UNL     1      -0.347  12.125  20.882  0.00  0.00    +0.000 F 
ATOM     33  C   UNL     1       0.667  10.466  19.533  0.00  0.00    +0.000 A 
ENDBRANCH  25  26
ENDBRANCH  24  25
ENDBRANCH   4  24
TORSDOF 11
ENDMDL
MODEL 8
REMARK VINA RESULT:      -7.5      4.379      7.269
REMARK  Name = 
REMARK  15 active torsions:
REMARK  status: ('A' for Active; 'I' for Inactive)
REMARK    1  A    between atoms: C_1  and  C_2
REMARK    2  A    between atoms: C_2  and  C_3
REMARK    3  A    between atoms: C_2  and  C_4
REMARK    4  A    between atoms: C_4  and  C_5
REMARK    5  A    between atoms: C_5  and  N_6
REMARK    6  A    between atoms: C_7  and  C_9
REMARK    7  A    between atoms: C_12  and  C_13
REMARK    8  A    between atoms: C_13  and  S_14
REMARK    9  A    between atoms: S_14  and  C_15
REMARK   10  A    between atoms: C_23  and  C_24
REMARK   11  A    between atoms: N_26  and  C_27
REMARK   12  A    between atoms: C_27  and  C_28
REMARK   13  A    between atoms: C_28  and  C_29
REMARK   14  A    between atoms: C_29  and  C_30
REMARK   15  A    between atoms: C_29  and  C_31
REMARK                            x       y       z     vdW  Elec       q    Type
REMARK                         _______ _______ _______ _____ _____    ______ ____
ROOT
ATOM      1  C   UNL     1       1.774   6.765  20.274  0.00  0.00    +0.000 A 
ATOM      2  O   UNL     1       1.008   7.349  21.238  0.00  0.00    +0.000 OA
ATOM      3  N   UNL     1       0.750   8.649  20.918  0.00  0.00    +0.000 NA
ATOM      4  C   UNL     1       1.397   8.904  19.768  0.00  0.00    +0.000 A 
ATOM      5  C   UNL     1       2.083   7.718  19.310  0.00  0.00    +0.000 A 
ENDROOT
BRANCH   1   7
ATOM      6  N   UNL     1       1.003   4.507  20.263  0.00  0.00    +0.000 N 
ATOM      7  C   UNL     1       2.070   5.363  20.448  0.00  0.00    +0.000 C 
ATOM      8  O   UNL     1       3.187   4.936  20.727  0.00  0.00    +0.000 OA
ATOM      9  H   UNL     1       0.092   4.905  20.061  0.00  0.00    +0.000 HD
BRANCH   6  10
ATOM     10  C   UNL     1       1.128   3.074  20.423  0.00  0.00    +0.000 C 
BRANCH  10  11
ATOM     11  C   UNL     1       1.394   2.353  19.099  0.00  0.00    +0.000 C 
BRANCH  11  13
ATOM     12  C   UNL     1       3.563   1.360  18.226  0.00  0.00    +0.000 C 
ATOM     13  C   UNL     1       2.771   2.645  18.472  0.00  0.00    +0.000 C 
ATOM     14  C   UNL     1       2.600   3.407  17.154  0.00  0.00    +0.000 C 
ENDBRANCH  11  13
ENDBRANCH  10  11
ENDBRANCH   6  10
ENDBRANCH   1   7
BRANCH   5  15
ATOM     15  C   UNL     1       2.885   7.603  18.103  0.00  0.00    +0.000 C 
ATOM     16  O   UNL     1       2.558   8.193  17.081  0.00  0.00    +0.000 OA
ATOM     17  N   UNL     1       4.016   6.812  18.142  0.00  0.00    +0.000 N 
ATOM     18  H   UNL     1       4.302   6.360  19.010  0.00  0.00    +0.000 HD
BRANCH  17  19
ATOM     19  C   UNL     1       4.936   6.714  17.029  0.00  0.00    +0.000 C 
BRANCH  19  20
ATOM     20  C   UNL     1       5.974   5.606  17.219  0.00  0.00    +0.000 C 
BRANCH  20  21
ATOM     21  C   UNL     1       7.359   6.106  17.672  0.00  0.00    +0.000 C 
ATOM     22  C   UNL     1       7.499   7.617  17.488  0.00  0.00    +0.000 C 
ATOM     23  C   UNL     1       7.594   5.738  19.139  0.00  0.00    +0.000 C 
ENDBRANCH  20  21
ENDBRANCH  19  20
ENDBRANCH  17  19
ENDBRANCH   5  15
BRANCH   4  24
ATOM     24  C   UNL     1       1.287  10.274  19.122  0.00  0.00    +0.000 C 
BRANCH  24  25
ATOM     25  S   UNL     1      -0.206  11.168  19.739  0.00  0.00    +0.000 S 
BRANCH  25  26
ATOM     26  C   UNL     1      -1.531  10.912  18.577  0.00  0.00    +0.000 A 
ATOM     27  C   UNL     1      -2.690  11.662  18.862  0.00  0.00    +0.000 A 
ATOM     28  C   UNL     1      -3.792  11.664  18.005  0.00  0.00    +0.000 A 
ATOM     29  C   UNL     1      -3.748  10.895  16.856  0.00  0.00    +0.000 A 
ATOM     30  F   UNL     1      -4.782  10.931  16.004  0.00  0.00    +0.000 F 
ATOM     31  C   UNL     1      -2.634  10.103  16.588  0.00  0.00    +0.000 A 
ATOM     32  F   UNL     1      -2.615   9.343  15.484  0.00  0.00    +0.000 F 
ATOM     33  C   UNL     1      -1.525  10.100  17.443  0.00  0.00    +0.000 A 
ENDBRANCH  25  26
ENDBRANCH  24  25
ENDBRANCH   4  24
TORSDOF 11
ENDMDL
MODEL 9
REMARK VINA RESULT:      -7.5      2.406      7.039
REMARK  Name = 
REMARK  15 active torsions:
REMARK  status: ('A' for Active; 'I' for Inactive)
REMARK    1  A    between atoms: C_1  and  C_2
REMARK    2  A    between atoms: C_2  and  C_3
REMARK    3  A    between atoms: C_2  and  C_4
REMARK    4  A    between atoms: C_4  and  C_5
REMARK    5  A    between atoms: C_5  and  N_6
REMARK    6  A    between atoms: C_7  and  C_9
REMARK    7  A    between atoms: C_12  and  C_13
REMARK    8  A    between atoms: C_13  and  S_14
REMARK    9  A    between atoms: S_14  and  C_15
REMARK   10  A    between atoms: C_23  and  C_24
REMARK   11  A    between atoms: N_26  and  C_27
REMARK   12  A    between atoms: C_27  and  C_28
REMARK   13  A    between atoms: C_28  and  C_29
REMARK   14  A    between atoms: C_29  and  C_30
REMARK   15  A    between atoms: C_29  and  C_31
REMARK                            x       y       z     vdW  Elec       q    Type
REMARK                         _______ _______ _______ _____ _____    ______ ____
ROOT
ATOM      1  C   UNL     1       6.429   4.601  16.010  0.00  0.00    +0.000 A 
ATOM      2  O   UNL     1       6.100   3.400  16.563  0.00  0.00    +0.000 OA
ATOM      3  N   UNL     1       5.727   3.561  17.864  0.00  0.00    +0.000 NA
ATOM      4  C   UNL     1       5.867   4.866  18.152  0.00  0.00    +0.000 A 
ATOM      5  C   UNL     1       6.326   5.586  16.987  0.00  0.00    +0.000 A 
ENDROOT
BRANCH   1   7
ATOM      6  N   UNL     1       6.078   3.695  13.831  0.00  0.00    +0.000 N 
ATOM      7  C   UNL     1       6.780   4.592  14.610  0.00  0.00    +0.000 C 
ATOM      8  O   UNL     1       7.630   5.331  14.120  0.00  0.00    +0.000 OA
ATOM      9  H   UNL     1       5.404   3.085  14.283  0.00  0.00    +0.000 HD
BRANCH   6  10
ATOM     10  C   UNL     1       6.326   3.546  12.413  0.00  0.00    +0.000 C 
BRANCH  10  11
ATOM     11  C   UNL     1       5.520   2.405  11.789  0.00  0.00    +0.000 C 
BRANCH  11  13
ATOM     12  C   UNL     1       7.825   1.803  10.910  0.00  0.00    +0.000 C 
ATOM     13  C   UNL     1       6.337   1.452  10.894  0.00  0.00    +0.000 C 
ATOM     14  C   UNL     1       6.142   0.004  11.350  0.00  0.00    +0.000 C 
ENDBRANCH  11  13
ENDBRANCH  10  11
ENDBRANCH   6  10
ENDBRANCH   1   7
BRANCH   5  15
ATOM     15  C   UNL     1       6.589   7.014  16.909  0.00  0.00    +0.000 C 
ATOM     16  O   UNL     1       5.914   7.731  16.181  0.00  0.00    +0.000 OA
ATOM     17  N   UNL     1       7.615   7.532  17.673  0.00  0.00    +0.000 N 
ATOM     18  H   UNL     1       8.142   6.932  18.308  0.00  0.00    +0.000 HD
BRANCH  17  19
ATOM     19  C   UNL     1       7.891   8.951  17.746  0.00  0.00    +0.000 C 
BRANCH  19  20
ATOM     20  C   UNL     1       9.073   9.275  18.663  0.00  0.00    +0.000 C 
BRANCH  20  21
ATOM     21  C   UNL     1       9.276  10.779  18.927  0.00  0.00    +0.000 C 
ATOM     22  C   UNL     1       9.305  11.089  20.423  0.00  0.00    +0.000 C 
ATOM     23  C   UNL     1      10.575  11.255  18.273  0.00  0.00    +0.000 C 
ENDBRANCH  20  21
ENDBRANCH  19  20
ENDBRANCH  17  19
ENDBRANCH   5  15
BRANCH   4  24
ATOM     24  C   UNL     1       5.501   5.383  19.532  0.00  0.00    +0.000 C 
BRANCH  24  25
ATOM     25  S   UNL     1       3.838   6.185  19.507  0.00  0.00    +0.000 S 
BRANCH  25  26
ATOM     26  C   UNL     1       2.602   4.907  19.428  0.00  0.00    +0.000 A 
ATOM     27  C   UNL     1       2.255   4.531  18.114  0.00  0.00    +0.000 A 
ATOM     28  C   UNL     1       1.376   3.477  17.859  0.00  0.00    +0.000 A 
ATOM     29  C   UNL     1       0.820   2.796  18.928  0.00  0.00    +0.000 A 
ATOM     30  F   UNL     1       0.015   1.751  18.691  0.00  0.00    +0.000 F 
ATOM     31  C   UNL     1       1.106   3.191  20.232  0.00  0.00    +0.000 A 
ATOM     32  F   UNL     1       0.540   2.539  21.258  0.00  0.00    +0.000 F 
ATOM     33  C   UNL     1       1.989   4.246  20.493  0.00  0.00    +0.000 A 
ENDBRANCH  25  26
ENDBRANCH  24  25
ENDBRANCH   4  24
TORSDOF 11
ENDMDL
