MODEL 1
REMARK VINA RESULT:      -8.6      0.000      0.000
REMARK  Name = 
REMARK  7 active torsions:
REMARK  status: ('A' for Active; 'I' for Inactive)
REMARK    1  A    between atoms: C_2  and  C_3
REMARK    2  A    between atoms: C_7  and  C_8
REMARK    3  A    between atoms: C_8  and  O_9
REMARK    4  A    between atoms: O_9  and  C_10
REMARK    5  A    between atoms: CA_20  and  CB_21
REMARK    6  A    between atoms: CB_21  and  OG_22
REMARK    7  A    between atoms: N_23  and  C_24
REMARK                            x       y       z     vdW  Elec       q    Type
REMARK                         _______ _______ _______ _____ _____    ______ ____
ROOT
ATOM      1  C   UNK A   1       2.503   5.317  18.525  0.00  0.00    +0.000 A 
ATOM      2  C   UNK A   1       2.068   4.804  19.743  0.00  0.00    +0.000 A 
ATOM      3  C   UNK A   1       1.478   5.654  20.689  0.00  0.00    +0.000 A 
ATOM      4  C   UNK A   1       1.343   7.026  20.426  0.00  0.00    +0.000 A 
ATOM      5  C   UNK A   1       1.800   7.542  19.206  0.00  0.00    +0.000 A 
ATOM      6  C   UNK A   1       2.394   6.683  18.278  0.00  0.00    +0.000 A 
ATOM      7  C   UNK A   1       1.754   9.012  18.868  0.00  0.00    +0.000 C 
ATOM      8  N   UNK A   1       0.911   9.777  19.770  0.00  0.00    +0.000 N 
ATOM      9  C   SER A   2      -0.244  10.356  19.286  0.00  0.00    +0.000 C 
ATOM     10  O   SER A   2      -0.561  10.308  18.097  0.00  0.00    +0.000 OA
ATOM     11  CA  SER A   2      -0.988  11.290  20.262  0.00  0.00    +0.000 C 
ATOM     12  N   SER A   2      -0.672  11.172  21.711  0.00  0.00    +0.000 N 
ATOM     13  C   UNK A   1       0.311  10.312  22.183  0.00  0.00    +0.000 C 
ATOM     14  O   UNK A   1       0.538  10.164  23.387  0.00  0.00    +0.000 OA
ATOM     15  C   UNK A   1       1.045   9.425  21.178  0.00  0.00    +0.000 C 
ATOM     16  C   UNK A   1       0.682   7.947  21.427  0.00  0.00    +0.000 C 
ENDROOT
BRANCH  12  17
ATOM     17  C   UNK A   0      -1.432  11.930  22.728  0.00  0.00    +0.000 C 
ATOM     18  C   UNK A   0      -0.871  13.317  23.054  0.00  0.00    +0.000 C 
ATOM     19  C   UNK A   0      -2.020  14.057  23.731  0.00  0.00    +0.000 C 
ATOM     20  C   UNK A   0      -3.307  13.329  23.353  0.00  0.00    +0.000 C 
ATOM     21  C   UNK A   0      -2.916  12.159  22.456  0.00  0.00    +0.000 C 
ENDBRANCH  12  17
BRANCH   1  22
ATOM     22  O   UNK A   1       3.042   4.450  17.612  0.00  0.00    +0.000 OA
BRANCH  22  23
ATOM     23  C   UNK A   1       4.327   3.925  17.995  0.00  0.00    +0.000 C 
BRANCH  23  28
ATOM     24  C   UNK A   1       6.214   4.212  14.710  0.00  0.00    +0.000 A 
ATOM     25  C   UNK A   1       7.247   5.084  15.052  0.00  0.00    +0.000 A 
ATOM     26  C   UNK A   1       7.340   5.570  16.354  0.00  0.00    +0.000 A 
ATOM     27  C   UNK A   1       6.406   5.177  17.314  0.00  0.00    +0.000 A 
ATOM     28  C   UNK A   1       5.371   4.292  16.976  0.00  0.00    +0.000 A 
ATOM     29  C   UNK A   1       5.272   3.826  15.657  0.00  0.00    +0.000 A 
BRANCH  24  31
ATOM     30  N   UNK A   1       6.040   3.300  12.292  0.00  0.00    +0.000 NA
ATOM     31  C   UNK A   1       6.118   3.708  13.368  0.00  0.00    +0.000 C 
ENDBRANCH  24  31
ENDBRANCH  23  28
ENDBRANCH  22  23
ENDBRANCH   1  22
BRANCH  11  32
ATOM     32  CB  SER A   2      -0.825  12.719  19.681  0.00  0.00    +0.000 C 
BRANCH  32  33
ATOM     33  OG  SER A   2      -1.503  12.921  18.439  0.00  0.00    +0.000 OA
ATOM     34  H   SER A   2      -0.928  12.634  17.708  0.00  0.00    +0.000 HD
ENDBRANCH  32  33
ENDBRANCH  11  32
TORSDOF 7
ENDMDL
MODEL 2
REMARK VINA RESULT:      -8.5      1.436      1.882
REMARK  Name = 
REMARK  7 active torsions:
REMARK  status: ('A' for Active; 'I' for Inactive)
REMARK    1  A    between atoms: C_2  and  C_3
REMARK    2  A    between atoms: C_7  and  C_8
REMARK    3  A    between atoms: C_8  and  O_9
REMARK    4  A    between atoms: O_9  and  C_10
REMARK    5  A    between atoms: CA_20  and  CB_21
REMARK    6  A    between atoms: CB_21  and  OG_22
REMARK    7  A    between atoms: N_23  and  C_24
REMARK                            x       y       z     vdW  Elec       q    Type
REMARK                         _______ _______ _______ _____ _____    ______ ____
ROOT
ATOM      1  C   UNK A   1       2.461   4.904  18.619  0.00  0.00    +0.000 A 
ATOM      2  C   UNK A   1       2.001   4.454  19.854  0.00  0.00    +0.000 A 
ATOM      3  C   UNK A   1       1.455   5.363  20.770  0.00  0.00    +0.000 A 
ATOM      4  C   UNK A   1       1.387   6.731  20.461  0.00  0.00    +0.000 A 
ATOM      5  C   UNK A   1       1.869   7.182  19.225  0.00  0.00    +0.000 A 
ATOM      6  C   UNK A   1       2.419   6.265  18.327  0.00  0.00    +0.000 A 
ATOM      7  C   UNK A   1       1.895   8.640  18.838  0.00  0.00    +0.000 C 
ATOM      8  N   UNK A   1       1.092   9.476  19.713  0.00  0.00    +0.000 N 
ATOM      9  C   SER A   2      -0.033  10.095  19.209  0.00  0.00    +0.000 C 
ATOM     10  O   SER A   2      -0.352  10.023  18.022  0.00  0.00    +0.000 OA
ATOM     11  CA  SER A   2      -0.730  11.097  20.152  0.00  0.00    +0.000 C 
ATOM     12  N   SER A   2      -0.419  11.012  21.604  0.00  0.00    +0.000 N 
ATOM     13  C   UNK A   1       0.521  10.120  22.106  0.00  0.00    +0.000 C 
ATOM     14  O   UNK A   1       0.740  10.002  23.315  0.00  0.00    +0.000 OA
ATOM     15  C   UNK A   1       1.209   9.165  21.132  0.00  0.00    +0.000 C 
ATOM     16  C   UNK A   1       0.773   7.716  21.430  0.00  0.00    +0.000 C 
ENDROOT
BRANCH  12  17
ATOM     17  C   UNK A   0      -1.140  11.840  22.595  0.00  0.00    +0.000 C 
ATOM     18  C   UNK A   0      -0.614  13.271  22.747  0.00  0.00    +0.000 C 
ATOM     19  C   UNK A   0      -1.745  14.035  23.429  0.00  0.00    +0.000 C 
ATOM     20  C   UNK A   0      -3.024  13.231  23.211  0.00  0.00    +0.000 C 
ATOM     21  C   UNK A   0      -2.647  11.993  22.406  0.00  0.00    +0.000 C 
ENDBRANCH  12  17
BRANCH   1  22
ATOM     22  O   UNK A   1       2.955   3.981  17.736  0.00  0.00    +0.000 OA
BRANCH  22  23
ATOM     23  C   UNK A   1       4.297   3.551  18.033  0.00  0.00    +0.000 C 
BRANCH  23  28
ATOM     24  C   UNK A   1       6.880   6.091  16.888  0.00  0.00    +0.000 A 
ATOM     25  C   UNK A   1       7.229   5.595  15.633  0.00  0.00    +0.000 A 
ATOM     26  C   UNK A   1       6.617   4.441  15.151  0.00  0.00    +0.000 A 
ATOM     27  C   UNK A   1       5.650   3.790  15.919  0.00  0.00    +0.000 A 
ATOM     28  C   UNK A   1       5.289   4.293  17.179  0.00  0.00    +0.000 A 
ATOM     29  C   UNK A   1       5.928   5.441  17.666  0.00  0.00    +0.000 A 
BRANCH  24  31
ATOM     30  N   UNK A   1       8.015   8.240  17.785  0.00  0.00    +0.000 NA
ATOM     31  C   UNK A   1       7.510   7.282  17.387  0.00  0.00    +0.000 C 
ENDBRANCH  24  31
ENDBRANCH  23  28
ENDBRANCH  22  23
ENDBRANCH   1  22
BRANCH  11  32
ATOM     32  CB  SER A   2      -0.496  12.496  19.523  0.00  0.00    +0.000 C 
BRANCH  32  33
ATOM     33  OG  SER A   2      -1.661  13.060  18.915  0.00  0.00    +0.000 OA
ATOM     34  H   SER A   2      -1.428  13.409  18.037  0.00  0.00    +0.000 HD
ENDBRANCH  32  33
ENDBRANCH  11  32
TORSDOF 7
ENDMDL
MODEL 3
REMARK VINA RESULT:      -8.5      0.788      1.034
REMARK  Name = 
REMARK  7 active torsions:
REMARK  status: ('A' for Active; 'I' for Inactive)
REMARK    1  A    between atoms: C_2  and  C_3
REMARK    2  A    between atoms: C_7  and  C_8
REMARK    3  A    between atoms: C_8  and  O_9
REMARK    4  A    between atoms: O_9  and  C_10
REMARK    5  A    between atoms: CA_20  and  CB_21
REMARK    6  A    between atoms: CB_21  and  OG_22
REMARK    7  A    between atoms: N_23  and  C_24
REMARK                            x       y       z     vdW  Elec       q    Type
REMARK                         _______ _______ _______ _____ _____    ______ ____
ROOT
ATOM      1  C   UNK A   1       2.638   5.002  18.645  0.00  0.00    +0.000 A 
ATOM      2  C   UNK A   1       2.301   4.775  19.976  0.00  0.00    +0.000 A 
ATOM      3  C   UNK A   1       1.748   5.810  20.743  0.00  0.00    +0.000 A 
ATOM      4  C   UNK A   1       1.552   7.083  20.185  0.00  0.00    +0.000 A 
ATOM      5  C   UNK A   1       1.912   7.313  18.850  0.00  0.00    +0.000 A 
ATOM      6  C   UNK A   1       2.470   6.274  18.102  0.00  0.00    +0.000 A 
ATOM      7  C   UNK A   1       1.796   8.665  18.191  0.00  0.00    +0.000 C 
ATOM      8  N   UNK A   1       0.991   9.603  18.953  0.00  0.00    +0.000 N 
ATOM      9  C   SER A   2      -0.211  10.038  18.434  0.00  0.00    +0.000 C 
ATOM     10  O   SER A   2      -0.604   9.713  17.313  0.00  0.00    +0.000 OA
ATOM     11  CA  SER A   2      -0.919  11.159  19.222  0.00  0.00    +0.000 C 
ATOM     12  N   SER A   2      -0.505  11.381  20.633  0.00  0.00    +0.000 N 
ATOM     13  C   UNK A   1       0.535  10.667  21.217  0.00  0.00    +0.000 C 
ATOM     14  O   UNK A   1       0.845  10.803  22.404  0.00  0.00    +0.000 OA
ATOM     15  C   UNK A   1       1.228   9.585  20.390  0.00  0.00    +0.000 C 
ATOM     16  C   UNK A   1       0.929   8.198  20.995  0.00  0.00    +0.000 C 
ENDROOT
BRANCH  12  17
ATOM     17  C   UNK A   0      -1.219  12.339  21.503  0.00  0.00    +0.000 C 
ATOM     18  C   UNK A   0      -1.966  11.708  22.682  0.00  0.00    +0.000 C 
ATOM     19  C   UNK A   0      -2.211  12.859  23.653  0.00  0.00    +0.000 C 
ATOM     20  C   UNK A   0      -1.220  13.965  23.298  0.00  0.00    +0.000 C 
ATOM     21  C   UNK A   0      -0.394  13.466  22.117  0.00  0.00    +0.000 C 
ENDBRANCH  12  17
BRANCH   1  22
ATOM     22  O   UNK A   1       3.143   3.958  17.917  0.00  0.00    +0.000 OA
BRANCH  22  23
ATOM     23  C   UNK A   1       4.502   3.618  18.250  0.00  0.00    +0.000 C 
BRANCH  23  28
ATOM     24  C   UNK A   1       6.250   4.311  14.949  0.00  0.00    +0.000 A 
ATOM     25  C   UNK A   1       7.135   5.329  15.304  0.00  0.00    +0.000 A 
ATOM     26  C   UNK A   1       7.173   5.783  16.620  0.00  0.00    +0.000 A 
ATOM     27  C   UNK A   1       6.335   5.214  17.580  0.00  0.00    +0.000 A 
ATOM     28  C   UNK A   1       5.452   4.182  17.228  0.00  0.00    +0.000 A 
ATOM     29  C   UNK A   1       5.403   3.748  15.897  0.00  0.00    +0.000 A 
BRANCH  24  31
ATOM     30  N   UNK A   1       6.174   3.460  12.504  0.00  0.00    +0.000 NA
ATOM     31  C   UNK A   1       6.210   3.840  13.593  0.00  0.00    +0.000 C 
ENDBRANCH  24  31
ENDBRANCH  23  28
ENDBRANCH  22  23
ENDBRANCH   1  22
BRANCH  11  32
ATOM     32  CB  SER A   2      -0.839  12.419  18.320  0.00  0.00    +0.000 C 
BRANCH  32  33
ATOM     33  OG  SER A   2      -1.576  12.306  17.100  0.00  0.00    +0.000 OA
ATOM     34  H   SER A   2      -2.266  12.992  17.076  0.00  0.00    +0.000 HD
ENDBRANCH  32  33
ENDBRANCH  11  32
TORSDOF 7
ENDMDL
MODEL 4
REMARK VINA RESULT:      -8.4      1.054      1.280
REMARK  Name = 
REMARK  7 active torsions:
REMARK  status: ('A' for Active; 'I' for Inactive)
REMARK    1  A    between atoms: C_2  and  C_3
REMARK    2  A    between atoms: C_7  and  C_8
REMARK    3  A    between atoms: C_8  and  O_9
REMARK    4  A    between atoms: O_9  and  C_10
REMARK    5  A    between atoms: CA_20  and  CB_21
REMARK    6  A    between atoms: CB_21  and  OG_22
REMARK    7  A    between atoms: N_23  and  C_24
REMARK                            x       y       z     vdW  Elec       q    Type
REMARK                         _______ _______ _______ _____ _____    ______ ____
ROOT
ATOM      1  C   UNK A   1       2.275   4.519  18.409  0.00  0.00    +0.000 A 
ATOM      2  C   UNK A   1       1.832   4.125  19.668  0.00  0.00    +0.000 A 
ATOM      3  C   UNK A   1       1.401   5.090  20.590  0.00  0.00    +0.000 A 
ATOM      4  C   UNK A   1       1.434   6.454  20.261  0.00  0.00    +0.000 A 
ATOM      5  C   UNK A   1       1.900   6.846  18.999  0.00  0.00    +0.000 A 
ATOM      6  C   UNK A   1       2.334   5.874  18.095  0.00  0.00    +0.000 A 
ATOM      7  C   UNK A   1       2.030   8.292  18.587  0.00  0.00    +0.000 C 
ATOM      8  N   UNK A   1       1.336   9.203  19.479  0.00  0.00    +0.000 N 
ATOM      9  C   SER A   2       0.246   9.907  19.011  0.00  0.00    +0.000 C 
ATOM     10  O   SER A   2      -0.128   9.846  17.839  0.00  0.00    +0.000 OA
ATOM     11  CA  SER A   2      -0.326  10.977  19.964  0.00  0.00    +0.000 C 
ATOM     12  N   SER A   2       0.037  10.886  21.404  0.00  0.00    +0.000 N 
ATOM     13  C   UNK A   1       0.920   9.926  21.882  0.00  0.00    +0.000 C 
ATOM     14  O   UNK A   1       1.179   9.806  23.083  0.00  0.00    +0.000 OA
ATOM     15  C   UNK A   1       1.486   8.903  20.897  0.00  0.00    +0.000 C 
ATOM     16  C   UNK A   1       0.944   7.500  21.238  0.00  0.00    +0.000 C 
ENDROOT
BRANCH  12  17
ATOM     17  C   UNK A   0      -0.571  11.784  22.408  0.00  0.00    +0.000 C 
ATOM     18  C   UNK A   0      -0.343  13.279  22.161  0.00  0.00    +0.000 C 
ATOM     19  C   UNK A   0      -1.403  13.982  23.004  0.00  0.00    +0.000 C 
ATOM     20  C   UNK A   0      -2.492  12.955  23.304  0.00  0.00    +0.000 C 
ATOM     21  C   UNK A   0      -2.073  11.648  22.641  0.00  0.00    +0.000 C 
ENDBRANCH  12  17
BRANCH   1  22
ATOM     22  O   UNK A   1       2.655   3.546  17.523  0.00  0.00    +0.000 OA
BRANCH  22  23
ATOM     23  C   UNK A   1       3.866   2.861  17.893  0.00  0.00    +0.000 C 
BRANCH  23  28
ATOM     24  C   UNK A   1       6.665   4.901  16.332  0.00  0.00    +0.000 A 
ATOM     25  C   UNK A   1       7.185   5.564  17.442  0.00  0.00    +0.000 A 
ATOM     26  C   UNK A   1       6.636   5.340  18.702  0.00  0.00    +0.000 A 
ATOM     27  C   UNK A   1       5.574   4.447  18.852  0.00  0.00    +0.000 A 
ATOM     28  C   UNK A   1       5.054   3.770  17.738  0.00  0.00    +0.000 A 
ATOM     29  C   UNK A   1       5.598   4.019  16.471  0.00  0.00    +0.000 A 
BRANCH  24  31
ATOM     30  N   UNK A   1       7.682   5.314  13.986  0.00  0.00    +0.000 NA
ATOM     31  C   UNK A   1       7.231   5.129  15.031  0.00  0.00    +0.000 C 
ENDBRANCH  24  31
ENDBRANCH  23  28
ENDBRANCH  22  23
ENDBRANCH   1  22
BRANCH  11  32
ATOM     32  CB  SER A   2      -0.004  12.343  19.303  0.00  0.00    +0.000 C 
BRANCH  32  33
ATOM     33  OG  SER A   2      -0.654  12.546  18.046  0.00  0.00    +0.000 OA
ATOM     34  H   SER A   2       0.003  12.496  17.331  0.00  0.00    +0.000 HD
ENDBRANCH  32  33
ENDBRANCH  11  32
TORSDOF 7
ENDMDL
MODEL 5
REMARK VINA RESULT:      -8.4      2.167      2.702
REMARK  Name = 
REMARK  7 active torsions:
REMARK  status: ('A' for Active; 'I' for Inactive)
REMARK    1  A    between atoms: C_2  and  C_3
REMARK    2  A    between atoms: C_7  and  C_8
REMARK    3  A    between atoms: C_8  and  O_9
REMARK    4  A    between atoms: O_9  and  C_10
REMARK    5  A    between atoms: CA_20  and  CB_21
REMARK    6  A    between atoms: CB_21  and  OG_22
REMARK    7  A    between atoms: N_23  and  C_24
REMARK                            x       y       z     vdW  Elec       q    Type
REMARK                         _______ _______ _______ _____ _____    ______ ____
ROOT
ATOM      1  C   UNK A   1       3.099   5.757  18.311  0.00  0.00    +0.000 A 
ATOM      2  C   UNK A   1       2.887   5.437  19.648  0.00  0.00    +0.000 A 
ATOM      3  C   UNK A   1       2.208   6.335  20.483  0.00  0.00    +0.000 A 
ATOM      4  C   UNK A   1       1.759   7.568  19.986  0.00  0.00    +0.000 A 
ATOM      5  C   UNK A   1       1.992   7.895  18.643  0.00  0.00    +0.000 A 
ATOM      6  C   UNK A   1       2.678   6.993  17.827  0.00  0.00    +0.000 A 
ATOM      7  C   UNK A   1       1.602   9.224  18.043  0.00  0.00    +0.000 C 
ATOM      8  N   UNK A   1       0.692   9.982  18.883  0.00  0.00    +0.000 N 
ATOM      9  C   SER A   2      -0.597  10.212  18.446  0.00  0.00    +0.000 C 
ATOM     10  O   SER A   2      -0.993   9.854  17.336  0.00  0.00    +0.000 OA
ATOM     11  CA  SER A   2      -1.442  11.167  19.313  0.00  0.00    +0.000 C 
ATOM     12  N   SER A   2      -0.989  11.419  20.708  0.00  0.00    +0.000 N 
ATOM     13  C   UNK A   1       0.192  10.885  21.207  0.00  0.00    +0.000 C 
ATOM     14  O   UNK A   1       0.544  11.040  22.380  0.00  0.00    +0.000 OA
ATOM     15  C   UNK A   1       1.014   9.967  20.304  0.00  0.00    +0.000 C 
ATOM     16  C   UNK A   1       1.000   8.532  20.870  0.00  0.00    +0.000 C 
ENDROOT
BRANCH  12  17
ATOM     17  C   UNK A   0      -1.808  12.210  21.651  0.00  0.00    +0.000 C 
ATOM     18  C   UNK A   0      -3.213  12.560  21.152  0.00  0.00    +0.000 C 
ATOM     19  C   UNK A   0      -3.993  12.940  22.407  0.00  0.00    +0.000 C 
ATOM     20  C   UNK A   0      -3.242  12.350  23.597  0.00  0.00    +0.000 C 
ATOM     21  C   UNK A   0      -2.019  11.626  23.045  0.00  0.00    +0.000 C 
ENDBRANCH  12  17
BRANCH   1  22
ATOM     22  O   UNK A   1       3.735   4.840  17.517  0.00  0.00    +0.000 OA
BRANCH  22  23
ATOM     23  C   UNK A   1       4.694   5.418  16.612  0.00  0.00    +0.000 C 
BRANCH  23  28
ATOM     24  C   UNK A   1       7.572   7.461  18.018  0.00  0.00    +0.000 A 
ATOM     25  C   UNK A   1       8.220   6.523  18.821  0.00  0.00    +0.000 A 
ATOM     26  C   UNK A   1       7.730   5.222  18.896  0.00  0.00    +0.000 A 
ATOM     27  C   UNK A   1       6.600   4.857  18.163  0.00  0.00    +0.000 A 
ATOM     28  C   UNK A   1       5.951   5.795  17.346  0.00  0.00    +0.000 A 
ATOM     29  C   UNK A   1       6.437   7.109  17.295  0.00  0.00    +0.000 A 
BRANCH  24  31
ATOM     30  N   UNK A   1       8.478   9.883  17.869  0.00  0.00    +0.000 NA
ATOM     31  C   UNK A   1       8.075   8.804  17.937  0.00  0.00    +0.000 C 
ENDBRANCH  24  31
ENDBRANCH  23  28
ENDBRANCH  22  23
ENDBRANCH   1  22
BRANCH  11  32
ATOM     32  CB  SER A   2      -1.639  12.446  18.458  0.00  0.00    +0.000 C 
BRANCH  32  33
ATOM     33  OG  SER A   2      -0.556  12.718  17.564  0.00  0.00    +0.000 OA
ATOM     34  H   SER A   2      -0.619  12.127  16.794  0.00  0.00    +0.000 HD
ENDBRANCH  32  33
ENDBRANCH  11  32
TORSDOF 7
ENDMDL
MODEL 6
REMARK VINA RESULT:      -8.3      0.871      1.036
REMARK  Name = 
REMARK  7 active torsions:
REMARK  status: ('A' for Active; 'I' for Inactive)
REMARK    1  A    between atoms: C_2  and  C_3
REMARK    2  A    between atoms: C_7  and  C_8
REMARK    3  A    between atoms: C_8  and  O_9
REMARK    4  A    between atoms: O_9  and  C_10
REMARK    5  A    between atoms: CA_20  and  CB_21
REMARK    6  A    between atoms: CB_21  and  OG_22
REMARK    7  A    between atoms: N_23  and  C_24
REMARK                            x       y       z     vdW  Elec       q    Type
REMARK                         _______ _______ _______ _____ _____    ______ ____
ROOT
ATOM      1  C   UNK A   1       2.831   5.291  19.293  0.00  0.00    +0.000 A 
ATOM      2  C   UNK A   1       2.277   4.991  20.534  0.00  0.00    +0.000 A 
ATOM      3  C   UNK A   1       1.543   5.965  21.226  0.00  0.00    +0.000 A 
ATOM      4  C   UNK A   1       1.380   7.250  20.686  0.00  0.00    +0.000 A 
ATOM      5  C   UNK A   1       1.956   7.554  19.445  0.00  0.00    +0.000 A 
ATOM      6  C   UNK A   1       2.692   6.575  18.773  0.00  0.00    +0.000 A 
ATOM      7  C   UNK A   1       1.886   8.926  18.823  0.00  0.00    +0.000 C 
ATOM      8  N   UNK A   1       0.910   9.792  19.461  0.00  0.00    +0.000 N 
ATOM      9  C   SER A   2      -0.204  10.192  18.752  0.00  0.00    +0.000 C 
ATOM     10  O   SER A   2      -0.375   9.898  17.568  0.00  0.00    +0.000 OA
ATOM     11  CA  SER A   2      -1.098  11.244  19.439  0.00  0.00    +0.000 C 
ATOM     12  N   SER A   2      -0.951  11.424  20.908  0.00  0.00    +0.000 N 
ATOM     13  C   UNK A   1       0.006  10.734  21.643  0.00  0.00    +0.000 C 
ATOM     14  O   UNK A   1       0.095  10.833  22.870  0.00  0.00    +0.000 OA
ATOM     15  C   UNK A   1       0.891   9.723  20.916  0.00  0.00    +0.000 C 
ATOM     16  C   UNK A   1       0.566   8.299  21.410  0.00  0.00    +0.000 C 
ENDROOT
BRANCH  12  17
ATOM     17  C   UNK A   0      -1.858  12.308  21.670  0.00  0.00    +0.000 C 
ATOM     18  C   UNK A   0      -3.180  12.637  20.969  0.00  0.00    +0.000 C 
ATOM     19  C   UNK A   0      -4.100  13.139  22.078  0.00  0.00    +0.000 C 
ATOM     20  C   UNK A   0      -3.519  12.643  23.400  0.00  0.00    +0.000 C 
ATOM     21  C   UNK A   0      -2.258  11.852  23.070  0.00  0.00    +0.000 C 
ENDBRANCH  12  17
BRANCH   1  22
ATOM     22  O   UNK A   1       3.511   4.304  18.631  0.00  0.00    +0.000 OA
BRANCH  22  23
ATOM     23  C   UNK A   1       3.404   4.383  17.197  0.00  0.00    +0.000 C 
BRANCH  23  28
ATOM     24  C   UNK A   1       6.215   4.263  14.644  0.00  0.00    +0.000 A 
ATOM     25  C   UNK A   1       7.286   4.772  15.377  0.00  0.00    +0.000 A 
ATOM     26  C   UNK A   1       7.100   5.144  16.706  0.00  0.00    +0.000 A 
ATOM     27  C   UNK A   1       5.847   4.997  17.303  0.00  0.00    +0.000 A 
ATOM     28  C   UNK A   1       4.769   4.475  16.572  0.00  0.00    +0.000 A 
ATOM     29  C   UNK A   1       4.960   4.126  15.228  0.00  0.00    +0.000 A 
BRANCH  24  31
ATOM     30  N   UNK A   1       6.556   3.571  12.171  0.00  0.00    +0.000 NA
ATOM     31  C   UNK A   1       6.404   3.877  13.273  0.00  0.00    +0.000 C 
ENDBRANCH  24  31
ENDBRANCH  23  28
ENDBRANCH  22  23
ENDBRANCH   1  22
BRANCH  11  32
ATOM     32  CB  SER A   2      -0.929  12.544  18.610  0.00  0.00    +0.000 C 
BRANCH  32  33
ATOM     33  OG  SER A   2      -1.486  12.469  17.296  0.00  0.00    +0.000 OA
ATOM     34  H   SER A   2      -0.979  13.047  16.698  0.00  0.00    +0.000 HD
ENDBRANCH  32  33
ENDBRANCH  11  32
TORSDOF 7
ENDMDL
MODEL 7
REMARK VINA RESULT:      -8.2      1.354      2.732
REMARK  Name = 
REMARK  7 active torsions:
REMARK  status: ('A' for Active; 'I' for Inactive)
REMARK    1  A    between atoms: C_2  and  C_3
REMARK    2  A    between atoms: C_7  and  C_8
REMARK    3  A    between atoms: C_8  and  O_9
REMARK    4  A    between atoms: O_9  and  C_10
REMARK    5  A    between atoms: CA_20  and  CB_21
REMARK    6  A    between atoms: CB_21  and  OG_22
REMARK    7  A    between atoms: N_23  and  C_24
REMARK                            x       y       z     vdW  Elec       q    Type
REMARK                         _______ _______ _______ _____ _____    ______ ____
ROOT
ATOM      1  C   UNK A   1       3.876   6.070  18.690  0.00  0.00    +0.000 A 
ATOM      2  C   UNK A   1       3.901   6.864  17.547  0.00  0.00    +0.000 A 
ATOM      3  C   UNK A   1       3.063   7.985  17.456  0.00  0.00    +0.000 A 
ATOM      4  C   UNK A   1       2.181   8.301  18.500  0.00  0.00    +0.000 A 
ATOM      5  C   UNK A   1       2.144   7.486  19.641  0.00  0.00    +0.000 A 
ATOM      6  C   UNK A   1       2.979   6.369  19.712  0.00  0.00    +0.000 A 
ATOM      7  C   UNK A   1       1.181   7.714  20.780  0.00  0.00    +0.000 C 
ATOM      8  N   UNK A   1       0.539   9.016  20.731  0.00  0.00    +0.000 N 
ATOM      9  C   SER A   2       0.814   9.941  21.717  0.00  0.00    +0.000 C 
ATOM     10  O   SER A   2       1.536   9.686  22.681  0.00  0.00    +0.000 OA
ATOM     11  CA  SER A   2      -0.035  11.228  21.688  0.00  0.00    +0.000 C 
ATOM     12  N   SER A   2      -0.748  11.560  20.425  0.00  0.00    +0.000 N 
ATOM     13  C   UNK A   1      -0.725  10.714  19.322  0.00  0.00    +0.000 C 
ATOM     14  O   UNK A   1      -1.264  11.009  18.252  0.00  0.00    +0.000 OA
ATOM     15  C   UNK A   1       0.106   9.434  19.405  0.00  0.00    +0.000 C 
ATOM     16  C   UNK A   1       1.293   9.523  18.425  0.00  0.00    +0.000 C 
ENDROOT
BRANCH  12  17
ATOM     17  C   UNK A   0      -1.473  12.837  20.263  0.00  0.00    +0.000 C 
ATOM     18  C   UNK A   0      -2.930  12.819  20.737  0.00  0.00    +0.000 C 
ATOM     19  C   UNK A   0      -3.307  14.287  20.907  0.00  0.00    +0.000 C 
ATOM     20  C   UNK A   0      -2.004  15.074  21.026  0.00  0.00    +0.000 C 
ATOM     21  C   UNK A   0      -0.861  14.070  20.922  0.00  0.00    +0.000 C 
ENDBRANCH  12  17
BRANCH   1  22
ATOM     22  O   UNK A   1       4.733   5.005  18.758  0.00  0.00    +0.000 OA
BRANCH  22  23
ATOM     23  C   UNK A   1       4.497   4.001  17.754  0.00  0.00    +0.000 C 
BRANCH  23  28
ATOM     24  C   UNK A   1       5.929   4.010  14.235  0.00  0.00    +0.000 A 
ATOM     25  C   UNK A   1       7.163   4.629  14.433  0.00  0.00    +0.000 A 
ATOM     26  C   UNK A   1       7.537   5.033  15.712  0.00  0.00    +0.000 A 
ATOM     27  C   UNK A   1       6.683   4.810  16.792  0.00  0.00    +0.000 A 
ATOM     28  C   UNK A   1       5.445   4.178  16.599  0.00  0.00    +0.000 A 
ATOM     29  C   UNK A   1       5.067   3.796  15.305  0.00  0.00    +0.000 A 
BRANCH  24  31
ATOM     30  N   UNK A   1       5.227   3.253  11.860  0.00  0.00    +0.000 NA
ATOM     31  C   UNK A   1       5.542   3.591  12.917  0.00  0.00    +0.000 C 
ENDBRANCH  24  31
ENDBRANCH  23  28
ENDBRANCH  22  23
ENDBRANCH   1  22
BRANCH  11  32
ATOM     32  CB  SER A   2      -0.946  11.157  22.942  0.00  0.00    +0.000 C 
BRANCH  32  33
ATOM     33  OG  SER A   2      -1.100   9.839  23.473  0.00  0.00    +0.000 OA
ATOM     34  H   SER A   2      -1.548   9.278  22.816  0.00  0.00    +0.000 HD
ENDBRANCH  32  33
ENDBRANCH  11  32
TORSDOF 7
ENDMDL
MODEL 8
REMARK VINA RESULT:      -8.1      1.528      2.860
REMARK  Name = 
REMARK  7 active torsions:
REMARK  status: ('A' for Active; 'I' for Inactive)
REMARK    1  A    between atoms: C_2  and  C_3
REMARK    2  A    between atoms: C_7  and  C_8
REMARK    3  A    between atoms: C_8  and  O_9
REMARK    4  A    between atoms: O_9  and  C_10
REMARK    5  A    between atoms: CA_20  and  CB_21
REMARK    6  A    between atoms: CB_21  and  OG_22
REMARK    7  A    between atoms: N_23  and  C_24
REMARK                            x       y       z     vdW  Elec       q    Type
REMARK                         _______ _______ _______ _____ _____    ______ ____
ROOT
ATOM      1  C   UNK A   1       2.849   6.425  19.252  0.00  0.00    +0.000 A 
ATOM      2  C   UNK A   1       3.121   7.206  18.131  0.00  0.00    +0.000 A 
ATOM      3  C   UNK A   1       2.482   8.444  17.971  0.00  0.00    +0.000 A 
ATOM      4  C   UNK A   1       1.553   8.894  18.921  0.00  0.00    +0.000 A 
ATOM      5  C   UNK A   1       1.267   8.096  20.037  0.00  0.00    +0.000 A 
ATOM      6  C   UNK A   1       1.905   6.861  20.178  0.00  0.00    +0.000 A 
ATOM      7  C   UNK A   1       0.235   8.472  21.071  0.00  0.00    +0.000 C 
ATOM      8  N   UNK A   1      -0.187   9.858  20.977  0.00  0.00    +0.000 N 
ATOM      9  C   SER A   2       0.122  10.729  22.001  0.00  0.00    +0.000 C 
ATOM     10  O   SER A   2       0.688  10.364  23.032  0.00  0.00    +0.000 OA
ATOM     11  CA  SER A   2      -0.509  12.133  21.904  0.00  0.00    +0.000 C 
ATOM     12  N   SER A   2      -1.021  12.572  20.579  0.00  0.00    +0.000 N 
ATOM     13  C   UNK A   1      -1.012  11.734  19.471  0.00  0.00    +0.000 C 
ATOM     14  O   UNK A   1      -1.380  12.110  18.354  0.00  0.00    +0.000 OA
ATOM     15  C   UNK A   1      -0.405  10.339  19.619  0.00  0.00    +0.000 C 
ATOM     16  C   UNK A   1       0.880  10.240  18.772  0.00  0.00    +0.000 C 
ENDROOT
BRANCH  12  17
ATOM     17  C   UNK A   0      -1.516  13.948  20.362  0.00  0.00    +0.000 C 
ATOM     18  C   UNK A   0      -2.960  14.194  20.812  0.00  0.00    +0.000 C 
ATOM     19  C   UNK A   0      -3.083  15.710  20.927  0.00  0.00    +0.000 C 
ATOM     20  C   UNK A   0      -1.666  16.268  21.041  0.00  0.00    +0.000 C 
ATOM     21  C   UNK A   0      -0.710  15.082  20.990  0.00  0.00    +0.000 C 
ENDBRANCH  12  17
BRANCH   1  22
ATOM     22  O   UNK A   1       3.518   5.239  19.393  0.00  0.00    +0.000 OA
BRANCH  22  23
ATOM     23  C   UNK A   1       3.478   4.405  18.220  0.00  0.00    +0.000 C 
BRANCH  23  28
ATOM     24  C   UNK A   1       6.172   4.182  15.550  0.00  0.00    +0.000 A 
ATOM     25  C   UNK A   1       7.325   4.449  16.287  0.00  0.00    +0.000 A 
ATOM     26  C   UNK A   1       7.231   4.689  17.655  0.00  0.00    +0.000 A 
ATOM     27  C   UNK A   1       5.986   4.653  18.287  0.00  0.00    +0.000 A 
ATOM     28  C   UNK A   1       4.825   4.375  17.550  0.00  0.00    +0.000 A 
ATOM     29  C   UNK A   1       4.927   4.157  16.169  0.00  0.00    +0.000 A 
BRANCH  24  31
ATOM     30  N   UNK A   1       6.345   3.727  13.006  0.00  0.00    +0.000 NA
ATOM     31  C   UNK A   1       6.267   3.931  14.139  0.00  0.00    +0.000 C 
ENDBRANCH  24  31
ENDBRANCH  23  28
ENDBRANCH  22  23
ENDBRANCH   1  22
BRANCH  11  32
ATOM     32  CB  SER A   2      -1.548  12.206  23.054  0.00  0.00    +0.000 C 
BRANCH  32  33
ATOM     33  OG  SER A   2      -2.104  10.939  23.414  0.00  0.00    +0.000 OA
ATOM     34  H   SER A   2      -2.579  11.024  24.259  0.00  0.00    +0.000 HD
ENDBRANCH  32  33
ENDBRANCH  11  32
TORSDOF 7
ENDMDL
MODEL 9
REMARK VINA RESULT:      -8.0      2.845      4.531
REMARK  Name = 
REMARK  7 active torsions:
REMARK  status: ('A' for Active; 'I' for Inactive)
REMARK    1  A    between atoms: C_2  and  C_3
REMARK    2  A    between atoms: C_7  and  C_8
REMARK    3  A    between atoms: C_8  and  O_9
REMARK    4  A    between atoms: O_9  and  C_10
REMARK    5  A    between atoms: CA_20  and  CB_21
REMARK    6  A    between atoms: CB_21  and  OG_22
REMARK    7  A    between atoms: N_23  and  C_24
REMARK                            x       y       z     vdW  Elec       q    Type
REMARK                         _______ _______ _______ _____ _____    ______ ____
ROOT
ATOM      1  C   UNK A   1       4.182   6.190  18.584  0.00  0.00    +0.000 A 
ATOM      2  C   UNK A   1       4.144   6.967  17.431  0.00  0.00    +0.000 A 
ATOM      3  C   UNK A   1       3.234   8.030  17.335  0.00  0.00    +0.000 A 
ATOM      4  C   UNK A   1       2.345   8.304  18.386  0.00  0.00    +0.000 A 
ATOM      5  C   UNK A   1       2.375   7.505  19.538  0.00  0.00    +0.000 A 
ATOM      6  C   UNK A   1       3.280   6.445  19.614  0.00  0.00    +0.000 A 
ATOM      7  C   UNK A   1       1.413   7.687  20.686  0.00  0.00    +0.000 C 
ATOM      8  N   UNK A   1       0.688   8.944  20.628  0.00  0.00    +0.000 N 
ATOM      9  C   SER A   2       0.914   9.899  21.597  0.00  0.00    +0.000 C 
ATOM     10  O   SER A   2       1.662   9.705  22.555  0.00  0.00    +0.000 OA
ATOM     11  CA  SER A   2      -0.017  11.128  21.561  0.00  0.00    +0.000 C 
ATOM     12  N   SER A   2      -0.764  11.395  20.303  0.00  0.00    +0.000 N 
ATOM     13  C   UNK A   1      -0.700  10.537  19.212  0.00  0.00    +0.000 C 
ATOM     14  O   UNK A   1      -1.269  10.782  18.144  0.00  0.00    +0.000 OA
ATOM     15  C   UNK A   1       0.213   9.315  19.301  0.00  0.00    +0.000 C 
ATOM     16  C   UNK A   1       1.380   9.465  18.305  0.00  0.00    +0.000 C 
ENDROOT
BRANCH  12  17
ATOM     17  C   UNK A   0      -1.572  12.622  20.133  0.00  0.00    +0.000 C 
ATOM     18  C   UNK A   0      -3.000  12.537  20.681  0.00  0.00    +0.000 C 
ATOM     19  C   UNK A   0      -3.455  13.986  20.818  0.00  0.00    +0.000 C 
ATOM     20  C   UNK A   0      -2.198  14.851  20.841  0.00  0.00    +0.000 C 
ATOM     21  C   UNK A   0      -1.003  13.913  20.715  0.00  0.00    +0.000 C 
ENDBRANCH  12  17
BRANCH   1  22
ATOM     22  O   UNK A   1       5.108   5.182  18.656  0.00  0.00    +0.000 OA
BRANCH  22  23
ATOM     23  C   UNK A   1       4.718   3.982  17.963  0.00  0.00    +0.000 C 
BRANCH  23  28
ATOM     24  C   UNK A   1       1.755   2.882  20.070  0.00  0.00    +0.000 A 
ATOM     25  C   UNK A   1       0.716   2.921  19.141  0.00  0.00    +0.000 A 
ATOM     26  C   UNK A   1       0.979   3.293  17.825  0.00  0.00    +0.000 A 
ATOM     27  C   UNK A   1       2.280   3.616  17.437  0.00  0.00    +0.000 A 
ATOM     28  C   UNK A   1       3.330   3.568  18.367  0.00  0.00    +0.000 A 
ATOM     29  C   UNK A   1       3.052   3.215  19.695  0.00  0.00    +0.000 A 
BRANCH  24  31
ATOM     30  N   UNK A   1       1.275   2.187  22.519  0.00  0.00    +0.000 NA
ATOM     31  C   UNK A   1       1.487   2.497  21.428  0.00  0.00    +0.000 C 
ENDBRANCH  24  31
ENDBRANCH  23  28
ENDBRANCH  22  23
ENDBRANCH   1  22
BRANCH  11  32
ATOM     32  CB  SER A   2      -0.906  11.018  22.828  0.00  0.00    +0.000 C 
BRANCH  32  33
ATOM     33  OG  SER A   2      -0.956   9.703  23.388  0.00  0.00    +0.000 OA
ATOM     34  H   SER A   2      -0.769   9.752  24.341  0.00  0.00    +0.000 HD
ENDBRANCH  32  33
ENDBRANCH  11  32
TORSDOF 7
ENDMDL
