MODEL 1
REMARK VINA RESULT:      -8.2      0.000      0.000
REMARK  Name = 
REMARK  10 active torsions:
REMARK  status: ('A' for Active; 'I' for Inactive)
REMARK    1  A    between atoms: C_1  and  O_2
REMARK    2  A    between atoms: O_2  and  C_3
REMARK    3  A    between atoms: C_3  and  C_4
REMARK    4  A    between atoms: C_4  and  N_5
REMARK    5  A    between atoms: N_5  and  C_6
REMARK    6  A    between atoms: C_7  and  C_9
REMARK    7  A    between atoms: C_12  and  C_13
REMARK    8  A    between atoms: C_17  and  C_18
REMARK    9  A    between atoms: C_19  and  C_20
REMARK   10  A    between atoms: C_21  and  C_22
REMARK                            x       y       z     vdW  Elec       q    Type
REMARK                         _______ _______ _______ _____ _____    ______ ____
ROOT
ATOM      1  C   UNL     1       2.057   4.641  19.744  0.00  0.00    +0.000 A 
ATOM      2  C   UNL     1       1.156   4.123  20.694  0.00  0.00    +0.000 A 
ATOM      3  C   UNL     1       1.182   2.780  21.018  0.00  0.00    +0.000 A 
ATOM      4  N   UNL     1       2.024   1.898  20.450  0.00  0.00    +0.000 NA
ATOM      5  C   UNL     1       2.895   2.369  19.527  0.00  0.00    +0.000 A 
ATOM      6  C   UNL     1       3.788   1.326  18.903  0.00  0.00    +0.000 C 
ATOM      7  C   UNL     1       2.965   3.721  19.153  0.00  0.00    +0.000 A 
ENDROOT
BRANCH   1  11
ATOM      8  C   UNL     1       1.816   8.821  18.903  0.00  0.00    +0.000 A 
ATOM      9  C   UNL     1       2.044   7.949  17.848  0.00  0.00    +0.000 A 
ATOM     10  C   UNL     1       2.134   6.581  18.117  0.00  0.00    +0.000 A 
ATOM     11  C   UNL     1       2.009   6.092  19.428  0.00  0.00    +0.000 A 
ATOM     12  C   UNL     1       1.852   7.073  20.409  0.00  0.00    +0.000 A 
ATOM     13  N   UNL     1       1.719   8.401  20.185  0.00  0.00    +0.000 NA
BRANCH   8  16
ATOM     14  N   UNL     1       0.531  10.973  19.183  0.00  0.00    +0.000 N 
ATOM     15  C   UNL     1      -0.344  10.414  20.204  0.00  0.00    +0.000 C 
ATOM     16  C   UNL     1       1.610  10.279  18.616  0.00  0.00    +0.000 C 
ATOM     17  O   UNL     1       2.415  10.834  17.864  0.00  0.00    +0.000 OA
BRANCH  14  18
ATOM     18  C   UNL     1       0.318  12.363  18.780  0.00  0.00    +0.000 C 
BRANCH  18  19
ATOM     19  C   UNL     1      -1.156  12.736  18.600  0.00  0.00    +0.000 C 
BRANCH  19  21
ATOM     20  C   UNL     1      -3.025  11.507  17.861  0.00  0.00    +0.000 C 
ATOM     21  O   UNL     1      -1.712  11.948  17.542  0.00  0.00    +0.000 OA
ENDBRANCH  19  21
ENDBRANCH  18  19
ENDBRANCH  14  18
ENDBRANCH   8  16
ENDBRANCH   1  11
BRANCH   7  22
ATOM     22  C   UNL     1       3.947   4.132  18.180  0.00  0.00    +0.000 C 
ATOM     23  C   UNL     1       4.725   4.430  17.310  0.00  0.00    +0.000 C 
BRANCH  23  24
ATOM     24  C   UNL     1       5.589   4.728  16.208  0.00  0.00    +0.000 A 
ATOM     25  C   UNL     1       5.354   4.185  14.946  0.00  0.00    +0.000 A 
ATOM     26  C   UNL     1       6.262   4.442  13.913  0.00  0.00    +0.000 A 
ATOM     27  C   UNL     1       7.364   5.242  14.169  0.00  0.00    +0.000 A 
ATOM     28  N   UNL     1       8.326   5.455  13.186  0.00  0.00    +0.000 N 
ATOM     29  N   UNL     1       7.601   5.790  15.373  0.00  0.00    +0.000 NA
ATOM     30  C   UNL     1       6.712   5.524  16.363  0.00  0.00    +0.000 A 
ATOM     31  H   UNL     1       7.924   5.786  12.318  0.00  0.00    +0.000 HD
ATOM     32  H   UNL     1       9.008   6.106  13.568  0.00  0.00    +0.000 HD
ENDBRANCH  23  24
ENDBRANCH   7  22
TORSDOF 7
ENDMDL
MODEL 2
REMARK VINA RESULT:      -8.2      0.865      1.131
REMARK  Name = 
REMARK  10 active torsions:
REMARK  status: ('A' for Active; 'I' for Inactive)
REMARK    1  A    between atoms: C_1  and  O_2
REMARK    2  A    between atoms: O_2  and  C_3
REMARK    3  A    between atoms: C_3  and  C_4
REMARK    4  A    between atoms: C_4  and  N_5
REMARK    5  A    between atoms: N_5  and  C_6
REMARK    6  A    between atoms: C_7  and  C_9
REMARK    7  A    between atoms: C_12  and  C_13
REMARK    8  A    between atoms: C_17  and  C_18
REMARK    9  A    between atoms: C_19  and  C_20
REMARK   10  A    between atoms: C_21  and  C_22
REMARK                            x       y       z     vdW  Elec       q    Type
REMARK                         _______ _______ _______ _____ _____    ______ ____
ROOT
ATOM      1  C   UNL     1       2.021   4.781  19.635  0.00  0.00    +0.000 A 
ATOM      2  C   UNL     1       1.243   4.287  20.700  0.00  0.00    +0.000 A 
ATOM      3  C   UNL     1       1.273   2.942  21.018  0.00  0.00    +0.000 A 
ATOM      4  N   UNL     1       2.002   2.037  20.340  0.00  0.00    +0.000 NA
ATOM      5  C   UNL     1       2.752   2.485  19.306  0.00  0.00    +0.000 A 
ATOM      6  C   UNL     1       3.518   1.418  18.566  0.00  0.00    +0.000 C 
ATOM      7  C   UNL     1       2.810   3.836  18.925  0.00  0.00    +0.000 A 
ENDROOT
BRANCH   1  11
ATOM      8  C   UNL     1       1.782   8.966  18.819  0.00  0.00    +0.000 A 
ATOM      9  C   UNL     1       2.020   8.101  17.760  0.00  0.00    +0.000 A 
ATOM     10  C   UNL     1       2.108   6.732  18.022  0.00  0.00    +0.000 A 
ATOM     11  C   UNL     1       1.974   6.234  19.328  0.00  0.00    +0.000 A 
ATOM     12  C   UNL     1       1.808   7.208  20.314  0.00  0.00    +0.000 A 
ATOM     13  N   UNL     1       1.676   8.538  20.098  0.00  0.00    +0.000 NA
BRANCH   8  16
ATOM     14  N   UNL     1       0.376  11.058  18.893  0.00  0.00    +0.000 N 
ATOM     15  C   UNL     1      -0.664  10.430  19.696  0.00  0.00    +0.000 C 
ATOM     16  C   UNL     1       1.577  10.426  18.540  0.00  0.00    +0.000 C 
ATOM     17  O   UNL     1       2.494  11.037  17.987  0.00  0.00    +0.000 OA
BRANCH  14  18
ATOM     18  C   UNL     1       0.191  12.454  18.497  0.00  0.00    +0.000 C 
BRANCH  18  19
ATOM     19  C   UNL     1      -1.056  13.108  19.099  0.00  0.00    +0.000 C 
BRANCH  19  21
ATOM     20  C   UNL     1      -0.318  15.341  19.235  0.00  0.00    +0.000 C 
ATOM     21  O   UNL     1      -0.652  14.170  19.969  0.00  0.00    +0.000 OA
ENDBRANCH  19  21
ENDBRANCH  18  19
ENDBRANCH  14  18
ENDBRANCH   8  16
ENDBRANCH   1  11
BRANCH   7  22
ATOM     22  C   UNL     1       3.662   4.221  17.826  0.00  0.00    +0.000 C 
ATOM     23  C   UNL     1       4.437   4.506  16.950  0.00  0.00    +0.000 C 
BRANCH  23  24
ATOM     24  C   UNL     1       5.435   4.795  15.965  0.00  0.00    +0.000 A 
ATOM     25  C   UNL     1       5.326   4.296  14.668  0.00  0.00    +0.000 A 
ATOM     26  C   UNL     1       6.357   4.541  13.754  0.00  0.00    +0.000 A 
ATOM     27  C   UNL     1       7.454   5.285  14.160  0.00  0.00    +0.000 A 
ATOM     28  N   UNL     1       8.532   5.482  13.301  0.00  0.00    +0.000 N 
ATOM     29  N   UNL     1       7.572   5.790  15.401  0.00  0.00    +0.000 NA
ATOM     30  C   UNL     1       6.564   5.536  16.273  0.00  0.00    +0.000 A 
ATOM     31  H   UNL     1       8.246   5.852  12.404  0.00  0.00    +0.000 HD
ATOM     32  H   UNL     1       9.190   6.091  13.780  0.00  0.00    +0.000 HD
ENDBRANCH  23  24
ENDBRANCH   7  22
TORSDOF 7
ENDMDL
MODEL 3
REMARK VINA RESULT:      -7.4      1.037      1.481
REMARK  Name = 
REMARK  10 active torsions:
REMARK  status: ('A' for Active; 'I' for Inactive)
REMARK    1  A    between atoms: C_1  and  O_2
REMARK    2  A    between atoms: O_2  and  C_3
REMARK    3  A    between atoms: C_3  and  C_4
REMARK    4  A    between atoms: C_4  and  N_5
REMARK    5  A    between atoms: N_5  and  C_6
REMARK    6  A    between atoms: C_7  and  C_9
REMARK    7  A    between atoms: C_12  and  C_13
REMARK    8  A    between atoms: C_17  and  C_18
REMARK    9  A    between atoms: C_19  and  C_20
REMARK   10  A    between atoms: C_21  and  C_22
REMARK                            x       y       z     vdW  Elec       q    Type
REMARK                         _______ _______ _______ _____ _____    ______ ____
ROOT
ATOM      1  C   UNL     1       2.005   4.734  19.710  0.00  0.00    +0.000 A 
ATOM      2  C   UNL     1       1.226   4.192  20.751  0.00  0.00    +0.000 A 
ATOM      3  C   UNL     1       1.305   2.846  21.052  0.00  0.00    +0.000 A 
ATOM      4  N   UNL     1       2.087   1.982  20.377  0.00  0.00    +0.000 NA
ATOM      5  C   UNL     1       2.839   2.476  19.367  0.00  0.00    +0.000 A 
ATOM      6  C   UNL     1       3.666   1.453  18.629  0.00  0.00    +0.000 C 
ATOM      7  C   UNL     1       2.848   3.834  19.005  0.00  0.00    +0.000 A 
ENDROOT
BRANCH   1  11
ATOM      8  C   UNL     1       1.808   8.903  18.805  0.00  0.00    +0.000 A 
ATOM      9  C   UNL     1       1.753   8.515  20.136  0.00  0.00    +0.000 A 
ATOM     10  C   UNL     1       1.808   7.152  20.438  0.00  0.00    +0.000 A 
ATOM     11  C   UNL     1       1.903   6.188  19.421  0.00  0.00    +0.000 A 
ATOM     12  C   UNL     1       1.878   6.699  18.123  0.00  0.00    +0.000 A 
ATOM     13  N   UNL     1       1.869   8.011  17.789  0.00  0.00    +0.000 NA
BRANCH   8  16
ATOM     14  N   UNL     1       1.092  11.290  19.192  0.00  0.00    +0.000 N 
ATOM     15  C   UNL     1       0.351  10.958  20.402  0.00  0.00    +0.000 C 
ATOM     16  C   UNL     1       1.859  10.364  18.470  0.00  0.00    +0.000 C 
ATOM     17  O   UNL     1       2.589  10.713  17.539  0.00  0.00    +0.000 OA
BRANCH  14  18
ATOM     18  C   UNL     1       1.098  12.684  18.749  0.00  0.00    +0.000 C 
BRANCH  18  19
ATOM     19  C   UNL     1      -0.273  13.195  18.298  0.00  0.00    +0.000 C 
BRANCH  19  21
ATOM     20  C   UNL     1       0.772  15.092  19.223  0.00  0.00    +0.000 C 
ATOM     21  O   UNL     1      -0.306  14.620  18.425  0.00  0.00    +0.000 OA
ENDBRANCH  19  21
ENDBRANCH  18  19
ENDBRANCH  14  18
ENDBRANCH   8  16
ENDBRANCH   1  11
BRANCH   7  22
ATOM     22  C   UNL     1       3.706   4.269  17.930  0.00  0.00    +0.000 C 
ATOM     23  C   UNL     1       4.473   4.567  17.051  0.00  0.00    +0.000 C 
BRANCH  23  24
ATOM     24  C   UNL     1       5.442   4.835  16.031  0.00  0.00    +0.000 A 
ATOM     25  C   UNL     1       5.286   4.325  14.743  0.00  0.00    +0.000 A 
ATOM     26  C   UNL     1       6.290   4.549  13.795  0.00  0.00    +0.000 A 
ATOM     27  C   UNL     1       7.408   5.285  14.158  0.00  0.00    +0.000 A 
ATOM     28  N   UNL     1       8.459   5.460  13.263  0.00  0.00    +0.000 N 
ATOM     29  N   UNL     1       7.571   5.800  15.389  0.00  0.00    +0.000 NA
ATOM     30  C   UNL     1       6.588   5.566  16.295  0.00  0.00    +0.000 A 
ATOM     31  H   UNL     1       8.149   5.826  12.372  0.00  0.00    +0.000 HD
ATOM     32  H   UNL     1       9.139   6.067  13.714  0.00  0.00    +0.000 HD
ENDBRANCH  23  24
ENDBRANCH   7  22
TORSDOF 7
ENDMDL
MODEL 4
REMARK VINA RESULT:      -7.3      3.197      8.654
REMARK  Name = 
REMARK  10 active torsions:
REMARK  status: ('A' for Active; 'I' for Inactive)
REMARK    1  A    between atoms: C_1  and  O_2
REMARK    2  A    between atoms: O_2  and  C_3
REMARK    3  A    between atoms: C_3  and  C_4
REMARK    4  A    between atoms: C_4  and  N_5
REMARK    5  A    between atoms: N_5  and  C_6
REMARK    6  A    between atoms: C_7  and  C_9
REMARK    7  A    between atoms: C_12  and  C_13
REMARK    8  A    between atoms: C_17  and  C_18
REMARK    9  A    between atoms: C_19  and  C_20
REMARK   10  A    between atoms: C_21  and  C_22
REMARK                            x       y       z     vdW  Elec       q    Type
REMARK                         _______ _______ _______ _____ _____    ______ ____
ROOT
ATOM      1  C   UNL     1       0.801   8.969  21.262  0.00  0.00    +0.000 A 
ATOM      2  C   UNL     1       1.271   8.942  22.589  0.00  0.00    +0.000 A 
ATOM      3  C   UNL     1       0.713   9.773  23.542  0.00  0.00    +0.000 A 
ATOM      4  N   UNL     1      -0.267  10.655  23.272  0.00  0.00    +0.000 NA
ATOM      5  C   UNL     1      -0.730  10.707  22.001  0.00  0.00    +0.000 A 
ATOM      6  C   UNL     1      -1.803  11.738  21.755  0.00  0.00    +0.000 C 
ATOM      7  C   UNL     1      -0.247   9.882  20.971  0.00  0.00    +0.000 A 
ENDROOT
BRANCH   1  11
ATOM      8  C   UNL     1       2.646   6.298  18.487  0.00  0.00    +0.000 A 
ATOM      9  C   UNL     1       2.432   7.611  18.094  0.00  0.00    +0.000 A 
ATOM     10  C   UNL     1       1.821   8.487  18.993  0.00  0.00    +0.000 A 
ATOM     11  C   UNL     1       1.416   8.053  20.266  0.00  0.00    +0.000 A 
ATOM     12  C   UNL     1       1.621   6.695  20.516  0.00  0.00    +0.000 A 
ATOM     13  N   UNL     1       2.246   5.824  19.690  0.00  0.00    +0.000 NA
BRANCH   8  16
ATOM     14  N   UNL     1       4.693   5.694  17.142  0.00  0.00    +0.000 N 
ATOM     15  C   UNL     1       5.466   6.812  17.664  0.00  0.00    +0.000 C 
ATOM     16  C   UNL     1       3.397   5.373  17.575  0.00  0.00    +0.000 C 
ATOM     17  O   UNL     1       2.832   4.337  17.219  0.00  0.00    +0.000 OA
BRANCH  14  18
ATOM     18  C   UNL     1       5.331   4.810  16.168  0.00  0.00    +0.000 C 
BRANCH  18  19
ATOM     19  C   UNL     1       6.828   4.600  16.411  0.00  0.00    +0.000 C 
BRANCH  19  21
ATOM     20  C   UNL     1       6.674   4.501  14.063  0.00  0.00    +0.000 C 
ATOM     21  O   UNL     1       7.528   4.748  15.172  0.00  0.00    +0.000 OA
ENDBRANCH  19  21
ENDBRANCH  18  19
ENDBRANCH  14  18
ENDBRANCH   8  16
ENDBRANCH   1  11
BRANCH   7  22
ATOM     22  C   UNL     1      -0.825   9.992  19.653  0.00  0.00    +0.000 C 
ATOM     23  C   UNL     1      -1.383  10.092  18.591  0.00  0.00    +0.000 C 
BRANCH  23  24
ATOM     24  C   UNL     1      -2.137  10.224  17.382  0.00  0.00    +0.000 A 
ATOM     25  C   UNL     1      -3.251  11.059  17.320  0.00  0.00    +0.000 A 
ATOM     26  C   UNL     1      -4.004  11.106  16.142  0.00  0.00    +0.000 A 
ATOM     27  C   UNL     1      -3.614  10.330  15.061  0.00  0.00    +0.000 A 
ATOM     28  N   UNL     1      -4.384  10.294  13.902  0.00  0.00    +0.000 N 
ATOM     29  N   UNL     1      -2.534   9.530  15.093  0.00  0.00    +0.000 NA
ATOM     30  C   UNL     1      -1.821   9.495  16.247  0.00  0.00    +0.000 A 
ATOM     31  H   UNL     1      -4.577  11.219  13.539  0.00  0.00    +0.000 HD
ATOM     32  H   UNL     1      -3.890   9.711  13.231  0.00  0.00    +0.000 HD
ENDBRANCH  23  24
ENDBRANCH   7  22
TORSDOF 7
ENDMDL
MODEL 5
REMARK VINA RESULT:      -7.2      1.157      1.681
REMARK  Name = 
REMARK  10 active torsions:
REMARK  status: ('A' for Active; 'I' for Inactive)
REMARK    1  A    between atoms: C_1  and  O_2
REMARK    2  A    between atoms: O_2  and  C_3
REMARK    3  A    between atoms: C_3  and  C_4
REMARK    4  A    between atoms: C_4  and  N_5
REMARK    5  A    between atoms: N_5  and  C_6
REMARK    6  A    between atoms: C_7  and  C_9
REMARK    7  A    between atoms: C_12  and  C_13
REMARK    8  A    between atoms: C_17  and  C_18
REMARK    9  A    between atoms: C_19  and  C_20
REMARK   10  A    between atoms: C_21  and  C_22
REMARK                            x       y       z     vdW  Elec       q    Type
REMARK                         _______ _______ _______ _____ _____    ______ ____
ROOT
ATOM      1  C   UNL     1       1.989   4.773  19.640  0.00  0.00    +0.000 A 
ATOM      2  C   UNL     1       1.173   4.290  20.682  0.00  0.00    +0.000 A 
ATOM      3  C   UNL     1       1.186   2.948  21.010  0.00  0.00    +0.000 A 
ATOM      4  N   UNL     1       1.934   2.035  20.363  0.00  0.00    +0.000 NA
ATOM      5  C   UNL     1       2.720   2.472  19.353  0.00  0.00    +0.000 A 
ATOM      6  C   UNL     1       3.507   1.397  18.646  0.00  0.00    +0.000 C 
ATOM      7  C   UNL     1       2.797   3.820  18.964  0.00  0.00    +0.000 A 
ENDROOT
BRANCH   1  11
ATOM      8  C   UNL     1       1.797   8.954  18.789  0.00  0.00    +0.000 A 
ATOM      9  C   UNL     1       2.031   8.078  17.738  0.00  0.00    +0.000 A 
ATOM     10  C   UNL     1       2.104   6.710  18.011  0.00  0.00    +0.000 A 
ATOM     11  C   UNL     1       1.958   6.224  19.321  0.00  0.00    +0.000 A 
ATOM     12  C   UNL     1       1.798   7.208  20.298  0.00  0.00    +0.000 A 
ATOM     13  N   UNL     1       1.681   8.537  20.071  0.00  0.00    +0.000 NA
BRANCH   8  16
ATOM     14  N   UNL     1       0.432  11.073  18.882  0.00  0.00    +0.000 N 
ATOM     15  C   UNL     1      -0.591  10.474  19.728  0.00  0.00    +0.000 C 
ATOM     16  C   UNL     1       1.609  10.413  18.497  0.00  0.00    +0.000 C 
ATOM     17  O   UNL     1       2.518  11.000  17.905  0.00  0.00    +0.000 OA
BRANCH  14  18
ATOM     18  C   UNL     1       0.259  12.466  18.474  0.00  0.00    +0.000 C 
BRANCH  18  19
ATOM     19  C   UNL     1       0.737  13.480  19.517  0.00  0.00    +0.000 C 
BRANCH  19  21
ATOM     20  C   UNL     1       1.086  15.777  19.131  0.00  0.00    +0.000 C 
ATOM     21  O   UNL     1       1.557  14.461  18.874  0.00  0.00    +0.000 OA
ENDBRANCH  19  21
ENDBRANCH  18  19
ENDBRANCH  14  18
ENDBRANCH   8  16
ENDBRANCH   1  11
BRANCH   7  22
ATOM     22  C   UNL     1       3.687   4.194  17.892  0.00  0.00    +0.000 C 
ATOM     23  C   UNL     1       4.490   4.458  17.034  0.00  0.00    +0.000 C 
BRANCH  23  24
ATOM     24  C   UNL     1       5.514   4.711  16.066  0.00  0.00    +0.000 A 
ATOM     25  C   UNL     1       6.591   5.545  16.363  0.00  0.00    +0.000 A 
ATOM     26  C   UNL     1       7.533   5.824  15.368  0.00  0.00    +0.000 A 
ATOM     27  C   UNL     1       7.378   5.252  14.114  0.00  0.00    +0.000 A 
ATOM     28  N   UNL     1       8.252   5.569  13.079  0.00  0.00    +0.000 N 
ATOM     29  N   UNL     1       6.356   4.432  13.811  0.00  0.00    +0.000 NA
ATOM     30  C   UNL     1       5.451   4.179  14.789  0.00  0.00    +0.000 A 
ATOM     31  H   UNL     1       9.222   5.437  13.340  0.00  0.00    +0.000 HD
ATOM     32  H   UNL     1       7.987   5.004  12.277  0.00  0.00    +0.000 HD
ENDBRANCH  23  24
ENDBRANCH   7  22
TORSDOF 7
ENDMDL
MODEL 6
REMARK VINA RESULT:      -7.1      3.097      8.616
REMARK  Name = 
REMARK  10 active torsions:
REMARK  status: ('A' for Active; 'I' for Inactive)
REMARK    1  A    between atoms: C_1  and  O_2
REMARK    2  A    between atoms: O_2  and  C_3
REMARK    3  A    between atoms: C_3  and  C_4
REMARK    4  A    between atoms: C_4  and  N_5
REMARK    5  A    between atoms: N_5  and  C_6
REMARK    6  A    between atoms: C_7  and  C_9
REMARK    7  A    between atoms: C_12  and  C_13
REMARK    8  A    between atoms: C_17  and  C_18
REMARK    9  A    between atoms: C_19  and  C_20
REMARK   10  A    between atoms: C_21  and  C_22
REMARK                            x       y       z     vdW  Elec       q    Type
REMARK                         _______ _______ _______ _____ _____    ______ ____
ROOT
ATOM      1  C   UNL     1       0.882   9.125  21.167  0.00  0.00    +0.000 A 
ATOM      2  C   UNL     1       1.345   9.017  22.492  0.00  0.00    +0.000 A 
ATOM      3  C   UNL     1       0.679   9.662  23.517  0.00  0.00    +0.000 A 
ATOM      4  N   UNL     1      -0.407  10.433  23.323  0.00  0.00    +0.000 NA
ATOM      5  C   UNL     1      -0.867  10.560  22.057  0.00  0.00    +0.000 A 
ATOM      6  C   UNL     1      -2.065  11.464  21.901  0.00  0.00    +0.000 C 
ATOM      7  C   UNL     1      -0.275   9.921  20.955  0.00  0.00    +0.000 A 
ENDROOT
BRANCH   1  11
ATOM      8  C   UNL     1       3.082   7.041  18.158  0.00  0.00    +0.000 A 
ATOM      9  C   UNL     1       2.584   8.300  17.856  0.00  0.00    +0.000 A 
ATOM     10  C   UNL     1       1.856   8.984  18.833  0.00  0.00    +0.000 A 
ATOM     11  C   UNL     1       1.617   8.409  20.092  0.00  0.00    +0.000 A 
ATOM     12  C   UNL     1       2.107   7.112  20.248  0.00  0.00    +0.000 A 
ATOM     13  N   UNL     1       2.852   6.433  19.344  0.00  0.00    +0.000 NA
BRANCH   8  16
ATOM     14  N   UNL     1       4.069   4.942  17.167  0.00  0.00    +0.000 N 
ATOM     15  C   UNL     1       3.240   4.067  17.986  0.00  0.00    +0.000 C 
ATOM     16  C   UNL     1       3.955   6.340  17.160  0.00  0.00    +0.000 C 
ATOM     17  O   UNL     1       4.569   7.036  16.348  0.00  0.00    +0.000 OA
BRANCH  14  18
ATOM     18  C   UNL     1       5.019   4.324  16.243  0.00  0.00    +0.000 C 
BRANCH  18  19
ATOM     19  C   UNL     1       6.460   4.302  16.762  0.00  0.00    +0.000 C 
BRANCH  19  21
ATOM     20  C   UNL     1       6.643   4.763  14.459  0.00  0.00    +0.000 C 
ATOM     21  O   UNL     1       7.354   4.528  15.668  0.00  0.00    +0.000 OA
ENDBRANCH  19  21
ENDBRANCH  18  19
ENDBRANCH  14  18
ENDBRANCH   8  16
ENDBRANCH   1  11
BRANCH   7  22
ATOM     22  C   UNL     1      -0.856  10.095  19.645  0.00  0.00    +0.000 C 
ATOM     23  C   UNL     1      -1.415  10.213  18.585  0.00  0.00    +0.000 C 
BRANCH  23  24
ATOM     24  C   UNL     1      -2.167  10.319  17.372  0.00  0.00    +0.000 A 
ATOM     25  C   UNL     1      -3.278  11.158  17.289  0.00  0.00    +0.000 A 
ATOM     26  C   UNL     1      -4.030  11.180  16.110  0.00  0.00    +0.000 A 
ATOM     27  C   UNL     1      -3.642  10.377  15.048  0.00  0.00    +0.000 A 
ATOM     28  N   UNL     1      -4.410  10.317  13.890  0.00  0.00    +0.000 N 
ATOM     29  N   UNL     1      -2.565   9.573  15.101  0.00  0.00    +0.000 NA
ATOM     30  C   UNL     1      -1.853   9.562  16.255  0.00  0.00    +0.000 A 
ATOM     31  H   UNL     1      -4.599  11.234  13.505  0.00  0.00    +0.000 HD
ATOM     32  H   UNL     1      -3.918   9.716  13.233  0.00  0.00    +0.000 HD
ENDBRANCH  23  24
ENDBRANCH   7  22
TORSDOF 7
ENDMDL
MODEL 7
REMARK VINA RESULT:      -7.0      3.274      8.641
REMARK  Name = 
REMARK  10 active torsions:
REMARK  status: ('A' for Active; 'I' for Inactive)
REMARK    1  A    between atoms: C_1  and  O_2
REMARK    2  A    between atoms: O_2  and  C_3
REMARK    3  A    between atoms: C_3  and  C_4
REMARK    4  A    between atoms: C_4  and  N_5
REMARK    5  A    between atoms: N_5  and  C_6
REMARK    6  A    between atoms: C_7  and  C_9
REMARK    7  A    between atoms: C_12  and  C_13
REMARK    8  A    between atoms: C_17  and  C_18
REMARK    9  A    between atoms: C_19  and  C_20
REMARK   10  A    between atoms: C_21  and  C_22
REMARK                            x       y       z     vdW  Elec       q    Type
REMARK                         _______ _______ _______ _____ _____    ______ ____
ROOT
ATOM      1  C   UNL     1       0.764   9.051  21.251  0.00  0.00    +0.000 A 
ATOM      2  C   UNL     1       1.243   9.032  22.575  0.00  0.00    +0.000 A 
ATOM      3  C   UNL     1       0.676   9.851  23.532  0.00  0.00    +0.000 A 
ATOM      4  N   UNL     1      -0.323  10.713  23.270  0.00  0.00    +0.000 NA
ATOM      5  C   UNL     1      -0.797  10.757  22.003  0.00  0.00    +0.000 A 
ATOM      6  C   UNL     1      -1.891  11.767  21.766  0.00  0.00    +0.000 C 
ATOM      7  C   UNL     1      -0.304   9.944  20.968  0.00  0.00    +0.000 A 
ENDROOT
BRANCH   1  11
ATOM      8  C   UNL     1       2.646   6.425  18.458  0.00  0.00    +0.000 A 
ATOM      9  C   UNL     1       2.365   7.722  18.055  0.00  0.00    +0.000 A 
ATOM     10  C   UNL     1       1.741   8.584  18.961  0.00  0.00    +0.000 A 
ATOM     11  C   UNL     1       1.390   8.149  20.250  0.00  0.00    +0.000 A 
ATOM     12  C   UNL     1       1.661   6.805  20.510  0.00  0.00    +0.000 A 
ATOM     13  N   UNL     1       2.300   5.951  19.677  0.00  0.00    +0.000 NA
BRANCH   8  16
ATOM     14  N   UNL     1       4.645   5.923  17.004  0.00  0.00    +0.000 N 
ATOM     15  C   UNL     1       5.356   7.123  17.425  0.00  0.00    +0.000 C 
ATOM     16  C   UNL     1       3.411   5.521  17.537  0.00  0.00    +0.000 C 
ATOM     17  O   UNL     1       2.913   4.427  17.264  0.00  0.00    +0.000 OA
BRANCH  14  18
ATOM     18  C   UNL     1       5.291   5.048  16.027  0.00  0.00    +0.000 C 
BRANCH  18  19
ATOM     19  C   UNL     1       6.755   5.403  15.751  0.00  0.00    +0.000 C 
BRANCH  19  21
ATOM     20  C   UNL     1       7.738   4.506  17.695  0.00  0.00    +0.000 C 
ATOM     21  O   UNL     1       7.594   4.374  16.287  0.00  0.00    +0.000 OA
ENDBRANCH  19  21
ENDBRANCH  18  19
ENDBRANCH  14  18
ENDBRANCH   8  16
ENDBRANCH   1  11
BRANCH   7  22
ATOM     22  C   UNL     1      -0.893  10.044  19.655  0.00  0.00    +0.000 C 
ATOM     23  C   UNL     1      -1.456  10.095  18.592  0.00  0.00    +0.000 C 
BRANCH  23  24
ATOM     24  C   UNL     1      -2.212  10.119  17.376  0.00  0.00    +0.000 A 
ATOM     25  C   UNL     1      -1.781   9.418  16.251  0.00  0.00    +0.000 A 
ATOM     26  C   UNL     1      -2.510   9.524  15.061  0.00  0.00    +0.000 A 
ATOM     27  C   UNL     1      -3.649  10.313  15.037  0.00  0.00    +0.000 A 
ATOM     28  N   UNL     1      -4.353  10.502  13.851  0.00  0.00    +0.000 N 
ATOM     29  N   UNL     1      -4.092  10.984  16.115  0.00  0.00    +0.000 NA
ATOM     30  C   UNL     1      -3.369  10.872  17.257  0.00  0.00    +0.000 A 
ATOM     31  H   UNL     1      -4.597   9.627  13.404  0.00  0.00    +0.000 HD
ATOM     32  H   UNL     1      -5.171  11.064  14.073  0.00  0.00    +0.000 HD
ENDBRANCH  23  24
ENDBRANCH   7  22
TORSDOF 7
ENDMDL
MODEL 8
REMARK VINA RESULT:      -6.8      3.342      8.861
REMARK  Name = 
REMARK  10 active torsions:
REMARK  status: ('A' for Active; 'I' for Inactive)
REMARK    1  A    between atoms: C_1  and  O_2
REMARK    2  A    between atoms: O_2  and  C_3
REMARK    3  A    between atoms: C_3  and  C_4
REMARK    4  A    between atoms: C_4  and  N_5
REMARK    5  A    between atoms: N_5  and  C_6
REMARK    6  A    between atoms: C_7  and  C_9
REMARK    7  A    between atoms: C_12  and  C_13
REMARK    8  A    between atoms: C_17  and  C_18
REMARK    9  A    between atoms: C_19  and  C_20
REMARK   10  A    between atoms: C_21  and  C_22
REMARK                            x       y       z     vdW  Elec       q    Type
REMARK                         _______ _______ _______ _____ _____    ______ ____
ROOT
ATOM      1  C   UNL     1      -0.179  10.444  20.653  0.00  0.00    +0.000 A 
ATOM      2  C   UNL     1       0.096  10.693  22.011  0.00  0.00    +0.000 A 
ATOM      3  C   UNL     1      -0.700  11.562  22.734  0.00  0.00    +0.000 A 
ATOM      4  N   UNL     1      -1.742  12.226  22.203  0.00  0.00    +0.000 NA
ATOM      5  C   UNL     1      -2.022  12.011  20.896  0.00  0.00    +0.000 A 
ATOM      6  C   UNL     1      -3.179  12.810  20.352  0.00  0.00    +0.000 C 
ATOM      7  C   UNL     1      -1.290  11.126  20.087  0.00  0.00    +0.000 A 
ENDROOT
BRANCH   1  11
ATOM      8  C   UNL     1       2.404   7.729  18.605  0.00  0.00    +0.000 A 
ATOM      9  C   UNL     1       1.843   8.774  17.884  0.00  0.00    +0.000 A 
ATOM     10  C   UNL     1       0.990   9.660  18.546  0.00  0.00    +0.000 A 
ATOM     11  C   UNL     1       0.691   9.496  19.909  0.00  0.00    +0.000 A 
ATOM     12  C   UNL     1       1.260   8.369  20.504  0.00  0.00    +0.000 A 
ATOM     13  N   UNL     1       2.123   7.512  19.910  0.00  0.00    +0.000 NA
BRANCH   8  16
ATOM     14  N   UNL     1       3.116   5.479  17.715  0.00  0.00    +0.000 N 
ATOM     15  C   UNL     1       1.804   4.885  17.935  0.00  0.00    +0.000 C 
ATOM     16  C   UNL     1       3.405   6.834  17.936  0.00  0.00    +0.000 C 
ATOM     17  O   UNL     1       4.483   7.330  17.600  0.00  0.00    +0.000 OA
BRANCH  14  18
ATOM     18  C   UNL     1       4.171   4.631  17.161  0.00  0.00    +0.000 C 
BRANCH  18  19
ATOM     19  C   UNL     1       4.778   3.657  18.174  0.00  0.00    +0.000 C 
BRANCH  19  21
ATOM     20  C   UNL     1       3.724   1.984  19.453  0.00  0.00    +0.000 C 
ATOM     21  O   UNL     1       4.043   2.430  18.142  0.00  0.00    +0.000 OA
ENDBRANCH  19  21
ENDBRANCH  18  19
ENDBRANCH  14  18
ENDBRANCH   8  16
ENDBRANCH   1  11
BRANCH   7  22
ATOM     22  C   UNL     1      -1.683  10.941  18.712  0.00  0.00    +0.000 C 
ATOM     23  C   UNL     1      -2.083  10.752  17.592  0.00  0.00    +0.000 C 
BRANCH  23  24
ATOM     24  C   UNL     1      -2.647  10.487  16.303  0.00  0.00    +0.000 A 
ATOM     25  C   UNL     1      -2.142   9.469  15.496  0.00  0.00    +0.000 A 
ATOM     26  C   UNL     1      -2.673   9.288  14.214  0.00  0.00    +0.000 A 
ATOM     27  C   UNL     1      -3.698  10.118  13.786  0.00  0.00    +0.000 A 
ATOM     28  N   UNL     1      -4.196  10.015  12.491  0.00  0.00    +0.000 N 
ATOM     29  N   UNL     1      -4.211  11.095  14.554  0.00  0.00    +0.000 NA
ATOM     30  C   UNL     1      -3.679  11.257  15.791  0.00  0.00    +0.000 A 
ATOM     31  H   UNL     1      -4.473   9.070  12.258  0.00  0.00    +0.000 HD
ATOM     32  H   UNL     1      -4.967  10.674  12.411  0.00  0.00    +0.000 HD
ENDBRANCH  23  24
ENDBRANCH   7  22
TORSDOF 7
ENDMDL
MODEL 9
REMARK VINA RESULT:      -6.7      8.708     10.567
REMARK  Name = 
REMARK  10 active torsions:
REMARK  status: ('A' for Active; 'I' for Inactive)
REMARK    1  A    between atoms: C_1  and  O_2
REMARK    2  A    between atoms: O_2  and  C_3
REMARK    3  A    between atoms: C_3  and  C_4
REMARK    4  A    between atoms: C_4  and  N_5
REMARK    5  A    between atoms: N_5  and  C_6
REMARK    6  A    between atoms: C_7  and  C_9
REMARK    7  A    between atoms: C_12  and  C_13
REMARK    8  A    between atoms: C_17  and  C_18
REMARK    9  A    between atoms: C_19  and  C_20
REMARK   10  A    between atoms: C_21  and  C_22
REMARK                            x       y       z     vdW  Elec       q    Type
REMARK                         _______ _______ _______ _____ _____    ______ ____
ROOT
ATOM      1  C   UNL     1       9.472  14.113  18.277  0.00  0.00    +0.000 A 
ATOM      2  C   UNL     1      10.297  14.383  17.168  0.00  0.00    +0.000 A 
ATOM      3  C   UNL     1      11.562  13.832  17.091  0.00  0.00    +0.000 A 
ATOM      4  N   UNL     1      12.086  13.046  18.049  0.00  0.00    +0.000 NA
ATOM      5  C   UNL     1      11.317  12.777  19.129  0.00  0.00    +0.000 A 
ATOM      6  C   UNL     1      11.972  11.919  20.182  0.00  0.00    +0.000 C 
ATOM      7  C   UNL     1      10.009  13.267  19.284  0.00  0.00    +0.000 A 
ENDROOT
BRANCH   1  11
ATOM      8  C   UNL     1       5.581  15.854  18.527  0.00  0.00    +0.000 A 
ATOM      9  C   UNL     1       5.726  14.664  17.828  0.00  0.00    +0.000 A 
ATOM     10  C   UNL     1       6.998  14.094  17.735  0.00  0.00    +0.000 A 
ATOM     11  C   UNL     1       8.114  14.713  18.322  0.00  0.00    +0.000 A 
ATOM     12  C   UNL     1       7.851  15.939  18.934  0.00  0.00    +0.000 A 
ATOM     13  N   UNL     1       6.630  16.504  19.083  0.00  0.00    +0.000 NA
BRANCH   8  16
ATOM     14  N   UNL     1       3.432  16.042  19.833  0.00  0.00    +0.000 N 
ATOM     15  C   UNL     1       3.938  15.240  20.939  0.00  0.00    +0.000 C 
ATOM     16  C   UNL     1       4.207  16.423  18.728  0.00  0.00    +0.000 C 
ATOM     17  O   UNL     1       3.790  17.222  17.887  0.00  0.00    +0.000 OA
BRANCH  14  18
ATOM     18  C   UNL     1       2.061  16.544  19.917  0.00  0.00    +0.000 C 
BRANCH  18  19
ATOM     19  C   UNL     1       0.996  15.443  19.877  0.00  0.00    +0.000 C 
BRANCH  19  21
ATOM     20  C   UNL     1       0.432  14.172  21.778  0.00  0.00    +0.000 C 
ATOM     21  O   UNL     1       0.294  15.427  21.124  0.00  0.00    +0.000 OA
ENDBRANCH  19  21
ENDBRANCH  18  19
ENDBRANCH  14  18
ENDBRANCH   8  16
ENDBRANCH   1  11
BRANCH   7  22
ATOM     22  C   UNL     1       9.256  12.902  20.460  0.00  0.00    +0.000 C 
ATOM     23  C   UNL     1       8.625  12.679  21.461  0.00  0.00    +0.000 C 
BRANCH  23  24
ATOM     24  C   UNL     1       7.874  12.520  22.669  0.00  0.00    +0.000 A 
ATOM     25  C   UNL     1       8.443  11.926  23.794  0.00  0.00    +0.000 A 
ATOM     26  C   UNL     1       7.655  11.724  24.932  0.00  0.00    +0.000 A 
ATOM     27  C   UNL     1       6.330  12.131  24.914  0.00  0.00    +0.000 A 
ATOM     28  N   UNL     1       5.497  11.875  26.000  0.00  0.00    +0.000 N 
ATOM     29  N   UNL     1       5.764  12.721  23.846  0.00  0.00    +0.000 NA
ATOM     30  C   UNL     1       6.545  12.903  22.752  0.00  0.00    +0.000 A 
ATOM     31  H   UNL     1       5.890  12.204  26.873  0.00  0.00    +0.000 HD
ATOM     32  H   UNL     1       4.597  12.302  25.796  0.00  0.00    +0.000 HD
ENDBRANCH  23  24
ENDBRANCH   7  22
TORSDOF 7
ENDMDL
