MODEL 1
REMARK VINA RESULT:      -7.8      0.000      0.000
REMARK  Name = 
REMARK  8 active torsions:
REMARK  status: ('A' for Active; 'I' for Inactive)
REMARK    1  A    between atoms: C_2  and  C_3
REMARK    2  A    between atoms: C_3  and  S_4
REMARK    3  A    between atoms: S_4  and  C_5
REMARK    4  A    between atoms: C_7  and  C_8
REMARK    5  A    between atoms: C_8  and  C_9
REMARK    6  A    between atoms: C_8  and  C_11
REMARK    7  A    between atoms: C_21  and  C_22
REMARK    8  A    between atoms: C_22  and  C_23
REMARK                            x       y       z     vdW  Elec       q    Type
REMARK                         _______ _______ _______ _____ _____    ______ ____
ROOT
ATOM      1  C   UNL     1       7.077   6.299  17.551  0.00  0.00    +0.000 A 
ATOM      2  N   UNL     1       5.896   5.872  17.824  0.00  0.00    +0.000 NA
ATOM      3  C   UNL     1       5.150   5.279  16.813  0.00  0.00    +0.000 A 
ATOM      4  C   UNL     1       5.643   5.083  15.567  0.00  0.00    +0.000 A 
ATOM      5  C   UNL     1       7.048   5.527  15.318  0.00  0.00    +0.000 A 
ATOM      6  O   UNL     1       7.617   5.325  14.251  0.00  0.00    +0.000 OA
ATOM      7  N   UNL     1       7.661   6.174  16.340  0.00  0.00    +0.000 N 
ATOM      8  H   UNL     1       8.605   6.500  16.206  0.00  0.00    +0.000 HD
ENDROOT
BRANCH   4   9
ATOM      9  C   UNL     1       4.913   4.539  14.365  0.00  0.00    +0.000 C 
ATOM     10  C   UNL     1       5.720   3.538  13.549  0.00  0.00    +0.000 C 
ENDBRANCH   4   9
BRANCH   1  11
ATOM     11  S   UNL     1       8.075   7.135  18.694  0.00  0.00    +0.000 S 
BRANCH  11  12
ATOM     12  C   UNL     1       8.172   8.766  17.905  0.00  0.00    +0.000 C 
BRANCH  12  14
ATOM     13  C   UNL     1       9.396  10.896  18.447  0.00  0.00    +0.000 C 
ATOM     14  C   UNL     1       8.911   9.703  18.818  0.00  0.00    +0.000 C 
ENDBRANCH  12  14
ENDBRANCH  11  12
ENDBRANCH   1  11
BRANCH   3  15
ATOM     15  C   UNL     1       3.731   4.840  17.258  0.00  0.00    +0.000 C 
BRANCH  15  16
ATOM     16  C   UNL     1       3.175   5.457  18.582  0.00  0.00    +0.000 A 
ATOM     17  C   UNL     1       3.059   4.647  19.730  0.00  0.00    +0.000 A 
ATOM     18  C   UNL     1       2.330   5.058  20.842  0.00  0.00    +0.000 A 
ATOM     19  C   UNL     1       1.721   6.303  20.854  0.00  0.00    +0.000 A 
ATOM     20  C   UNL     1       1.894   7.192  19.792  0.00  0.00    +0.000 A 
ATOM     21  C   UNL     1       1.302   8.463  19.891  0.00  0.00    +0.000 A 
ATOM     22  C   UNL     1       1.469   9.412  18.893  0.00  0.00    +0.000 A 
ATOM     23  C   UNL     1       2.228   9.092  17.777  0.00  0.00    +0.000 A 
ATOM     24  C   UNL     1       2.800   7.812  17.650  0.00  0.00    +0.000 A 
ATOM     25  C   UNL     1       2.648   6.804  18.647  0.00  0.00    +0.000 A 
ENDBRANCH  15  16
BRANCH  15  26
ATOM     26  C   UNL     1       3.820   3.337  17.465  0.00  0.00    +0.000 C 
ATOM     27  N   UNL     1       3.895   2.090  17.636  0.00  0.00    +0.000 NA
ENDBRANCH  15  26
ENDBRANCH   3  15
TORSDOF 7
ENDMDL
MODEL 2
REMARK VINA RESULT:      -7.4      5.838      9.169
REMARK  Name = 
REMARK  8 active torsions:
REMARK  status: ('A' for Active; 'I' for Inactive)
REMARK    1  A    between atoms: C_2  and  C_3
REMARK    2  A    between atoms: C_3  and  S_4
REMARK    3  A    between atoms: S_4  and  C_5
REMARK    4  A    between atoms: C_7  and  C_8
REMARK    5  A    between atoms: C_8  and  C_9
REMARK    6  A    between atoms: C_8  and  C_11
REMARK    7  A    between atoms: C_21  and  C_22
REMARK    8  A    between atoms: C_22  and  C_23
REMARK                            x       y       z     vdW  Elec       q    Type
REMARK                         _______ _______ _______ _____ _____    ______ ____
ROOT
ATOM      1  C   UNL     1       0.988   8.923  20.688  0.00  0.00    +0.000 A 
ATOM      2  N   UNL     1       0.412   9.849  20.008  0.00  0.00    +0.000 NA
ATOM      3  C   UNL     1      -0.407  10.753  20.671  0.00  0.00    +0.000 A 
ATOM      4  C   UNL     1      -0.576  10.729  22.015  0.00  0.00    +0.000 A 
ATOM      5  C   UNL     1       0.175   9.682  22.772  0.00  0.00    +0.000 A 
ATOM      6  O   UNL     1       0.157   9.622  23.997  0.00  0.00    +0.000 OA
ATOM      7  N   UNL     1       0.877   8.793  22.027  0.00  0.00    +0.000 N 
ATOM      8  H   UNL     1       1.387   8.063  22.501  0.00  0.00    +0.000 HD
ENDROOT
BRANCH   4   9
ATOM      9  C   UNL     1      -1.499  11.588  22.841  0.00  0.00    +0.000 C 
ATOM     10  C   UNL     1      -1.007  13.015  23.041  0.00  0.00    +0.000 C 
ENDBRANCH   4   9
BRANCH   1  11
ATOM     11  S   UNL     1       1.963   7.681  19.972  0.00  0.00    +0.000 S 
BRANCH  11  12
ATOM     12  C   UNL     1       2.207   8.379  18.315  0.00  0.00    +0.000 C 
BRANCH  12  14
ATOM     13  C   UNL     1       3.691   6.371  18.007  0.00  0.00    +0.000 C 
ATOM     14  C   UNL     1       3.242   7.564  17.593  0.00  0.00    +0.000 C 
ENDBRANCH  12  14
ENDBRANCH  11  12
ENDBRANCH   1  11
BRANCH   3  15
ATOM     15  C   UNL     1      -1.073  11.796  19.737  0.00  0.00    +0.000 C 
BRANCH  15  16
ATOM     16  C   UNL     1      -2.068  11.258  18.659  0.00  0.00    +0.000 A 
ATOM     17  C   UNL     1      -1.591  10.413  17.635  0.00  0.00    +0.000 A 
ATOM     18  C   UNL     1      -2.359  10.126  16.511  0.00  0.00    +0.000 A 
ATOM     19  C   UNL     1      -3.637  10.647  16.388  0.00  0.00    +0.000 A 
ATOM     20  C   UNL     1      -4.203  11.398  17.419  0.00  0.00    +0.000 A 
ATOM     21  C   UNL     1      -5.526  11.847  17.262  0.00  0.00    +0.000 A 
ATOM     22  C   UNL     1      -6.166  12.560  18.264  0.00  0.00    +0.000 A 
ATOM     23  C   UNL     1      -5.480  12.838  19.438  0.00  0.00    +0.000 A 
ATOM     24  C   UNL     1      -4.145  12.423  19.596  0.00  0.00    +0.000 A 
ATOM     25  C   UNL     1      -3.446  11.695  18.589  0.00  0.00    +0.000 A 
ENDBRANCH  15  16
BRANCH  15  26
ATOM     26  C   UNL     1       0.074  12.464  18.997  0.00  0.00    +0.000 C 
ATOM     27  N   UNL     1       1.026  13.018  18.383  0.00  0.00    +0.000 NA
ENDBRANCH  15  26
ENDBRANCH   3  15
TORSDOF 7
ENDMDL
MODEL 3
REMARK VINA RESULT:      -7.4      2.546      4.142
REMARK  Name = 
REMARK  8 active torsions:
REMARK  status: ('A' for Active; 'I' for Inactive)
REMARK    1  A    between atoms: C_2  and  C_3
REMARK    2  A    between atoms: C_3  and  S_4
REMARK    3  A    between atoms: S_4  and  C_5
REMARK    4  A    between atoms: C_7  and  C_8
REMARK    5  A    between atoms: C_8  and  C_9
REMARK    6  A    between atoms: C_8  and  C_11
REMARK    7  A    between atoms: C_21  and  C_22
REMARK    8  A    between atoms: C_22  and  C_23
REMARK                            x       y       z     vdW  Elec       q    Type
REMARK                         _______ _______ _______ _____ _____    ______ ____
ROOT
ATOM      1  C   UNL     1       6.272   4.778  15.370  0.00  0.00    +0.000 A 
ATOM      2  N   UNL     1       5.032   4.858  15.696  0.00  0.00    +0.000 NA
ATOM      3  C   UNL     1       4.684   4.740  17.035  0.00  0.00    +0.000 A 
ATOM      4  C   UNL     1       5.609   4.601  18.015  0.00  0.00    +0.000 A 
ATOM      5  C   UNL     1       7.044   4.591  17.595  0.00  0.00    +0.000 A 
ATOM      6  O   UNL     1       7.962   4.550  18.407  0.00  0.00    +0.000 OA
ATOM      7  N   UNL     1       7.276   4.621  16.260  0.00  0.00    +0.000 N 
ATOM      8  H   UNL     1       8.230   4.603  15.936  0.00  0.00    +0.000 HD
ENDROOT
BRANCH   4   9
ATOM      9  C   UNL     1       5.364   4.374  19.486  0.00  0.00    +0.000 C 
ATOM     10  C   UNL     1       5.070   2.925  19.851  0.00  0.00    +0.000 C 
ENDBRANCH   4   9
BRANCH   1  11
ATOM     11  S   UNL     1       6.830   4.820  13.730  0.00  0.00    +0.000 S 
BRANCH  11  12
ATOM     12  C   UNL     1       5.967   3.372  13.059  0.00  0.00    +0.000 C 
BRANCH  12  14
ATOM     13  C   UNL     1       4.219   3.010  11.285  0.00  0.00    +0.000 C 
ATOM     14  C   UNL     1       5.011   3.827  11.993  0.00  0.00    +0.000 C 
ENDBRANCH  12  14
ENDBRANCH  11  12
ENDBRANCH   1  11
BRANCH   3  15
ATOM     15  C   UNL     1       3.158   4.816  17.295  0.00  0.00    +0.000 C 
BRANCH  15  16
ATOM     16  C   UNL     1       2.691   5.545  18.596  0.00  0.00    +0.000 A 
ATOM     17  C   UNL     1       2.417   4.790  19.755  0.00  0.00    +0.000 A 
ATOM     18  C   UNL     1       1.748   5.342  20.844  0.00  0.00    +0.000 A 
ATOM     19  C   UNL     1       1.361   6.672  20.822  0.00  0.00    +0.000 A 
ATOM     20  C   UNL     1       1.703   7.497  19.750  0.00  0.00    +0.000 A 
ATOM     21  C   UNL     1       1.336   8.853  19.814  0.00  0.00    +0.000 A 
ATOM     22  C   UNL     1       1.681   9.739  18.805  0.00  0.00    +0.000 A 
ATOM     23  C   UNL     1       2.396   9.271  17.712  0.00  0.00    +0.000 A 
ATOM     24  C   UNL     1       2.742   7.911  17.618  0.00  0.00    +0.000 A 
ATOM     25  C   UNL     1       2.401   6.963  18.628  0.00  0.00    +0.000 A 
ENDBRANCH  15  16
BRANCH  15  26
ATOM     26  C   UNL     1       2.694   3.372  17.397  0.00  0.00    +0.000 C 
ATOM     27  N   UNL     1       2.308   2.175  17.483  0.00  0.00    +0.000 NA
ENDBRANCH  15  26
ENDBRANCH   3  15
TORSDOF 7
ENDMDL
MODEL 4
REMARK VINA RESULT:      -7.3      6.939     10.107
REMARK  Name = 
REMARK  8 active torsions:
REMARK  status: ('A' for Active; 'I' for Inactive)
REMARK    1  A    between atoms: C_2  and  C_3
REMARK    2  A    between atoms: C_3  and  S_4
REMARK    3  A    between atoms: S_4  and  C_5
REMARK    4  A    between atoms: C_7  and  C_8
REMARK    5  A    between atoms: C_8  and  C_9
REMARK    6  A    between atoms: C_8  and  C_11
REMARK    7  A    between atoms: C_21  and  C_22
REMARK    8  A    between atoms: C_22  and  C_23
REMARK                            x       y       z     vdW  Elec       q    Type
REMARK                         _______ _______ _______ _____ _____    ______ ____
ROOT
ATOM      1  C   UNL     1      -4.329  12.655  20.080  0.00  0.00    +0.000 A 
ATOM      2  N   UNL     1      -3.060  12.539  20.248  0.00  0.00    +0.000 NA
ATOM      3  C   UNL     1      -2.291  12.037  19.205  0.00  0.00    +0.000 A 
ATOM      4  C   UNL     1      -2.822  11.721  18.000  0.00  0.00    +0.000 A 
ATOM      5  C   UNL     1      -4.289  11.946  17.827  0.00  0.00    +0.000 A 
ATOM      6  O   UNL     1      -4.855  11.768  16.753  0.00  0.00    +0.000 OA
ATOM      7  N   UNL     1      -4.966  12.353  18.928  0.00  0.00    +0.000 N 
ATOM      8  H   UNL     1      -5.960  12.503  18.855  0.00  0.00    +0.000 HD
ENDROOT
BRANCH   4   9
ATOM      9  C   UNL     1      -2.121  11.088  16.824  0.00  0.00    +0.000 C 
ATOM     10  C   UNL     1      -2.344   9.587  16.701  0.00  0.00    +0.000 C 
ENDBRANCH   4   9
BRANCH   1  11
ATOM     11  S   UNL     1      -5.410  13.182  21.327  0.00  0.00    +0.000 S 
BRANCH  11  12
ATOM     12  C   UNL     1      -4.221  13.857  22.520  0.00  0.00    +0.000 C 
BRANCH  12  14
ATOM     13  C   UNL     1      -2.804  12.183  23.753  0.00  0.00    +0.000 C 
ATOM     14  C   UNL     1      -3.966  12.829  23.585  0.00  0.00    +0.000 C 
ENDBRANCH  12  14
ENDBRANCH  11  12
ENDBRANCH   1  11
BRANCH   3  15
ATOM     15  C   UNL     1      -0.784  11.910  19.544  0.00  0.00    +0.000 C 
BRANCH  15  16
ATOM     16  C   UNL     1      -0.319  10.595  20.247  0.00  0.00    +0.000 A 
ATOM     17  C   UNL     1      -0.667  10.367  21.595  0.00  0.00    +0.000 A 
ATOM     18  C   UNL     1      -0.064   9.361  22.344  0.00  0.00    +0.000 A 
ATOM     19  C   UNL     1       0.881   8.532  21.764  0.00  0.00    +0.000 A 
ATOM     20  C   UNL     1       1.185   8.637  20.405  0.00  0.00    +0.000 A 
ATOM     21  C   UNL     1       2.108   7.727  19.861  0.00  0.00    +0.000 A 
ATOM     22  C   UNL     1       2.423   7.746  18.511  0.00  0.00    +0.000 A 
ATOM     23  C   UNL     1       1.820   8.687  17.690  0.00  0.00    +0.000 A 
ATOM     24  C   UNL     1       0.920   9.626  18.227  0.00  0.00    +0.000 A 
ATOM     25  C   UNL     1       0.572   9.648  19.610  0.00  0.00    +0.000 A 
ENDBRANCH  15  16
BRANCH  15  26
ATOM     26  C   UNL     1      -0.486  13.058  20.494  0.00  0.00    +0.000 C 
ATOM     27  N   UNL     1      -0.239  14.011  21.282  0.00  0.00    +0.000 NA
ENDBRANCH  15  26
ENDBRANCH   3  15
TORSDOF 7
ENDMDL
MODEL 5
REMARK VINA RESULT:      -7.3      5.781      9.273
REMARK  Name = 
REMARK  8 active torsions:
REMARK  status: ('A' for Active; 'I' for Inactive)
REMARK    1  A    between atoms: C_2  and  C_3
REMARK    2  A    between atoms: C_3  and  S_4
REMARK    3  A    between atoms: S_4  and  C_5
REMARK    4  A    between atoms: C_7  and  C_8
REMARK    5  A    between atoms: C_8  and  C_9
REMARK    6  A    between atoms: C_8  and  C_11
REMARK    7  A    between atoms: C_21  and  C_22
REMARK    8  A    between atoms: C_22  and  C_23
REMARK                            x       y       z     vdW  Elec       q    Type
REMARK                         _______ _______ _______ _____ _____    ______ ____
ROOT
ATOM      1  C   UNL     1       1.090   8.850  20.590  0.00  0.00    +0.000 A 
ATOM      2  N   UNL     1       0.498   9.775  19.923  0.00  0.00    +0.000 NA
ATOM      3  C   UNL     1      -0.310  10.676  20.605  0.00  0.00    +0.000 A 
ATOM      4  C   UNL     1      -0.450  10.650  21.952  0.00  0.00    +0.000 A 
ATOM      5  C   UNL     1       0.320   9.604  22.692  0.00  0.00    +0.000 A 
ATOM      6  O   UNL     1       0.327   9.542  23.917  0.00  0.00    +0.000 OA
ATOM      7  N   UNL     1       1.007   8.717  21.931  0.00  0.00    +0.000 N 
ATOM      8  H   UNL     1       1.529   7.989  22.393  0.00  0.00    +0.000 HD
ENDROOT
BRANCH   4   9
ATOM      9  C   UNL     1      -1.358  11.505  22.799  0.00  0.00    +0.000 C 
ATOM     10  C   UNL     1      -0.930  12.964  22.891  0.00  0.00    +0.000 C 
ENDBRANCH   4   9
BRANCH   1  11
ATOM     11  S   UNL     1       2.053   7.612  19.851  0.00  0.00    +0.000 S 
BRANCH  11  12
ATOM     12  C   UNL     1       1.541   6.176  20.836  0.00  0.00    +0.000 C 
BRANCH  12  14
ATOM     13  C   UNL     1       2.842   4.118  20.199  0.00  0.00    +0.000 C 
ATOM     14  C   UNL     1       1.786   4.928  20.036  0.00  0.00    +0.000 C 
ENDBRANCH  12  14
ENDBRANCH  11  12
ENDBRANCH   1  11
BRANCH   3  15
ATOM     15  C   UNL     1      -0.998  11.719  19.688  0.00  0.00    +0.000 C 
BRANCH  15  16
ATOM     16  C   UNL     1      -2.020  11.181  18.635  0.00  0.00    +0.000 A 
ATOM     17  C   UNL     1      -1.573  10.322  17.610  0.00  0.00    +0.000 A 
ATOM     18  C   UNL     1      -2.367  10.032  16.504  0.00  0.00    +0.000 A 
ATOM     19  C   UNL     1      -3.642  10.564  16.403  0.00  0.00    +0.000 A 
ATOM     20  C   UNL     1      -4.179  11.330  17.438  0.00  0.00    +0.000 A 
ATOM     21  C   UNL     1      -5.500  11.791  17.304  0.00  0.00    +0.000 A 
ATOM     22  C   UNL     1      -6.112  12.520  18.312  0.00  0.00    +0.000 A 
ATOM     23  C   UNL     1      -5.400  12.802  19.469  0.00  0.00    +0.000 A 
ATOM     24  C   UNL     1      -4.066  12.375  19.604  0.00  0.00    +0.000 A 
ATOM     25  C   UNL     1      -3.395  11.631  18.589  0.00  0.00    +0.000 A 
ENDBRANCH  15  16
BRANCH  15  26
ATOM     26  C   UNL     1       0.131  12.386  18.919  0.00  0.00    +0.000 C 
ATOM     27  N   UNL     1       1.067  12.940  18.281  0.00  0.00    +0.000 NA
ENDBRANCH  15  26
ENDBRANCH   3  15
TORSDOF 7
ENDMDL
MODEL 6
REMARK VINA RESULT:      -7.2      2.505      4.449
REMARK  Name = 
REMARK  8 active torsions:
REMARK  status: ('A' for Active; 'I' for Inactive)
REMARK    1  A    between atoms: C_2  and  C_3
REMARK    2  A    between atoms: C_3  and  S_4
REMARK    3  A    between atoms: S_4  and  C_5
REMARK    4  A    between atoms: C_7  and  C_8
REMARK    5  A    between atoms: C_8  and  C_9
REMARK    6  A    between atoms: C_8  and  C_11
REMARK    7  A    between atoms: C_21  and  C_22
REMARK    8  A    between atoms: C_22  and  C_23
REMARK                            x       y       z     vdW  Elec       q    Type
REMARK                         _______ _______ _______ _____ _____    ______ ____
ROOT
ATOM      1  C   UNL     1       6.044   4.117  14.818  0.00  0.00    +0.000 A 
ATOM      2  N   UNL     1       4.923   3.923  15.415  0.00  0.00    +0.000 NA
ATOM      3  C   UNL     1       4.883   4.004  16.802  0.00  0.00    +0.000 A 
ATOM      4  C   UNL     1       5.968   4.336  17.540  0.00  0.00    +0.000 A 
ATOM      5  C   UNL     1       7.231   4.628  16.795  0.00  0.00    +0.000 A 
ATOM      6  O   UNL     1       8.248   5.015  17.360  0.00  0.00    +0.000 OA
ATOM      7  N   UNL     1       7.192   4.435  15.454  0.00  0.00    +0.000 N 
ATOM      8  H   UNL     1       8.027   4.609  14.918  0.00  0.00    +0.000 HD
ENDROOT
BRANCH   4   9
ATOM      9  C   UNL     1       6.081   4.371  19.044  0.00  0.00    +0.000 C 
ATOM     10  C   UNL     1       6.565   5.704  19.600  0.00  0.00    +0.000 C 
ENDBRANCH   4   9
BRANCH   1  11
ATOM     11  S   UNL     1       6.249   3.958  13.104  0.00  0.00    +0.000 S 
BRANCH  11  12
ATOM     12  C   UNL     1       4.626   3.287  12.647  0.00  0.00    +0.000 C 
BRANCH  12  14
ATOM     13  C   UNL     1       3.294   3.349  10.513  0.00  0.00    +0.000 C 
ATOM     14  C   UNL     1       4.470   3.370  11.155  0.00  0.00    +0.000 C 
ENDBRANCH  12  14
ENDBRANCH  11  12
ENDBRANCH   1  11
BRANCH   3  15
ATOM     15  C   UNL     1       3.485   3.715  17.405  0.00  0.00    +0.000 C 
BRANCH  15  16
ATOM     16  C   UNL     1       3.048   4.571  18.637  0.00  0.00    +0.000 A 
ATOM     17  C   UNL     1       2.738   3.928  19.854  0.00  0.00    +0.000 A 
ATOM     18  C   UNL     1       2.092   4.599  20.889  0.00  0.00    +0.000 A 
ATOM     19  C   UNL     1       1.765   5.939  20.753  0.00  0.00    +0.000 A 
ATOM     20  C   UNL     1       2.146   6.655  19.617  0.00  0.00    +0.000 A 
ATOM     21  C   UNL     1       1.839   8.026  19.565  0.00  0.00    +0.000 A 
ATOM     22  C   UNL     1       2.225   8.808  18.487  0.00  0.00    +0.000 A 
ATOM     23  C   UNL     1       2.921   8.219  17.441  0.00  0.00    +0.000 A 
ATOM     24  C   UNL     1       3.206   6.841  17.465  0.00  0.00    +0.000 A 
ATOM     25  C   UNL     1       2.821   5.998  18.548  0.00  0.00    +0.000 A 
ENDBRANCH  15  16
BRANCH  15  26
ATOM     26  C   UNL     1       3.534   2.265  17.859  0.00  0.00    +0.000 C 
ATOM     27  N   UNL     1       3.574   1.062  18.236  0.00  0.00    +0.000 NA
ENDBRANCH  15  26
ENDBRANCH   3  15
TORSDOF 7
ENDMDL
MODEL 7
REMARK VINA RESULT:      -7.1      2.732      4.451
REMARK  Name = 
REMARK  8 active torsions:
REMARK  status: ('A' for Active; 'I' for Inactive)
REMARK    1  A    between atoms: C_2  and  C_3
REMARK    2  A    between atoms: C_3  and  S_4
REMARK    3  A    between atoms: S_4  and  C_5
REMARK    4  A    between atoms: C_7  and  C_8
REMARK    5  A    between atoms: C_8  and  C_9
REMARK    6  A    between atoms: C_8  and  C_11
REMARK    7  A    between atoms: C_21  and  C_22
REMARK    8  A    between atoms: C_22  and  C_23
REMARK                            x       y       z     vdW  Elec       q    Type
REMARK                         _______ _______ _______ _____ _____    ______ ____
ROOT
ATOM      1  C   UNL     1       4.879   3.455  19.319  0.00  0.00    +0.000 A 
ATOM      2  N   UNL     1       3.856   4.176  19.027  0.00  0.00    +0.000 NA
ATOM      3  C   UNL     1       4.035   5.295  18.224  0.00  0.00    +0.000 A 
ATOM      4  C   UNL     1       5.236   5.621  17.691  0.00  0.00    +0.000 A 
ATOM      5  C   UNL     1       6.381   4.710  17.996  0.00  0.00    +0.000 A 
ATOM      6  O   UNL     1       7.492   4.868  17.501  0.00  0.00    +0.000 OA
ATOM      7  N   UNL     1       6.126   3.697  18.860  0.00  0.00    +0.000 N 
ATOM      8  H   UNL     1       6.876   3.068  19.101  0.00  0.00    +0.000 HD
ENDROOT
BRANCH   4   9
ATOM      9  C   UNL     1       5.582   6.847  16.884  0.00  0.00    +0.000 C 
ATOM     10  C   UNL     1       5.203   6.750  15.413  0.00  0.00    +0.000 C 
ENDBRANCH   4   9
BRANCH   1  11
ATOM     11  S   UNL     1       4.808   2.088  20.381  0.00  0.00    +0.000 S 
BRANCH  11  12
ATOM     12  C   UNL     1       3.030   1.729  20.326  0.00  0.00    +0.000 C 
BRANCH  12  14
ATOM     13  C   UNL     1       1.129   3.100  21.241  0.00  0.00    +0.000 C 
ATOM     14  C   UNL     1       2.339   2.541  21.384  0.00  0.00    +0.000 C 
ENDBRANCH  12  14
ENDBRANCH  11  12
ENDBRANCH   1  11
BRANCH   3  15
ATOM     15  C   UNL     1       2.734   6.101  17.975  0.00  0.00    +0.000 C 
BRANCH  15  16
ATOM     16  C   UNL     1       2.210   6.991  19.147  0.00  0.00    +0.000 A 
ATOM     17  C   UNL     1       1.889   6.392  20.383  0.00  0.00    +0.000 A 
ATOM     18  C   UNL     1       1.173   7.077  21.361  0.00  0.00    +0.000 A 
ATOM     19  C   UNL     1       0.783   8.389  21.148  0.00  0.00    +0.000 A 
ATOM     20  C   UNL     1       1.168   9.069  19.992  0.00  0.00    +0.000 A 
ATOM     21  C   UNL     1       0.794  10.418  19.862  0.00  0.00    +0.000 A 
ATOM     22  C   UNL     1       1.179  11.166  18.760  0.00  0.00    +0.000 A 
ATOM     23  C   UNL     1       1.941  10.566  17.768  0.00  0.00    +0.000 A 
ATOM     24  C   UNL     1       2.295   9.207  17.869  0.00  0.00    +0.000 A 
ATOM     25  C   UNL     1       1.914   8.398  18.980  0.00  0.00    +0.000 A 
ENDBRANCH  15  16
BRANCH  15  26
ATOM     26  C   UNL     1       1.664   5.061  17.686  0.00  0.00    +0.000 C 
ATOM     27  N   UNL     1       0.776   4.199  17.445  0.00  0.00    +0.000 NA
ENDBRANCH  15  26
ENDBRANCH   3  15
TORSDOF 7
ENDMDL
MODEL 8
REMARK VINA RESULT:      -7.1      6.945     10.261
REMARK  Name = 
REMARK  8 active torsions:
REMARK  status: ('A' for Active; 'I' for Inactive)
REMARK    1  A    between atoms: C_2  and  C_3
REMARK    2  A    between atoms: C_3  and  S_4
REMARK    3  A    between atoms: S_4  and  C_5
REMARK    4  A    between atoms: C_7  and  C_8
REMARK    5  A    between atoms: C_8  and  C_9
REMARK    6  A    between atoms: C_8  and  C_11
REMARK    7  A    between atoms: C_21  and  C_22
REMARK    8  A    between atoms: C_22  and  C_23
REMARK                            x       y       z     vdW  Elec       q    Type
REMARK                         _______ _______ _______ _____ _____    ______ ____
ROOT
ATOM      1  C   UNL     1      -3.583  13.074  20.225  0.00  0.00    +0.000 A 
ATOM      2  N   UNL     1      -2.348  12.746  20.092  0.00  0.00    +0.000 NA
ATOM      3  C   UNL     1      -2.010  11.787  19.145  0.00  0.00    +0.000 A 
ATOM      4  C   UNL     1      -2.927  11.229  18.319  0.00  0.00    +0.000 A 
ATOM      5  C   UNL     1      -4.339  11.699  18.460  0.00  0.00    +0.000 A 
ATOM      6  O   UNL     1      -5.232  11.318  17.710  0.00  0.00    +0.000 OA
ATOM      7  N   UNL     1      -4.582  12.569  19.470  0.00  0.00    +0.000 N 
ATOM      8  H   UNL     1      -5.525  12.900  19.605  0.00  0.00    +0.000 HD
ENDROOT
BRANCH   4   9
ATOM      9  C   UNL     1      -2.710  10.121  17.319  0.00  0.00    +0.000 C 
ATOM     10  C   UNL     1      -2.554  10.603  15.883  0.00  0.00    +0.000 C 
ENDBRANCH   4   9
BRANCH   1  11
ATOM     11  S   UNL     1      -4.147  14.189  21.426  0.00  0.00    +0.000 S 
BRANCH  11  12
ATOM     12  C   UNL     1      -4.736  13.029  22.691  0.00  0.00    +0.000 C 
BRANCH  12  14
ATOM     13  C   UNL     1      -6.987  12.468  23.665  0.00  0.00    +0.000 C 
ATOM     14  C   UNL     1      -6.208  13.243  22.897  0.00  0.00    +0.000 C 
ENDBRANCH  12  14
ENDBRANCH  11  12
ENDBRANCH   1  11
BRANCH   3  15
ATOM     15  C   UNL     1      -0.498  11.450  19.106  0.00  0.00    +0.000 C 
BRANCH  15  16
ATOM     16  C   UNL     1      -0.027  10.187  19.896  0.00  0.00    +0.000 A 
ATOM     17  C   UNL     1      -0.401  10.033  21.247  0.00  0.00    +0.000 A 
ATOM     18  C   UNL     1       0.201   9.083  22.066  0.00  0.00    +0.000 A 
ATOM     19  C   UNL     1       1.173   8.237  21.555  0.00  0.00    +0.000 A 
ATOM     20  C   UNL     1       1.504   8.268  20.200  0.00  0.00    +0.000 A 
ATOM     21  C   UNL     1       2.452   7.343  19.729  0.00  0.00    +0.000 A 
ATOM     22  C   UNL     1       2.797   7.288  18.387  0.00  0.00    +0.000 A 
ATOM     23  C   UNL     1       2.197   8.170  17.499  0.00  0.00    +0.000 A 
ATOM     24  C   UNL     1       1.270   9.122  17.962  0.00  0.00    +0.000 A 
ATOM     25  C   UNL     1       0.893   9.220  19.334  0.00  0.00    +0.000 A 
ENDBRANCH  15  16
BRANCH  15  26
ATOM     26  C   UNL     1       0.199  12.652  19.724  0.00  0.00    +0.000 C 
ATOM     27  N   UNL     1       0.776  13.649  20.237  0.00  0.00    +0.000 NA
ENDBRANCH  15  26
ENDBRANCH   3  15
TORSDOF 7
ENDMDL
MODEL 9
REMARK VINA RESULT:      -7.0      7.160     10.282
REMARK  Name = 
REMARK  8 active torsions:
REMARK  status: ('A' for Active; 'I' for Inactive)
REMARK    1  A    between atoms: C_2  and  C_3
REMARK    2  A    between atoms: C_3  and  S_4
REMARK    3  A    between atoms: S_4  and  C_5
REMARK    4  A    between atoms: C_7  and  C_8
REMARK    5  A    between atoms: C_8  and  C_9
REMARK    6  A    between atoms: C_8  and  C_11
REMARK    7  A    between atoms: C_21  and  C_22
REMARK    8  A    between atoms: C_22  and  C_23
REMARK                            x       y       z     vdW  Elec       q    Type
REMARK                         _______ _______ _______ _____ _____    ______ ____
ROOT
ATOM      1  C   UNL     1      -3.643  12.883  21.699  0.00  0.00    +0.000 A 
ATOM      2  N   UNL     1      -2.401  12.630  21.488  0.00  0.00    +0.000 NA
ATOM      3  C   UNL     1      -2.017  12.169  20.235  0.00  0.00    +0.000 A 
ATOM      4  C   UNL     1      -2.894  12.032  19.212  0.00  0.00    +0.000 A 
ATOM      5  C   UNL     1      -4.314  12.413  19.483  0.00  0.00    +0.000 A 
ATOM      6  O   UNL     1      -5.171  12.404  18.606  0.00  0.00    +0.000 OA
ATOM      7  N   UNL     1      -4.606  12.765  20.759  0.00  0.00    +0.000 N 
ATOM      8  H   UNL     1      -5.556  13.017  20.984  0.00  0.00    +0.000 HD
ENDROOT
BRANCH   4   9
ATOM      9  C   UNL     1      -2.627  11.462  17.842  0.00  0.00    +0.000 C 
ATOM     10  C   UNL     1      -2.611   9.940  17.794  0.00  0.00    +0.000 C 
ENDBRANCH   4   9
BRANCH   1  11
ATOM     11  S   UNL     1      -4.266  13.378  23.238  0.00  0.00    +0.000 S 
BRANCH  11  12
ATOM     12  C   UNL     1      -2.755  14.031  24.002  0.00  0.00    +0.000 C 
BRANCH  12  14
ATOM     13  C   UNL     1      -2.303  15.725  25.807  0.00  0.00    +0.000 C 
ATOM     14  C   UNL     1      -3.121  15.182  24.894  0.00  0.00    +0.000 C 
ENDBRANCH  12  14
ENDBRANCH  11  12
ENDBRANCH   1  11
BRANCH   3  15
ATOM     15  C   UNL     1      -0.502  11.864  20.118  0.00  0.00    +0.000 C 
BRANCH  15  16
ATOM     16  C   UNL     1      -0.020  10.452  20.584  0.00  0.00    +0.000 A 
ATOM     17  C   UNL     1      -0.229  10.053  21.920  0.00  0.00    +0.000 A 
ATOM     18  C   UNL     1       0.408   8.938  22.456  0.00  0.00    +0.000 A 
ATOM     19  C   UNL     1       1.248   8.169  21.668  0.00  0.00    +0.000 A 
ATOM     20  C   UNL     1       1.407   8.450  20.310  0.00  0.00    +0.000 A 
ATOM     21  C   UNL     1       2.225   7.597  19.548  0.00  0.00    +0.000 A 
ATOM     22  C   UNL     1       2.393   7.791  18.186  0.00  0.00    +0.000 A 
ATOM     23  C   UNL     1       1.745   8.852  17.570  0.00  0.00    +0.000 A 
ATOM     24  C   UNL     1       0.949   9.734  18.326  0.00  0.00    +0.000 A 
ATOM     25  C   UNL     1       0.755   9.577  19.730  0.00  0.00    +0.000 A 
ENDBRANCH  15  16
BRANCH  15  26
ATOM     26  C   UNL     1       0.186  12.889  21.004  0.00  0.00    +0.000 C 
ATOM     27  N   UNL     1       0.758  13.740  21.738  0.00  0.00    +0.000 NA
ENDBRANCH  15  26
ENDBRANCH   3  15
TORSDOF 7
ENDMDL
