MODEL 1
REMARK VINA RESULT:      -8.1      0.000      0.000
REMARK  Name = 
REMARK  3 active torsions:
REMARK  status: ('A' for Active; 'I' for Inactive)
REMARK    1  A    between atoms: N_6  and  C_7
REMARK    2  A    between atoms: P_11  and  O_12
REMARK    3  A    between atoms: P_11  and  O_13
REMARK                            x       y       z     vdW  Elec       q    Type
REMARK                         _______ _______ _______ _____ _____    ______ ____
ROOT
ATOM      1  C   UNL     1       5.513   4.992  18.760  0.00  0.00    +0.000 C 
ATOM      2  C   UNL     1       4.141   5.643  19.039  0.00  0.00    +0.000 C 
ATOM      3  C   UNL     1       3.242   4.460  18.901  0.00  0.00    +0.000 C 
ATOM      4  O   UNL     1       2.005   4.617  19.560  0.00  0.00    +0.000 OA
ATOM      5  P   UNL     1       1.022   3.180  19.676  0.00  0.00    +0.000 P 
ATOM      6  O   UNL     1       2.281   2.058  20.091  0.00  0.00    +0.000 OA
ATOM      7  C   UNL     1       3.449   2.127  19.311  0.00  0.00    +0.000 C 
ATOM      8  C   UNL     1       4.099   3.451  19.580  0.00  0.00    +0.000 C 
ATOM      9  O   UNL     1       5.389   3.600  19.049  0.00  0.00    +0.000 OA
ATOM     10  H   UNL     1       0.031   4.062  20.159  0.00  0.00    +0.000 HD
ENDROOT
BRANCH   1  16
ATOM     11  O   UNL     1       7.850   5.501  13.838  0.00  0.00    +0.000 OA
ATOM     12  C   UNL     1       7.272   5.428  14.910  0.00  0.00    +0.000 A 
ATOM     13  N   UNL     1       7.692   6.196  15.962  0.00  0.00    +0.000 N 
ATOM     14  C   UNL     1       7.101   6.093  17.193  0.00  0.00    +0.000 A 
ATOM     15  O   UNL     1       7.537   6.759  18.118  0.00  0.00    +0.000 OA
ATOM     16  N   UNL     1       6.049   5.211  17.391  0.00  0.00    +0.000 N 
ATOM     17  C   UNL     1       5.594   4.469  16.330  0.00  0.00    +0.000 A 
ATOM     18  C   UNL     1       6.196   4.560  15.073  0.00  0.00    +0.000 A 
ATOM     19 CL   UNL     1       5.625   3.555  13.750  0.00  0.00    +0.000 Cl
ATOM     20  H   UNL     1       8.498   6.851  15.828  0.00  0.00    +0.000 HD
ENDBRANCH   1  16
BRANCH   5  21
ATOM     21  O   UNL     1       0.679   2.739  21.281  0.00  0.00    +0.000 OA
ATOM     22  H   UNL     1       1.147   1.875  21.442  0.00  0.00    +0.000 HD
ENDBRANCH   5  21
BRANCH   5  23
ATOM     23  O   UNL     1       0.950   3.394  17.996  0.00  0.00    +0.000 OA
ATOM     24  H   UNL     1       0.070   3.028  17.731  0.00  0.00    +0.000 HD
ENDBRANCH   5  23
TORSDOF 3
ENDMDL
MODEL 2
REMARK VINA RESULT:      -7.0      4.694      6.331
REMARK  Name = 
REMARK  3 active torsions:
REMARK  status: ('A' for Active; 'I' for Inactive)
REMARK    1  A    between atoms: N_6  and  C_7
REMARK    2  A    between atoms: P_11  and  O_12
REMARK    3  A    between atoms: P_11  and  O_13
REMARK                            x       y       z     vdW  Elec       q    Type
REMARK                         _______ _______ _______ _____ _____    ______ ____
ROOT
ATOM      1  C   UNL     1       2.817   7.122  18.950  0.00  0.00    +0.000 C 
ATOM      2  C   UNL     1       3.109   6.043  20.016  0.00  0.00    +0.000 C 
ATOM      3  C   UNL     1       2.190   4.957  19.568  0.00  0.00    +0.000 C 
ATOM      4  O   UNL     1       2.563   3.680  20.033  0.00  0.00    +0.000 OA
ATOM      5  P   UNL     1       1.702   2.336  19.327  0.00  0.00    +0.000 P 
ATOM      6  O   UNL     1       1.713   2.882  17.678  0.00  0.00    +0.000 OA
ATOM      7  C   UNL     1       1.344   4.222  17.470  0.00  0.00    +0.000 C 
ATOM      8  C   UNL     1       2.395   5.087  18.099  0.00  0.00    +0.000 C 
ATOM      9  O   UNL     1       2.299   6.454  17.801  0.00  0.00    +0.000 OA
ATOM     10  H   UNL     1       2.362   1.571  20.313  0.00  0.00    +0.000 HD
ENDROOT
BRANCH   1  16
ATOM     11  O   UNL     1      -0.876  10.912  20.344  0.00  0.00    +0.000 OA
ATOM     12  C   UNL     1      -0.003  10.104  20.076  0.00  0.00    +0.000 A 
ATOM     13  N   UNL     1       0.607  10.144  18.851  0.00  0.00    +0.000 N 
ATOM     14  C   UNL     1       1.548   9.214  18.499  0.00  0.00    +0.000 A 
ATOM     15  O   UNL     1       2.033   9.255  17.380  0.00  0.00    +0.000 OA
ATOM     16  N   UNL     1       1.911   8.215  19.390  0.00  0.00    +0.000 N 
ATOM     17  C   UNL     1       1.336   8.194  20.635  0.00  0.00    +0.000 A 
ATOM     18  C   UNL     1       0.368   9.133  21.001  0.00  0.00    +0.000 A 
ATOM     19 CL   UNL     1      -0.391   9.042  22.583  0.00  0.00    +0.000 Cl
ATOM     20  H   UNL     1       0.327  10.883  18.163  0.00  0.00    +0.000 HD
ENDBRANCH   1  16
BRANCH   5  21
ATOM     21  O   UNL     1       2.726   1.239  18.528  0.00  0.00    +0.000 OA
ATOM     22  H   UNL     1       3.190   1.755  17.814  0.00  0.00    +0.000 HD
ENDBRANCH   5  21
BRANCH   5  23
ATOM     23  O   UNL     1       0.412   3.038  20.174  0.00  0.00    +0.000 OA
ATOM     24  H   UNL     1       0.786   3.265  21.061  0.00  0.00    +0.000 HD
ENDBRANCH   5  23
TORSDOF 3
ENDMDL
MODEL 3
REMARK VINA RESULT:      -6.6      1.215      1.215
REMARK  Name = 
REMARK  3 active torsions:
REMARK  status: ('A' for Active; 'I' for Inactive)
REMARK    1  A    between atoms: N_6  and  C_7
REMARK    2  A    between atoms: P_11  and  O_12
REMARK    3  A    between atoms: P_11  and  O_13
REMARK                            x       y       z     vdW  Elec       q    Type
REMARK                         _______ _______ _______ _____ _____    ______ ____
ROOT
ATOM      1  C   UNL     1       5.603   4.927  19.054  0.00  0.00    +0.000 C 
ATOM      2  C   UNL     1       4.252   5.606  19.373  0.00  0.00    +0.000 C 
ATOM      3  C   UNL     1       3.317   4.457  19.190  0.00  0.00    +0.000 C 
ATOM      4  O   UNL     1       2.090   4.622  19.865  0.00  0.00    +0.000 OA
ATOM      5  P   UNL     1       1.065   3.211  19.926  0.00  0.00    +0.000 P 
ATOM      6  O   UNL     1       2.293   2.035  20.282  0.00  0.00    +0.000 OA
ATOM      7  C   UNL     1       3.457   2.103  19.496  0.00  0.00    +0.000 C 
ATOM      8  C   UNL     1       4.149   3.394  19.817  0.00  0.00    +0.000 C 
ATOM      9  O   UNL     1       5.439   3.528  19.284  0.00  0.00    +0.000 OA
ATOM     10  H   UNL     1       0.104   4.100  20.455  0.00  0.00    +0.000 HD
ENDROOT
BRANCH   1  16
ATOM     11  O   UNL     1       7.406   5.454  13.915  0.00  0.00    +0.000 OA
ATOM     12  C   UNL     1       7.024   5.408  15.072  0.00  0.00    +0.000 A 
ATOM     13  N   UNL     1       7.779   4.759  16.011  0.00  0.00    +0.000 N 
ATOM     14  C   UNL     1       7.349   4.639  17.306  0.00  0.00    +0.000 A 
ATOM     15  O   UNL     1       8.028   4.010  18.101  0.00  0.00    +0.000 OA
ATOM     16  N   UNL     1       6.136   5.189  17.692  0.00  0.00    +0.000 N 
ATOM     17  C   UNL     1       5.394   5.879  16.767  0.00  0.00    +0.000 A 
ATOM     18  C   UNL     1       5.819   5.999  15.442  0.00  0.00    +0.000 A 
ATOM     19 CL   UNL     1       4.817   6.839  14.269  0.00  0.00    +0.000 Cl
ATOM     20  H   UNL     1       8.688   4.323  15.725  0.00  0.00    +0.000 HD
ENDBRANCH   1  16
BRANCH   5  21
ATOM     21  O   UNL     1       0.720   2.710  21.514  0.00  0.00    +0.000 OA
ATOM     22  H   UNL     1       1.487   3.007  22.075  0.00  0.00    +0.000 HD
ENDBRANCH   5  21
BRANCH   5  23
ATOM     23  O   UNL     1       0.989   3.500  18.257  0.00  0.00    +0.000 OA
ATOM     24  H   UNL     1       0.048   3.754  18.088  0.00  0.00    +0.000 HD
ENDBRANCH   5  23
TORSDOF 3
ENDMDL
MODEL 4
REMARK VINA RESULT:      -6.5      1.733      2.161
REMARK  Name = 
REMARK  3 active torsions:
REMARK  status: ('A' for Active; 'I' for Inactive)
REMARK    1  A    between atoms: N_6  and  C_7
REMARK    2  A    between atoms: P_11  and  O_12
REMARK    3  A    between atoms: P_11  and  O_13
REMARK                            x       y       z     vdW  Elec       q    Type
REMARK                         _______ _______ _______ _____ _____    ______ ____
ROOT
ATOM      1  C   UNL     1       5.695   3.789  17.231  0.00  0.00    +0.000 C 
ATOM      2  C   UNL     1       5.701   4.864  18.340  0.00  0.00    +0.000 C 
ATOM      3  C   UNL     1       4.259   5.245  18.361  0.00  0.00    +0.000 C 
ATOM      4  O   UNL     1       3.856   5.842  19.574  0.00  0.00    +0.000 OA
ATOM      5  P   UNL     1       2.136   6.058  19.774  0.00  0.00    +0.000 P 
ATOM      6  O   UNL     1       1.624   4.517  19.159  0.00  0.00    +0.000 OA
ATOM      7  C   UNL     1       2.209   4.113  17.946  0.00  0.00    +0.000 C 
ATOM      8  C   UNL     1       3.670   3.888  18.197  0.00  0.00    +0.000 C 
ATOM      9  O   UNL     1       4.367   3.274  17.146  0.00  0.00    +0.000 OA
ATOM     10  H   UNL     1       2.501   6.802  20.918  0.00  0.00    +0.000 HD
ENDROOT
BRANCH   1  16
ATOM     11  O   UNL     1       7.851   5.178  12.397  0.00  0.00    +0.000 OA
ATOM     12  C   UNL     1       7.311   4.911  13.458  0.00  0.00    +0.000 A 
ATOM     13  N   UNL     1       7.755   5.499  14.612  0.00  0.00    +0.000 N 
ATOM     14  C   UNL     1       7.209   5.175  15.825  0.00  0.00    +0.000 A 
ATOM     15  O   UNL     1       7.666   5.684  16.836  0.00  0.00    +0.000 OA
ATOM     16  N   UNL     1       6.180   4.249  15.903  0.00  0.00    +0.000 N 
ATOM     17  C   UNL     1       5.701   3.688  14.746  0.00  0.00    +0.000 A 
ATOM     18  C   UNL     1       6.257   4.004  13.504  0.00  0.00    +0.000 A 
ATOM     19 CL   UNL     1       5.657   3.225  12.048  0.00  0.00    +0.000 Cl
ATOM     20  H   UNL     1       8.545   6.185  14.566  0.00  0.00    +0.000 HD
ENDBRANCH   1  16
BRANCH   5  21
ATOM     21  O   UNL     1       1.520   5.246  21.135  0.00  0.00    +0.000 OA
ATOM     22  H   UNL     1       2.143   4.491  21.318  0.00  0.00    +0.000 HD
ENDBRANCH   5  21
BRANCH   5  23
ATOM     23  O   UNL     1       2.375   7.153  18.503  0.00  0.00    +0.000 OA
ATOM     24  H   UNL     1       3.055   7.788  18.840  0.00  0.00    +0.000 HD
ENDBRANCH   5  23
TORSDOF 3
ENDMDL
MODEL 5
REMARK VINA RESULT:      -6.4      2.436      3.227
REMARK  Name = 
REMARK  3 active torsions:
REMARK  status: ('A' for Active; 'I' for Inactive)
REMARK    1  A    between atoms: N_6  and  C_7
REMARK    2  A    between atoms: P_11  and  O_12
REMARK    3  A    between atoms: P_11  and  O_13
REMARK                            x       y       z     vdW  Elec       q    Type
REMARK                         _______ _______ _______ _____ _____    ______ ____
ROOT
ATOM      1  C   UNL     1       4.416   4.829  16.996  0.00  0.00    +0.000 C 
ATOM      2  C   UNL     1       4.328   3.388  17.546  0.00  0.00    +0.000 C 
ATOM      3  C   UNL     1       3.425   3.596  18.716  0.00  0.00    +0.000 C 
ATOM      4  O   UNL     1       2.771   2.418  19.134  0.00  0.00    +0.000 OA
ATOM      5  P   UNL     1       1.499   2.636  20.309  0.00  0.00    +0.000 P 
ATOM      6  O   UNL     1       0.756   4.039  19.604  0.00  0.00    +0.000 OA
ATOM      7  C   UNL     1       1.630   5.071  19.221  0.00  0.00    +0.000 C 
ATOM      8  C   UNL     1       2.476   4.558  18.094  0.00  0.00    +0.000 C 
ATOM      9  O   UNL     1       3.255   5.526  17.445  0.00  0.00    +0.000 OA
ATOM     10  H   UNL     1       1.510   1.226  20.381  0.00  0.00    +0.000 HD
ENDROOT
BRANCH   1  16
ATOM     11  O   UNL     1       8.705   7.855  18.544  0.00  0.00    +0.000 OA
ATOM     12  C   UNL     1       7.797   7.131  18.170  0.00  0.00    +0.000 A 
ATOM     13  N   UNL     1       7.066   7.474  17.064  0.00  0.00    +0.000 N 
ATOM     14  C   UNL     1       6.004   6.713  16.654  0.00  0.00    +0.000 A 
ATOM     15  O   UNL     1       5.348   7.079  15.692  0.00  0.00    +0.000 OA
ATOM     16  N   UNL     1       5.657   5.565  17.351  0.00  0.00    +0.000 N 
ATOM     17  C   UNL     1       6.411   5.192  18.435  0.00  0.00    +0.000 A 
ATOM     18  C   UNL     1       7.491   5.966  18.867  0.00  0.00    +0.000 A 
ATOM     19 CL   UNL     1       8.400   5.490  20.293  0.00  0.00    +0.000 Cl
ATOM     20  H   UNL     1       7.308   8.349  16.541  0.00  0.00    +0.000 HD
ENDBRANCH   1  16
BRANCH   5  21
ATOM     21  O   UNL     1      -0.012   2.081  19.761  0.00  0.00    +0.000 OA
ATOM     22  H   UNL     1      -0.511   1.784  20.570  0.00  0.00    +0.000 HD
ENDBRANCH   5  21
BRANCH   5  23
ATOM     23  O   UNL     1       2.813   3.087  21.281  0.00  0.00    +0.000 OA
ATOM     24  H   UNL     1       3.158   3.918  20.869  0.00  0.00    +0.000 HD
ENDBRANCH   5  23
TORSDOF 3
ENDMDL
MODEL 6
REMARK VINA RESULT:      -6.3      3.447      4.775
REMARK  Name = 
REMARK  3 active torsions:
REMARK  status: ('A' for Active; 'I' for Inactive)
REMARK    1  A    between atoms: N_6  and  C_7
REMARK    2  A    between atoms: P_11  and  O_12
REMARK    3  A    between atoms: P_11  and  O_13
REMARK                            x       y       z     vdW  Elec       q    Type
REMARK                         _______ _______ _______ _____ _____    ______ ____
ROOT
ATOM      1  C   UNL     1       2.854   5.773  18.319  0.00  0.00    +0.000 C 
ATOM      2  C   UNL     1       2.149   5.644  19.688  0.00  0.00    +0.000 C 
ATOM      3  C   UNL     1       2.090   7.075  20.103  0.00  0.00    +0.000 C 
ATOM      4  O   UNL     1       1.091   7.338  21.063  0.00  0.00    +0.000 OA
ATOM      5  P   UNL     1       0.780   9.025  21.388  0.00  0.00    +0.000 P 
ATOM      6  O   UNL     1       0.817   9.598  19.748  0.00  0.00    +0.000 OA
ATOM      7  C   UNL     1       1.897   9.155  18.966  0.00  0.00    +0.000 C 
ATOM      8  C   UNL     1       1.752   7.674  18.783  0.00  0.00    +0.000 C 
ATOM      9  O   UNL     1       2.624   7.100  17.848  0.00  0.00    +0.000 OA
ATOM     10  H   UNL     1      -0.022   8.533  22.441  0.00  0.00    +0.000 HD
ENDROOT
BRANCH   1  16
ATOM     11  O   UNL     1       8.140   4.426  17.874  0.00  0.00    +0.000 OA
ATOM     12  C   UNL     1       6.977   4.754  18.041  0.00  0.00    +0.000 A 
ATOM     13  N   UNL     1       6.040   3.804  18.348  0.00  0.00    +0.000 N 
ATOM     14  C   UNL     1       4.717   4.133  18.483  0.00  0.00    +0.000 A 
ATOM     15  O   UNL     1       3.907   3.249  18.708  0.00  0.00    +0.000 OA
ATOM     16  N   UNL     1       4.304   5.447  18.323  0.00  0.00    +0.000 N 
ATOM     17  C   UNL     1       5.243   6.412  18.058  0.00  0.00    +0.000 A 
ATOM     18  C   UNL     1       6.594   6.086  17.909  0.00  0.00    +0.000 A 
ATOM     19 CL   UNL     1       7.762   7.337  17.514  0.00  0.00    +0.000 Cl
ATOM     20  H   UNL     1       6.338   2.806  18.452  0.00  0.00    +0.000 HD
ENDBRANCH   1  16
BRANCH   5  21
ATOM     21  O   UNL     1      -0.827   9.476  21.065  0.00  0.00    +0.000 OA
ATOM     22  H   UNL     1      -1.100  10.089  21.800  0.00  0.00    +0.000 HD
ENDBRANCH   5  21
BRANCH   5  23
ATOM     23  O   UNL     1       2.350   8.938  22.020  0.00  0.00    +0.000 OA
ATOM     24  H   UNL     1       2.408   8.040  22.432  0.00  0.00    +0.000 HD
ENDBRANCH   5  23
TORSDOF 3
ENDMDL
MODEL 7
REMARK VINA RESULT:      -6.2      4.123      6.495
REMARK  Name = 
REMARK  3 active torsions:
REMARK  status: ('A' for Active; 'I' for Inactive)
REMARK    1  A    between atoms: N_6  and  C_7
REMARK    2  A    between atoms: P_11  and  O_12
REMARK    3  A    between atoms: P_11  and  O_13
REMARK                            x       y       z     vdW  Elec       q    Type
REMARK                         _______ _______ _______ _____ _____    ______ ____
ROOT
ATOM      1  C   UNL     1       2.888   5.533  18.994  0.00  0.00    +0.000 C 
ATOM      2  C   UNL     1       3.361   5.489  17.524  0.00  0.00    +0.000 C 
ATOM      3  C   UNL     1       4.805   5.826  17.689  0.00  0.00    +0.000 C 
ATOM      4  O   UNL     1       5.606   5.399  16.610  0.00  0.00    +0.000 OA
ATOM      5  P   UNL     1       7.330   5.509  16.859  0.00  0.00    +0.000 P 
ATOM      6  O   UNL     1       7.379   4.907  18.487  0.00  0.00    +0.000 OA
ATOM      7  C   UNL     1       6.440   5.458  19.376  0.00  0.00    +0.000 C 
ATOM      8  C   UNL     1       5.076   5.034  18.920  0.00  0.00    +0.000 C 
ATOM      9  O   UNL     1       4.035   5.315  19.815  0.00  0.00    +0.000 OA
ATOM     10  H   UNL     1       7.410   5.188  15.486  0.00  0.00    +0.000 HD
ENDROOT
BRANCH   1  16
ATOM     11  O   UNL     1       0.633  10.209  20.726  0.00  0.00    +0.000 OA
ATOM     12  C   UNL     1       1.077   9.158  20.293  0.00  0.00    +0.000 A 
ATOM     13  N   UNL     1       0.983   8.020  21.047  0.00  0.00    +0.000 N 
ATOM     14  C   UNL     1       1.524   6.839  20.614  0.00  0.00    +0.000 A 
ATOM     15  O   UNL     1       1.462   5.857  21.337  0.00  0.00    +0.000 OA
ATOM     16  N   UNL     1       2.172   6.774  19.390  0.00  0.00    +0.000 N 
ATOM     17  C   UNL     1       2.233   7.901  18.610  0.00  0.00    +0.000 A 
ATOM     18  C   UNL     1       1.692   9.113  19.045  0.00  0.00    +0.000 A 
ATOM     19 CL   UNL     1       1.837  10.551  18.046  0.00  0.00    +0.000 Cl
ATOM     20  H   UNL     1       0.513   8.062  21.982  0.00  0.00    +0.000 HD
ENDBRANCH   1  16
BRANCH   5  21
ATOM     21  O   UNL     1       8.116   4.008  16.727  0.00  0.00    +0.000 OA
ATOM     22  H   UNL     1       8.580   3.856  17.595  0.00  0.00    +0.000 HD
ENDBRANCH   5  21
BRANCH   5  23
ATOM     23  O   UNL     1       6.975   7.167  16.852  0.00  0.00    +0.000 OA
ATOM     24  H   UNL     1       6.212   7.265  17.474  0.00  0.00    +0.000 HD
ENDBRANCH   5  23
TORSDOF 3
ENDMDL
MODEL 8
REMARK VINA RESULT:      -6.2      4.463      6.076
REMARK  Name = 
REMARK  3 active torsions:
REMARK  status: ('A' for Active; 'I' for Inactive)
REMARK    1  A    between atoms: N_6  and  C_7
REMARK    2  A    between atoms: P_11  and  O_12
REMARK    3  A    between atoms: P_11  and  O_13
REMARK                            x       y       z     vdW  Elec       q    Type
REMARK                         _______ _______ _______ _____ _____    ______ ____
ROOT
ATOM      1  C   UNL     1       2.931   6.988  18.180  0.00  0.00    +0.000 C 
ATOM      2  C   UNL     1       4.009   6.254  19.009  0.00  0.00    +0.000 C 
ATOM      3  C   UNL     1       3.284   4.996  19.350  0.00  0.00    +0.000 C 
ATOM      4  O   UNL     1       4.144   3.927  19.682  0.00  0.00    +0.000 OA
ATOM      5  P   UNL     1       3.384   2.362  19.820  0.00  0.00    +0.000 P 
ATOM      6  O   UNL     1       2.355   2.468  18.425  0.00  0.00    +0.000 OA
ATOM      7  C   UNL     1       1.627   3.663  18.287  0.00  0.00    +0.000 C 
ATOM      8  C   UNL     1       2.609   4.769  18.044  0.00  0.00    +0.000 C 
ATOM      9  O   UNL     1       2.043   5.996  17.668  0.00  0.00    +0.000 OA
ATOM     10  H   UNL     1       4.638   1.951  20.324  0.00  0.00    +0.000 HD
ENDROOT
BRANCH   1  16
ATOM     11  O   UNL     1      -0.199  10.742  20.640  0.00  0.00    +0.000 OA
ATOM     12  C   UNL     1       0.556   9.929  20.134  0.00  0.00    +0.000 A 
ATOM     13  N   UNL     1       1.044  10.147  18.874  0.00  0.00    +0.000 N 
ATOM     14  C   UNL     1       1.846   9.225  18.256  0.00  0.00    +0.000 A 
ATOM     15  O   UNL     1       2.221   9.435  17.114  0.00  0.00    +0.000 OA
ATOM     16  N   UNL     1       2.190   8.050  18.908  0.00  0.00    +0.000 N 
ATOM     17  C   UNL     1       1.739   7.844  20.188  0.00  0.00    +0.000 A 
ATOM     18  C   UNL     1       0.913   8.774  20.823  0.00  0.00    +0.000 A 
ATOM     19 CL   UNL     1       0.308   8.452  22.441  0.00  0.00    +0.000 Cl
ATOM     20  H   UNL     1       0.775  11.022  18.365  0.00  0.00    +0.000 HD
ENDBRANCH   1  16
BRANCH   5  21
ATOM     21  O   UNL     1       4.024   1.217  18.738  0.00  0.00    +0.000 OA
ATOM     22  H   UNL     1       3.403   1.187  17.961  0.00  0.00    +0.000 HD
ENDBRANCH   5  21
BRANCH   5  23
ATOM     23  O   UNL     1       2.653   3.109  21.154  0.00  0.00    +0.000 OA
ATOM     24  H   UNL     1       2.407   4.013  20.835  0.00  0.00    +0.000 HD
ENDBRANCH   5  23
TORSDOF 3
ENDMDL
MODEL 9
REMARK VINA RESULT:      -6.0      3.230      6.297
REMARK  Name = 
REMARK  3 active torsions:
REMARK  status: ('A' for Active; 'I' for Inactive)
REMARK    1  A    between atoms: N_6  and  C_7
REMARK    2  A    between atoms: P_11  and  O_12
REMARK    3  A    between atoms: P_11  and  O_13
REMARK                            x       y       z     vdW  Elec       q    Type
REMARK                         _______ _______ _______ _____ _____    ______ ____
ROOT
ATOM      1  C   UNL     1       4.845   5.753  18.854  0.00  0.00    +0.000 C 
ATOM      2  C   UNL     1       6.067   4.873  18.511  0.00  0.00    +0.000 C 
ATOM      3  C   UNL     1       5.929   4.774  17.029  0.00  0.00    +0.000 C 
ATOM      4  O   UNL     1       7.135   4.450  16.375  0.00  0.00    +0.000 OA
ATOM      5  P   UNL     1       7.113   4.590  14.635  0.00  0.00    +0.000 P 
ATOM      6  O   UNL     1       6.245   6.090  14.524  0.00  0.00    +0.000 OA
ATOM      7  C   UNL     1       5.088   6.192  15.315  0.00  0.00    +0.000 C 
ATOM      8  C   UNL     1       5.515   6.177  16.752  0.00  0.00    +0.000 C 
ATOM      9  O   UNL     1       4.508   6.488  17.677  0.00  0.00    +0.000 OA
ATOM     10  H   UNL     1       8.379   3.970  14.706  0.00  0.00    +0.000 HD
ENDROOT
BRANCH   1  16
ATOM     11  O   UNL     1       0.283   3.153  20.394  0.00  0.00    +0.000 OA
ATOM     12  C   UNL     1       1.332   3.708  20.113  0.00  0.00    +0.000 A 
ATOM     13  N   UNL     1       1.449   5.062  20.274  0.00  0.00    +0.000 N 
ATOM     14  C   UNL     1       2.594   5.721  19.912  0.00  0.00    +0.000 A 
ATOM     15  O   UNL     1       2.641   6.935  20.026  0.00  0.00    +0.000 OA
ATOM     16  N   UNL     1       3.667   5.019  19.385  0.00  0.00    +0.000 N 
ATOM     17  C   UNL     1       3.573   3.655  19.261  0.00  0.00    +0.000 A 
ATOM     18  C   UNL     1       2.407   2.975  19.618  0.00  0.00    +0.000 A 
ATOM     19 CL   UNL     1       2.300   1.236  19.393  0.00  0.00    +0.000 Cl
ATOM     20  H   UNL     1       0.638   5.605  20.653  0.00  0.00    +0.000 HD
ENDBRANCH   1  16
BRANCH   5  21
ATOM     21  O   UNL     1       8.261   5.696  14.044  0.00  0.00    +0.000 OA
ATOM     22  H   UNL     1       8.636   5.294  13.213  0.00  0.00    +0.000 HD
ENDBRANCH   5  21
BRANCH   5  23
ATOM     23  O   UNL     1       6.033   3.292  14.793  0.00  0.00    +0.000 OA
ATOM     24  H   UNL     1       5.187   3.703  15.098  0.00  0.00    +0.000 HD
ENDBRANCH   5  23
TORSDOF 3
ENDMDL
