MODEL 1
REMARK VINA RESULT:      -9.5      0.000      0.000
REMARK  Name = 
REMARK  12 active torsions:
REMARK  status: ('A' for Active; 'I' for Inactive)
REMARK    1  A    between atoms: C_1  and  C_2
REMARK    2  A    between atoms: C_2  and  C_3
REMARK    3  A    between atoms: C_2  and  C_4
REMARK    4  A    between atoms: C_4  and  N_5
REMARK    5  A    between atoms: C_4  and  C_25
REMARK    6  A    between atoms: C_6  and  C_8
REMARK    7  A    between atoms: C_18  and  O_20
REMARK    8  A    between atoms: O_20  and  C_21
REMARK    9  A    between atoms: C_21  and  C_22
REMARK   10  A    between atoms: C_21  and  C_23
REMARK   11  A    between atoms: C_21  and  C_24
REMARK   12  A    between atoms: N_27  and  C_28
REMARK                            x       y       z     vdW  Elec       q    Type
REMARK                         _______ _______ _______ _____ _____    ______ ____
ROOT
ATOM      1  N   UNL     1       5.000   6.777  16.931  0.00  0.00    +0.000 N 
ATOM      2  C   UNL     1       4.228   6.066  17.822  0.00  0.00    +0.000 C 
ATOM      3  O   UNL     1       4.558   4.961  18.240  0.00  0.00    +0.000 OA
ATOM      4  H   UNL     1       4.508   7.488  16.400  0.00  0.00    +0.000 HD
ENDROOT
BRANCH   2   5
ATOM      5  C   UNL     1       2.856   6.740  18.129  0.00  0.00    +0.000 C 
ATOM      6  C   UNL     1       2.933   8.287  17.983  0.00  0.00    +0.000 C 
ATOM      7  C   UNL     1       1.752   8.956  18.658  0.00  0.00    +0.000 A 
ATOM      8  C   UNL     1       1.050  10.031  18.109  0.00  0.00    +0.000 A 
ATOM      9  C   UNL     1      -0.028  10.590  18.803  0.00  0.00    +0.000 A 
ATOM     10  C   UNL     1      -0.408  10.087  20.050  0.00  0.00    +0.000 A 
ATOM     11  C   UNL     1       0.302   9.031  20.616  0.00  0.00    +0.000 A 
ATOM     12  C   UNL     1       1.379   8.466  19.925  0.00  0.00    +0.000 A 
ATOM     13  C   UNL     1       2.186   7.324  20.483  0.00  0.00    +0.000 C 
ATOM     14  N   UNL     1       2.375   6.302  19.452  0.00  0.00    +0.000 N 
ATOM     15  C   UNL     1       1.817   5.062  19.666  0.00  0.00    +0.000 C 
ATOM     16  O   UNL     1       1.208   4.760  20.679  0.00  0.00    +0.000 OA
BRANCH  15  17
ATOM     17  O   UNL     1       2.053   4.208  18.628  0.00  0.00    +0.000 OA
BRANCH  17  18
ATOM     18  C   UNL     1       2.081   2.784  18.908  0.00  0.00    +0.000 C 
ATOM     19  C   UNL     1       0.657   2.215  18.965  0.00  0.00    +0.000 C 
ATOM     20  C   UNL     1       2.807   2.117  17.729  0.00  0.00    +0.000 C 
ATOM     21  C   UNL     1       2.908   2.527  20.176  0.00  0.00    +0.000 C 
ENDBRANCH  17  18
ENDBRANCH  15  17
ENDBRANCH   2   5
BRANCH   1  22
ATOM     22  C   UNL     1       6.367   6.495  16.464  0.00  0.00    +0.000 C 
BRANCH  22  23
ATOM     23  C   UNL     1       6.619   5.175  15.633  0.00  0.00    +0.000 C 
ATOM     24  O   UNL     1       7.554   4.433  15.949  0.00  0.00    +0.000 OA
ATOM     25  N   UNL     1       5.761   4.847  14.601  0.00  0.00    +0.000 N 
ATOM     26  H   UNL     1       5.136   5.594  14.296  0.00  0.00    +0.000 HD
BRANCH  25  27
ATOM     27  C   UNL     1       6.074   3.770  13.640  0.00  0.00    +0.000 C 
ATOM     28  C   UNL     1       4.937   3.337  12.700  0.00  0.00    +0.000 C 
ATOM     29  C   UNL     1       5.636   2.572  11.574  0.00  0.00    +0.000 C 
ATOM     30  C   UNL     1       7.015   3.205  11.440  0.00  0.00    +0.000 C 
ATOM     31  C   UNL     1       7.175   4.146  12.640  0.00  0.00    +0.000 C 
ENDBRANCH  25  27
ENDBRANCH  22  23
BRANCH  22  33
ATOM     32  C   UNL     1       7.512   6.197  18.774  0.00  0.00    +0.000 C 
ATOM     33  C   UNL     1       7.507   6.918  17.433  0.00  0.00    +0.000 C 
ATOM     34  C   UNL     1       7.548   8.437  17.693  0.00  0.00    +0.000 C 
ENDBRANCH  22  33
ENDBRANCH   1  22
TORSDOF 7
ENDMDL
MODEL 2
REMARK VINA RESULT:      -8.3      1.117      1.211
REMARK  Name = 
REMARK  12 active torsions:
REMARK  status: ('A' for Active; 'I' for Inactive)
REMARK    1  A    between atoms: C_1  and  C_2
REMARK    2  A    between atoms: C_2  and  C_3
REMARK    3  A    between atoms: C_2  and  C_4
REMARK    4  A    between atoms: C_4  and  N_5
REMARK    5  A    between atoms: C_4  and  C_25
REMARK    6  A    between atoms: C_6  and  C_8
REMARK    7  A    between atoms: C_18  and  O_20
REMARK    8  A    between atoms: O_20  and  C_21
REMARK    9  A    between atoms: C_21  and  C_22
REMARK   10  A    between atoms: C_21  and  C_23
REMARK   11  A    between atoms: C_21  and  C_24
REMARK   12  A    between atoms: N_27  and  C_28
REMARK                            x       y       z     vdW  Elec       q    Type
REMARK                         _______ _______ _______ _____ _____    ______ ____
ROOT
ATOM      1  N   UNL     1       5.142   6.616  17.653  0.00  0.00    +0.000 N 
ATOM      2  C   UNL     1       4.089   7.063  16.887  0.00  0.00    +0.000 C 
ATOM      3  O   UNL     1       4.214   7.346  15.700  0.00  0.00    +0.000 OA
ATOM      4  H   UNL     1       5.032   6.733  18.655  0.00  0.00    +0.000 HD
ENDROOT
BRANCH   2   5
ATOM      5  C   UNL     1       2.782   7.296  17.705  0.00  0.00    +0.000 C 
ATOM      6  C   UNL     1       2.444   8.809  17.823  0.00  0.00    +0.000 C 
ATOM      7  C   UNL     1       1.436   9.057  18.929  0.00  0.00    +0.000 A 
ATOM      8  C   UNL     1       0.361   9.941  18.817  0.00  0.00    +0.000 A 
ATOM      9  C   UNL     1      -0.521  10.109  19.889  0.00  0.00    +0.000 A 
ATOM     10  C   UNL     1      -0.333   9.404  21.081  0.00  0.00    +0.000 A 
ATOM     11  C   UNL     1       0.751   8.539  21.210  0.00  0.00    +0.000 A 
ATOM     12  C   UNL     1       1.634   8.364  20.140  0.00  0.00    +0.000 A 
ATOM     13  C   UNL     1       2.823   7.444  20.217  0.00  0.00    +0.000 C 
ATOM     14  N   UNL     1       2.889   6.617  19.010  0.00  0.00    +0.000 N 
ATOM     15  C   UNL     1       2.739   5.256  19.154  0.00  0.00    +0.000 C 
ATOM     16  O   UNL     1       2.592   4.702  20.231  0.00  0.00    +0.000 OA
BRANCH  15  17
ATOM     17  O   UNL     1       2.805   4.605  17.956  0.00  0.00    +0.000 OA
BRANCH  17  18
ATOM     18  C   UNL     1       3.325   3.250  17.945  0.00  0.00    +0.000 C 
ATOM     19  C   UNL     1       2.237   2.247  18.350  0.00  0.00    +0.000 C 
ATOM     20  C   UNL     1       3.729   2.945  16.494  0.00  0.00    +0.000 C 
ATOM     21  C   UNL     1       4.592   3.179  18.811  0.00  0.00    +0.000 C 
ENDBRANCH  17  18
ENDBRANCH  15  17
ENDBRANCH   2   5
BRANCH   1  22
ATOM     22  C   UNL     1       6.494   6.223  17.225  0.00  0.00    +0.000 C 
BRANCH  22  23
ATOM     23  C   UNL     1       6.641   5.007  16.227  0.00  0.00    +0.000 C 
ATOM     24  O   UNL     1       7.306   4.024  16.568  0.00  0.00    +0.000 OA
ATOM     25  N   UNL     1       5.984   5.040  15.012  0.00  0.00    +0.000 N 
ATOM     26  H   UNL     1       5.613   5.951  14.739  0.00  0.00    +0.000 HD
BRANCH  25  27
ATOM     27  C   UNL     1       6.269   4.060  13.945  0.00  0.00    +0.000 C 
ATOM     28  C   UNL     1       5.082   3.639  13.063  0.00  0.00    +0.000 C 
ATOM     29  C   UNL     1       5.722   3.004  11.828  0.00  0.00    +0.000 C 
ATOM     30  C   UNL     1       7.054   3.720  11.640  0.00  0.00    +0.000 C 
ATOM     31  C   UNL     1       7.266   4.572  12.896  0.00  0.00    +0.000 C 
ENDBRANCH  25  27
ENDBRANCH  22  23
BRANCH  22  33
ATOM     32  C   UNL     1       7.242   5.798  19.674  0.00  0.00    +0.000 C 
ATOM     33  C   UNL     1       7.605   6.356  18.304  0.00  0.00    +0.000 C 
ATOM     34  C   UNL     1       8.105   7.804  18.482  0.00  0.00    +0.000 C 
ENDBRANCH  22  33
ENDBRANCH   1  22
TORSDOF 7
ENDMDL
MODEL 3
REMARK VINA RESULT:      -8.1      1.109      1.399
REMARK  Name = 
REMARK  12 active torsions:
REMARK  status: ('A' for Active; 'I' for Inactive)
REMARK    1  A    between atoms: C_1  and  C_2
REMARK    2  A    between atoms: C_2  and  C_3
REMARK    3  A    between atoms: C_2  and  C_4
REMARK    4  A    between atoms: C_4  and  N_5
REMARK    5  A    between atoms: C_4  and  C_25
REMARK    6  A    between atoms: C_6  and  C_8
REMARK    7  A    between atoms: C_18  and  O_20
REMARK    8  A    between atoms: O_20  and  C_21
REMARK    9  A    between atoms: C_21  and  C_22
REMARK   10  A    between atoms: C_21  and  C_23
REMARK   11  A    between atoms: C_21  and  C_24
REMARK   12  A    between atoms: N_27  and  C_28
REMARK                            x       y       z     vdW  Elec       q    Type
REMARK                         _______ _______ _______ _____ _____    ______ ____
ROOT
ATOM      1  N   UNL     1       4.611   7.030  17.574  0.00  0.00    +0.000 N 
ATOM      2  C   UNL     1       3.528   6.181  17.609  0.00  0.00    +0.000 C 
ATOM      3  O   UNL     1       3.549   5.069  17.093  0.00  0.00    +0.000 OA
ATOM      4  H   UNL     1       4.399   8.012  17.715  0.00  0.00    +0.000 HD
ENDROOT
BRANCH   2   5
ATOM      5  C   UNL     1       2.256   6.825  18.241  0.00  0.00    +0.000 C 
ATOM      6  C   UNL     1       2.181   8.350  17.947  0.00  0.00    +0.000 C 
ATOM      7  C   UNL     1       1.197   9.035  18.876  0.00  0.00    +0.000 A 
ATOM      8  C   UNL     1       0.295  10.018  18.464  0.00  0.00    +0.000 A 
ATOM      9  C   UNL     1      -0.577  10.600  19.389  0.00  0.00    +0.000 A 
ATOM     10  C   UNL     1      -0.551  10.210  20.731  0.00  0.00    +0.000 A 
ATOM     11  C   UNL     1       0.362   9.248  21.156  0.00  0.00    +0.000 A 
ATOM     12  C   UNL     1       1.235   8.662  20.234  0.00  0.00    +0.000 A 
ATOM     13  C   UNL     1       2.244   7.617  20.630  0.00  0.00    +0.000 C 
ATOM     14  N   UNL     1       2.203   6.504  19.680  0.00  0.00    +0.000 N 
ATOM     15  C   UNL     1       1.816   5.269  20.151  0.00  0.00    +0.000 C 
ATOM     16  O   UNL     1       1.542   5.047  21.319  0.00  0.00    +0.000 OA
BRANCH  15  17
ATOM     17  O   UNL     1       1.806   4.325  19.166  0.00  0.00    +0.000 OA
BRANCH  17  18
ATOM     18  C   UNL     1       2.277   2.992  19.493  0.00  0.00    +0.000 C 
ATOM     19  C   UNL     1       2.219   2.079  18.262  0.00  0.00    +0.000 C 
ATOM     20  C   UNL     1       3.750   3.134  19.905  0.00  0.00    +0.000 C 
ATOM     21  C   UNL     1       1.499   2.456  20.705  0.00  0.00    +0.000 C 
ENDBRANCH  17  18
ENDBRANCH  15  17
ENDBRANCH   2   5
BRANCH   1  22
ATOM     22  C   UNL     1       5.985   6.756  17.123  0.00  0.00    +0.000 C 
BRANCH  22  23
ATOM     23  C   UNL     1       6.193   6.144  15.681  0.00  0.00    +0.000 C 
ATOM     24  O   UNL     1       5.436   6.482  14.767  0.00  0.00    +0.000 OA
ATOM     25  N   UNL     1       7.248   5.280  15.454  0.00  0.00    +0.000 N 
ATOM     26  H   UNL     1       7.706   4.918  16.292  0.00  0.00    +0.000 HD
BRANCH  25  27
ATOM     27  C   UNL     1       7.356   4.492  14.210  0.00  0.00    +0.000 C 
ATOM     28  C   UNL     1       6.069   3.812  13.715  0.00  0.00    +0.000 C 
ATOM     29  C   UNL     1       6.353   3.465  12.252  0.00  0.00    +0.000 C 
ATOM     30  C   UNL     1       7.313   4.538  11.753  0.00  0.00    +0.000 C 
ATOM     31  C   UNL     1       7.753   5.331  12.988  0.00  0.00    +0.000 C 
ENDBRANCH  25  27
ENDBRANCH  22  23
BRANCH  22  33
ATOM     32  C   UNL     1       8.181   7.145  18.451  0.00  0.00    +0.000 C 
ATOM     33  C   UNL     1       6.965   6.257  18.222  0.00  0.00    +0.000 C 
ATOM     34  C   UNL     1       7.451   4.812  17.988  0.00  0.00    +0.000 C 
ENDBRANCH  22  33
ENDBRANCH   1  22
TORSDOF 7
ENDMDL
MODEL 4
REMARK VINA RESULT:      -8.0      0.788      1.310
REMARK  Name = 
REMARK  12 active torsions:
REMARK  status: ('A' for Active; 'I' for Inactive)
REMARK    1  A    between atoms: C_1  and  C_2
REMARK    2  A    between atoms: C_2  and  C_3
REMARK    3  A    between atoms: C_2  and  C_4
REMARK    4  A    between atoms: C_4  and  N_5
REMARK    5  A    between atoms: C_4  and  C_25
REMARK    6  A    between atoms: C_6  and  C_8
REMARK    7  A    between atoms: C_18  and  O_20
REMARK    8  A    between atoms: O_20  and  C_21
REMARK    9  A    between atoms: C_21  and  C_22
REMARK   10  A    between atoms: C_21  and  C_23
REMARK   11  A    between atoms: C_21  and  C_24
REMARK   12  A    between atoms: N_27  and  C_28
REMARK                            x       y       z     vdW  Elec       q    Type
REMARK                         _______ _______ _______ _____ _____    ______ ____
ROOT
ATOM      1  N   UNL     1       4.940   6.533  17.525  0.00  0.00    +0.000 N 
ATOM      2  C   UNL     1       3.788   5.780  17.479  0.00  0.00    +0.000 C 
ATOM      3  O   UNL     1       3.760   4.652  16.999  0.00  0.00    +0.000 OA
ATOM      4  H   UNL     1       4.802   7.534  17.617  0.00  0.00    +0.000 HD
ENDROOT
BRANCH   2   5
ATOM      5  C   UNL     1       2.524   6.551  17.969  0.00  0.00    +0.000 C 
ATOM      6  C   UNL     1       2.660   8.082  17.731  0.00  0.00    +0.000 C 
ATOM      7  C   UNL     1       1.644   8.852  18.553  0.00  0.00    +0.000 A 
ATOM      8  C   UNL     1       0.921   9.944  18.069  0.00  0.00    +0.000 A 
ATOM      9  C   UNL     1       0.004  10.598  18.898  0.00  0.00    +0.000 A 
ATOM     10  C   UNL     1      -0.192  10.173  20.215  0.00  0.00    +0.000 A 
ATOM     11  C   UNL     1       0.543   9.101  20.713  0.00  0.00    +0.000 A 
ATOM     12  C   UNL     1       1.459   8.441  19.887  0.00  0.00    +0.000 A 
ATOM     13  C   UNL     1       2.283   7.275  20.366  0.00  0.00    +0.000 C 
ATOM     14  N   UNL     1       2.244   6.200  19.373  0.00  0.00    +0.000 N 
ATOM     15  C   UNL     1       1.662   5.007  19.740  0.00  0.00    +0.000 C 
ATOM     16  O   UNL     1       1.213   4.788  20.852  0.00  0.00    +0.000 OA
BRANCH  15  17
ATOM     17  O   UNL     1       1.677   4.097  18.723  0.00  0.00    +0.000 OA
BRANCH  17  18
ATOM     18  C   UNL     1       2.013   2.722  19.043  0.00  0.00    +0.000 C 
ATOM     19  C   UNL     1       2.510   1.981  17.795  0.00  0.00    +0.000 C 
ATOM     20  C   UNL     1       3.171   2.774  20.051  0.00  0.00    +0.000 C 
ATOM     21  C   UNL     1       0.818   2.049  19.734  0.00  0.00    +0.000 C 
ENDBRANCH  17  18
ENDBRANCH  15  17
ENDBRANCH   2   5
BRANCH   1  22
ATOM     22  C   UNL     1       6.320   6.128  17.215  0.00  0.00    +0.000 C 
BRANCH  22  23
ATOM     23  C   UNL     1       6.646   5.631  15.752  0.00  0.00    +0.000 C 
ATOM     24  O   UNL     1       7.739   5.909  15.249  0.00  0.00    +0.000 OA
ATOM     25  N   UNL     1       5.725   4.852  15.076  0.00  0.00    +0.000 N 
ATOM     26  H   UNL     1       4.791   4.823  15.487  0.00  0.00    +0.000 HD
BRANCH  25  27
ATOM     27  C   UNL     1       5.859   4.561  13.635  0.00  0.00    +0.000 C 
ATOM     28  C   UNL     1       7.138   3.828  13.198  0.00  0.00    +0.000 C 
ATOM     29  C   UNL     1       6.816   3.285  11.805  0.00  0.00    +0.000 C 
ATOM     30  C   UNL     1       5.318   3.011  11.805  0.00  0.00    +0.000 C 
ATOM     31  C   UNL     1       4.768   3.625  13.097  0.00  0.00    +0.000 C 
ENDBRANCH  25  27
ENDBRANCH  22  23
BRANCH  22  33
ATOM     32  C   UNL     1       6.194   4.797  19.440  0.00  0.00    +0.000 C 
ATOM     33  C   UNL     1       7.081   5.408  18.364  0.00  0.00    +0.000 C 
ATOM     34  C   UNL     1       8.134   6.305  19.047  0.00  0.00    +0.000 C 
ENDBRANCH  22  33
ENDBRANCH   1  22
TORSDOF 7
ENDMDL
MODEL 5
REMARK VINA RESULT:      -8.0      0.689      1.140
REMARK  Name = 
REMARK  12 active torsions:
REMARK  status: ('A' for Active; 'I' for Inactive)
REMARK    1  A    between atoms: C_1  and  C_2
REMARK    2  A    between atoms: C_2  and  C_3
REMARK    3  A    between atoms: C_2  and  C_4
REMARK    4  A    between atoms: C_4  and  N_5
REMARK    5  A    between atoms: C_4  and  C_25
REMARK    6  A    between atoms: C_6  and  C_8
REMARK    7  A    between atoms: C_18  and  O_20
REMARK    8  A    between atoms: O_20  and  C_21
REMARK    9  A    between atoms: C_21  and  C_22
REMARK   10  A    between atoms: C_21  and  C_23
REMARK   11  A    between atoms: C_21  and  C_24
REMARK   12  A    between atoms: N_27  and  C_28
REMARK                            x       y       z     vdW  Elec       q    Type
REMARK                         _______ _______ _______ _____ _____    ______ ____
ROOT
ATOM      1  N   UNL     1       5.035   6.855  17.449  0.00  0.00    +0.000 N 
ATOM      2  C   UNL     1       4.065   5.964  17.850  0.00  0.00    +0.000 C 
ATOM      3  O   UNL     1       4.252   4.752  17.863  0.00  0.00    +0.000 OA
ATOM      4  H   UNL     1       4.695   7.765  17.153  0.00  0.00    +0.000 HD
ENDROOT
BRANCH   2   5
ATOM      5  C   UNL     1       2.690   6.637  18.147  0.00  0.00    +0.000 C 
ATOM      6  C   UNL     1       2.725   8.164  17.855  0.00  0.00    +0.000 C 
ATOM      7  C   UNL     1       1.555   8.871  18.512  0.00  0.00    +0.000 A 
ATOM      8  C   UNL     1       0.808   9.876  17.893  0.00  0.00    +0.000 A 
ATOM      9  C   UNL     1      -0.256  10.476  18.575  0.00  0.00    +0.000 A 
ATOM     10  C   UNL     1      -0.577  10.083  19.877  0.00  0.00    +0.000 A 
ATOM     11  C   UNL     1       0.178   9.099  20.510  0.00  0.00    +0.000 A 
ATOM     12  C   UNL     1       1.242   8.494  19.832  0.00  0.00    +0.000 A 
ATOM     13  C   UNL     1       2.095   7.425  20.461  0.00  0.00    +0.000 C 
ATOM     14  N   UNL     1       2.270   6.314  19.523  0.00  0.00    +0.000 N 
ATOM     15  C   UNL     1       1.748   5.089  19.873  0.00  0.00    +0.000 C 
ATOM     16  O   UNL     1       1.185   4.871  20.932  0.00  0.00    +0.000 OA
BRANCH  15  17
ATOM     17  O   UNL     1       1.965   4.147  18.909  0.00  0.00    +0.000 OA
BRANCH  17  18
ATOM     18  C   UNL     1       1.874   2.749  19.289  0.00  0.00    +0.000 C 
ATOM     19  C   UNL     1       2.035   2.588  20.806  0.00  0.00    +0.000 C 
ATOM     20  C   UNL     1       0.459   2.282  18.914  0.00  0.00    +0.000 C 
ATOM     21  C   UNL     1       2.875   1.927  18.464  0.00  0.00    +0.000 C 
ENDBRANCH  17  18
ENDBRANCH  15  17
ENDBRANCH   2   5
BRANCH   1  22
ATOM     22  C   UNL     1       6.455   6.604  17.155  0.00  0.00    +0.000 C 
BRANCH  22  23
ATOM     23  C   UNL     1       6.815   5.667  15.936  0.00  0.00    +0.000 C 
ATOM     24  O   UNL     1       7.848   5.881  15.294  0.00  0.00    +0.000 OA
ATOM     25  N   UNL     1       5.997   4.594  15.637  0.00  0.00    +0.000 N 
ATOM     26  H   UNL     1       5.084   4.598  16.095  0.00  0.00    +0.000 HD
BRANCH  25  27
ATOM     27  C   UNL     1       6.138   3.832  14.380  0.00  0.00    +0.000 C 
ATOM     28  C   UNL     1       4.888   3.738  13.490  0.00  0.00    +0.000 C 
ATOM     29  C   UNL     1       5.419   3.307  12.121  0.00  0.00    +0.000 C 
ATOM     30  C   UNL     1       6.820   3.895  12.019  0.00  0.00    +0.000 C 
ATOM     31  C   UNL     1       7.163   4.438  13.411  0.00  0.00    +0.000 C 
ENDBRANCH  25  27
ENDBRANCH  22  23
BRANCH  22  33
ATOM     32  C   UNL     1       8.443   7.587  18.504  0.00  0.00    +0.000 C 
ATOM     33  C   UNL     1       7.387   6.495  18.395  0.00  0.00    +0.000 C 
ATOM     34  C   UNL     1       8.085   5.125  18.508  0.00  0.00    +0.000 C 
ENDBRANCH  22  33
ENDBRANCH   1  22
TORSDOF 7
ENDMDL
MODEL 6
REMARK VINA RESULT:      -8.0      0.683      1.204
REMARK  Name = 
REMARK  12 active torsions:
REMARK  status: ('A' for Active; 'I' for Inactive)
REMARK    1  A    between atoms: C_1  and  C_2
REMARK    2  A    between atoms: C_2  and  C_3
REMARK    3  A    between atoms: C_2  and  C_4
REMARK    4  A    between atoms: C_4  and  N_5
REMARK    5  A    between atoms: C_4  and  C_25
REMARK    6  A    between atoms: C_6  and  C_8
REMARK    7  A    between atoms: C_18  and  O_20
REMARK    8  A    between atoms: O_20  and  C_21
REMARK    9  A    between atoms: C_21  and  C_22
REMARK   10  A    between atoms: C_21  and  C_23
REMARK   11  A    between atoms: C_21  and  C_24
REMARK   12  A    between atoms: N_27  and  C_28
REMARK                            x       y       z     vdW  Elec       q    Type
REMARK                         _______ _______ _______ _____ _____    ______ ____
ROOT
ATOM      1  N   UNL     1       5.018   6.667  17.428  0.00  0.00    +0.000 N 
ATOM      2  C   UNL     1       3.926   5.832  17.487  0.00  0.00    +0.000 C 
ATOM      3  O   UNL     1       3.952   4.684  17.056  0.00  0.00    +0.000 OA
ATOM      4  H   UNL     1       4.812   7.659  17.488  0.00  0.00    +0.000 HD
ENDROOT
BRANCH   2   5
ATOM      5  C   UNL     1       2.639   6.531  18.024  0.00  0.00    +0.000 C 
ATOM      6  C   UNL     1       2.664   8.062  17.751  0.00  0.00    +0.000 C 
ATOM      7  C   UNL     1       1.642   8.784  18.608  0.00  0.00    +0.000 A 
ATOM      8  C   UNL     1       0.826   9.817  18.140  0.00  0.00    +0.000 A 
ATOM      9  C   UNL     1      -0.090  10.429  19.001  0.00  0.00    +0.000 A 
ATOM     10  C   UNL     1      -0.193  10.022  20.333  0.00  0.00    +0.000 A 
ATOM     11  C   UNL     1       0.633   9.010  20.815  0.00  0.00    +0.000 A 
ATOM     12  C   UNL     1       1.549   8.392  19.957  0.00  0.00    +0.000 A 
ATOM     13  C   UNL     1       2.470   7.293  20.417  0.00  0.00    +0.000 C 
ATOM     14  N   UNL     1       2.452   6.195  19.448  0.00  0.00    +0.000 N 
ATOM     15  C   UNL     1       1.967   4.976  19.866  0.00  0.00    +0.000 C 
ATOM     16  O   UNL     1       1.588   4.753  21.004  0.00  0.00    +0.000 OA
BRANCH  15  17
ATOM     17  O   UNL     1       1.991   4.046  18.867  0.00  0.00    +0.000 OA
BRANCH  17  18
ATOM     18  C   UNL     1       1.969   2.643  19.241  0.00  0.00    +0.000 C 
ATOM     19  C   UNL     1       2.149   2.483  20.756  0.00  0.00    +0.000 C 
ATOM     20  C   UNL     1       0.574   2.113  18.874  0.00  0.00    +0.000 C 
ATOM     21  C   UNL     1       3.000   1.873  18.404  0.00  0.00    +0.000 C 
ENDBRANCH  17  18
ENDBRANCH  15  17
ENDBRANCH   2   5
BRANCH   1  22
ATOM     22  C   UNL     1       6.404   6.349  17.047  0.00  0.00    +0.000 C 
BRANCH  22  23
ATOM     23  C   UNL     1       6.647   5.516  15.728  0.00  0.00    +0.000 C 
ATOM     24  O   UNL     1       7.661   4.818  15.633  0.00  0.00    +0.000 OA
ATOM     25  N   UNL     1       5.699   5.541  14.722  0.00  0.00    +0.000 N 
ATOM     26  H   UNL     1       4.992   6.273  14.805  0.00  0.00    +0.000 HD
BRANCH  25  27
ATOM     27  C   UNL     1       5.971   4.988  13.380  0.00  0.00    +0.000 C 
ATOM     28  C   UNL     1       7.435   5.014  12.912  0.00  0.00    +0.000 C 
ATOM     29  C   UNL     1       7.486   4.022  11.748  0.00  0.00    +0.000 C 
ATOM     30  C   UNL     1       6.432   2.967  12.059  0.00  0.00    +0.000 C 
ATOM     31  C   UNL     1       5.632   3.496  13.255  0.00  0.00    +0.000 C 
ENDBRANCH  25  27
ENDBRANCH  22  23
BRANCH  22  33
ATOM     32  C   UNL     1       6.714   5.468  19.469  0.00  0.00    +0.000 C 
ATOM     33  C   UNL     1       7.372   6.053  18.227  0.00  0.00    +0.000 C 
ATOM     34  C   UNL     1       8.206   7.281  18.647  0.00  0.00    +0.000 C 
ENDBRANCH  22  33
ENDBRANCH   1  22
TORSDOF 7
ENDMDL
MODEL 7
REMARK VINA RESULT:      -7.9      0.837      1.277
REMARK  Name = 
REMARK  12 active torsions:
REMARK  status: ('A' for Active; 'I' for Inactive)
REMARK    1  A    between atoms: C_1  and  C_2
REMARK    2  A    between atoms: C_2  and  C_3
REMARK    3  A    between atoms: C_2  and  C_4
REMARK    4  A    between atoms: C_4  and  N_5
REMARK    5  A    between atoms: C_4  and  C_25
REMARK    6  A    between atoms: C_6  and  C_8
REMARK    7  A    between atoms: C_18  and  O_20
REMARK    8  A    between atoms: O_20  and  C_21
REMARK    9  A    between atoms: C_21  and  C_22
REMARK   10  A    between atoms: C_21  and  C_23
REMARK   11  A    between atoms: C_21  and  C_24
REMARK   12  A    between atoms: N_27  and  C_28
REMARK                            x       y       z     vdW  Elec       q    Type
REMARK                         _______ _______ _______ _____ _____    ______ ____
ROOT
ATOM      1  N   UNL     1       4.379   6.583  17.142  0.00  0.00    +0.000 N 
ATOM      2  C   UNL     1       3.871   6.370  18.404  0.00  0.00    +0.000 C 
ATOM      3  O   UNL     1       4.419   5.631  19.215  0.00  0.00    +0.000 OA
ATOM      4  H   UNL     1       3.710   6.916  16.455  0.00  0.00    +0.000 HD
ENDROOT
BRANCH   2   5
ATOM      5  C   UNL     1       2.484   7.044  18.636  0.00  0.00    +0.000 C 
ATOM      6  C   UNL     1       2.591   8.596  18.609  0.00  0.00    +0.000 C 
ATOM      7  C   UNL     1       1.362   9.236  19.224  0.00  0.00    +0.000 A 
ATOM      8  C   UNL     1       0.723  10.359  18.694  0.00  0.00    +0.000 A 
ATOM      9  C   UNL     1      -0.406  10.886  19.328  0.00  0.00    +0.000 A 
ATOM     10  C   UNL     1      -0.900  10.303  20.498  0.00  0.00    +0.000 A 
ATOM     11  C   UNL     1      -0.255   9.198  21.048  0.00  0.00    +0.000 A 
ATOM     12  C   UNL     1       0.873   8.665  20.415  0.00  0.00    +0.000 A 
ATOM     13  C   UNL     1       1.615   7.472  20.958  0.00  0.00    +0.000 C 
ATOM     14  N   UNL     1       1.884   6.522  19.878  0.00  0.00    +0.000 N 
ATOM     15  C   UNL     1       1.295   5.279  19.953  0.00  0.00    +0.000 C 
ATOM     16  O   UNL     1       0.595   4.918  20.884  0.00  0.00    +0.000 OA
BRANCH  15  17
ATOM     17  O   UNL     1       1.613   4.497  18.880  0.00  0.00    +0.000 OA
BRANCH  17  18
ATOM     18  C   UNL     1       1.985   3.116  19.130  0.00  0.00    +0.000 C 
ATOM     19  C   UNL     1       2.587   2.963  20.533  0.00  0.00    +0.000 C 
ATOM     20  C   UNL     1       0.688   2.294  19.081  0.00  0.00    +0.000 C 
ATOM     21  C   UNL     1       2.900   2.620  18.000  0.00  0.00    +0.000 C 
ENDBRANCH  17  18
ENDBRANCH  15  17
ENDBRANCH   2   5
BRANCH   1  22
ATOM     22  C   UNL     1       5.678   6.170  16.588  0.00  0.00    +0.000 C 
BRANCH  22  23
ATOM     23  C   UNL     1       5.713   4.949  15.586  0.00  0.00    +0.000 C 
ATOM     24  O   UNL     1       5.201   3.877  15.924  0.00  0.00    +0.000 OA
ATOM     25  N   UNL     1       6.269   5.112  14.331  0.00  0.00    +0.000 N 
ATOM     26  H   UNL     1       6.822   5.961  14.205  0.00  0.00    +0.000 HD
BRANCH  25  27
ATOM     27  C   UNL     1       6.550   3.963  13.448  0.00  0.00    +0.000 C 
ATOM     28  C   UNL     1       5.336   3.304  12.772  0.00  0.00    +0.000 C 
ATOM     29  C   UNL     1       5.930   2.482  11.627  0.00  0.00    +0.000 C 
ATOM     30  C   UNL     1       7.183   3.230  11.188  0.00  0.00    +0.000 C 
ATOM     31  C   UNL     1       7.421   4.323  12.236  0.00  0.00    +0.000 C 
ENDBRANCH  25  27
ENDBRANCH  22  23
BRANCH  22  33
ATOM     32  C   UNL     1       7.831   7.452  17.264  0.00  0.00    +0.000 C 
ATOM     33  C   UNL     1       6.889   6.292  17.555  0.00  0.00    +0.000 C 
ATOM     34  C   UNL     1       7.721   4.996  17.647  0.00  0.00    +0.000 C 
ENDBRANCH  22  33
ENDBRANCH   1  22
TORSDOF 7
ENDMDL
MODEL 8
REMARK VINA RESULT:      -7.9      2.649      7.401
REMARK  Name = 
REMARK  12 active torsions:
REMARK  status: ('A' for Active; 'I' for Inactive)
REMARK    1  A    between atoms: C_1  and  C_2
REMARK    2  A    between atoms: C_2  and  C_3
REMARK    3  A    between atoms: C_2  and  C_4
REMARK    4  A    between atoms: C_4  and  N_5
REMARK    5  A    between atoms: C_4  and  C_25
REMARK    6  A    between atoms: C_6  and  C_8
REMARK    7  A    between atoms: C_18  and  O_20
REMARK    8  A    between atoms: O_20  and  C_21
REMARK    9  A    between atoms: C_21  and  C_22
REMARK   10  A    between atoms: C_21  and  C_23
REMARK   11  A    between atoms: C_21  and  C_24
REMARK   12  A    between atoms: N_27  and  C_28
REMARK                            x       y       z     vdW  Elec       q    Type
REMARK                         _______ _______ _______ _____ _____    ______ ____
ROOT
ATOM      1  N   UNL     1       2.028   7.803  19.561  0.00  0.00    +0.000 N 
ATOM      2  C   UNL     1       2.168   6.569  20.155  0.00  0.00    +0.000 C 
ATOM      3  O   UNL     1       1.560   6.259  21.174  0.00  0.00    +0.000 OA
ATOM      4  H   UNL     1       2.792   8.083  18.954  0.00  0.00    +0.000 HD
ENDROOT
BRANCH   2   5
ATOM      5  C   UNL     1       3.262   5.680  19.488  0.00  0.00    +0.000 C 
ATOM      6  C   UNL     1       4.653   6.374  19.507  0.00  0.00    +0.000 C 
ATOM      7  C   UNL     1       5.603   5.715  18.526  0.00  0.00    +0.000 A 
ATOM      8  C   UNL     1       6.946   5.449  18.804  0.00  0.00    +0.000 A 
ATOM      9  C   UNL     1       7.752   4.839  17.838  0.00  0.00    +0.000 A 
ATOM     10  C   UNL     1       7.228   4.497  16.588  0.00  0.00    +0.000 A 
ATOM     11  C   UNL     1       5.897   4.781  16.294  0.00  0.00    +0.000 A 
ATOM     12  C   UNL     1       5.085   5.389  17.257  0.00  0.00    +0.000 A 
ATOM     13  C   UNL     1       3.640   5.722  17.001  0.00  0.00    +0.000 C 
ATOM     14  N   UNL     1       2.823   5.289  18.136  0.00  0.00    +0.000 N 
ATOM     15  C   UNL     1       1.885   4.305  17.915  0.00  0.00    +0.000 C 
ATOM     16  O   UNL     1       1.674   3.805  16.823  0.00  0.00    +0.000 OA
BRANCH  15  17
ATOM     17  O   UNL     1       1.203   3.983  19.053  0.00  0.00    +0.000 OA
BRANCH  17  18
ATOM     18  C   UNL     1       1.484   2.703  19.677  0.00  0.00    +0.000 C 
ATOM     19  C   UNL     1       1.217   2.765  21.186  0.00  0.00    +0.000 C 
ATOM     20  C   UNL     1       0.501   1.691  19.067  0.00  0.00    +0.000 C 
ATOM     21  C   UNL     1       2.907   2.255  19.312  0.00  0.00    +0.000 C 
ENDBRANCH  17  18
ENDBRANCH  15  17
ENDBRANCH   2   5
BRANCH   1  22
ATOM     22  C   UNL     1       1.061   8.870  19.865  0.00  0.00    +0.000 C 
BRANCH  22  23
ATOM     23  C   UNL     1       0.364   9.617  18.660  0.00  0.00    +0.000 C 
ATOM     24  O   UNL     1       1.062  10.080  17.752  0.00  0.00    +0.000 OA
ATOM     25  N   UNL     1      -1.015   9.696  18.613  0.00  0.00    +0.000 N 
ATOM     26  H   UNL     1      -1.497   9.451  19.480  0.00  0.00    +0.000 HD
BRANCH  25  27
ATOM     27  C   UNL     1      -1.714  10.577  17.657  0.00  0.00    +0.000 C 
ATOM     28  C   UNL     1      -2.199   9.926  16.352  0.00  0.00    +0.000 C 
ATOM     29  C   UNL     1      -3.227  10.908  15.787  0.00  0.00    +0.000 C 
ATOM     30  C   UNL     1      -3.856  11.587  16.998  0.00  0.00    +0.000 C 
ATOM     31  C   UNL     1      -3.017  11.168  18.211  0.00  0.00    +0.000 C 
ENDBRANCH  25  27
ENDBRANCH  22  23
BRANCH  22  33
ATOM     32  C   UNL     1       0.745   9.294  22.406  0.00  0.00    +0.000 C 
ATOM     33  C   UNL     1       1.396   9.745  21.105  0.00  0.00    +0.000 C 
ATOM     34  C   UNL     1       1.081  11.240  20.893  0.00  0.00    +0.000 C 
ENDBRANCH  22  33
ENDBRANCH   1  22
TORSDOF 7
ENDMDL
MODEL 9
REMARK VINA RESULT:      -7.8      1.915      4.435
REMARK  Name = 
REMARK  12 active torsions:
REMARK  status: ('A' for Active; 'I' for Inactive)
REMARK    1  A    between atoms: C_1  and  C_2
REMARK    2  A    between atoms: C_2  and  C_3
REMARK    3  A    between atoms: C_2  and  C_4
REMARK    4  A    between atoms: C_4  and  N_5
REMARK    5  A    between atoms: C_4  and  C_25
REMARK    6  A    between atoms: C_6  and  C_8
REMARK    7  A    between atoms: C_18  and  O_20
REMARK    8  A    between atoms: O_20  and  C_21
REMARK    9  A    between atoms: C_21  and  C_22
REMARK   10  A    between atoms: C_21  and  C_23
REMARK   11  A    between atoms: C_21  and  C_24
REMARK   12  A    between atoms: N_27  and  C_28
REMARK                            x       y       z     vdW  Elec       q    Type
REMARK                         _______ _______ _______ _____ _____    ______ ____
ROOT
ATOM      1  N   UNL     1       5.058   6.789  18.006  0.00  0.00    +0.000 N 
ATOM      2  C   UNL     1       3.937   6.104  17.593  0.00  0.00    +0.000 C 
ATOM      3  O   UNL     1       3.999   5.132  16.848  0.00  0.00    +0.000 OA
ATOM      4  H   UNL     1       4.895   7.740  18.322  0.00  0.00    +0.000 HD
ENDROOT
BRANCH   2   5
ATOM      5  C   UNL     1       2.602   6.765  18.053  0.00  0.00    +0.000 C 
ATOM      6  C   UNL     1       2.619   8.304  17.829  0.00  0.00    +0.000 C 
ATOM      7  C   UNL     1       1.523   8.982  18.629  0.00  0.00    +0.000 A 
ATOM      8  C   UNL     1       0.726  10.016  18.133  0.00  0.00    +0.000 A 
ATOM      9  C   UNL     1      -0.263  10.586  18.941  0.00  0.00    +0.000 A 
ATOM     10  C   UNL     1      -0.458  10.135  20.249  0.00  0.00    +0.000 A 
ATOM     11  C   UNL     1       0.348   9.121  20.760  0.00  0.00    +0.000 A 
ATOM     12  C   UNL     1       1.337   8.545  19.955  0.00  0.00    +0.000 A 
ATOM     13  C   UNL     1       2.240   7.447  20.448  0.00  0.00    +0.000 C 
ATOM     14  N   UNL     1       2.315   6.380  19.447  0.00  0.00    +0.000 N 
ATOM     15  C   UNL     1       1.822   5.141  19.790  0.00  0.00    +0.000 C 
ATOM     16  O   UNL     1       1.363   4.876  20.888  0.00  0.00    +0.000 OA
BRANCH  15  17
ATOM     17  O   UNL     1       1.938   4.244  18.767  0.00  0.00    +0.000 OA
BRANCH  17  18
ATOM     18  C   UNL     1       2.548   2.959  19.054  0.00  0.00    +0.000 C 
ATOM     19  C   UNL     1       3.889   3.144  19.776  0.00  0.00    +0.000 C 
ATOM     20  C   UNL     1       1.596   2.222  20.009  0.00  0.00    +0.000 C 
ATOM     21  C   UNL     1       2.644   2.137  17.760  0.00  0.00    +0.000 C 
ENDBRANCH  17  18
ENDBRANCH  15  17
ENDBRANCH   2   5
BRANCH   1  22
ATOM     22  C   UNL     1       6.475   6.434  17.827  0.00  0.00    +0.000 C 
BRANCH  22  23
ATOM     23  C   UNL     1       7.494   7.582  17.453  0.00  0.00    +0.000 C 
ATOM     24  O   UNL     1       8.237   7.436  16.478  0.00  0.00    +0.000 OA
ATOM     25  N   UNL     1       7.504   8.751  18.192  0.00  0.00    +0.000 N 
ATOM     26  H   UNL     1       6.994   8.714  19.076  0.00  0.00    +0.000 HD
BRANCH  25  27
ATOM     27  C   UNL     1       8.581   9.751  18.053  0.00  0.00    +0.000 C 
ATOM     28  C   UNL     1       8.156  11.159  17.605  0.00  0.00    +0.000 C 
ATOM     29  C   UNL     1       9.343  12.055  17.966  0.00  0.00    +0.000 C 
ATOM     30  C   UNL     1       9.981  11.418  19.195  0.00  0.00    +0.000 C 
ATOM     31  C   UNL     1       9.309  10.052  19.370  0.00  0.00    +0.000 C 
ENDBRANCH  25  27
ENDBRANCH  22  23
BRANCH  22  33
ATOM     32  C   UNL     1       7.920   4.280  17.757  0.00  0.00    +0.000 C 
ATOM     33  C   UNL     1       6.742   5.049  17.175  0.00  0.00    +0.000 C 
ATOM     34  C   UNL     1       6.914   5.124  15.644  0.00  0.00    +0.000 C 
ENDBRANCH  22  33
ENDBRANCH   1  22
TORSDOF 7
ENDMDL
