MODEL 1
REMARK VINA RESULT:      -7.6      0.000      0.000
REMARK  Name = 
REMARK  10 active torsions:
REMARK  status: ('A' for Active; 'I' for Inactive)
REMARK    1  A    between atoms: C_1  and  C_2
REMARK    2  A    between atoms: C_2  and  N_3
REMARK    3  A    between atoms: N_5  and  C_6
REMARK    4  A    between atoms: C_6  and  C_7
REMARK    5  A    between atoms: C_10  and  C_11
REMARK    6  A    between atoms: N_13  and  C_14
REMARK    7  A    between atoms: N_13  and  C_15
REMARK    8  A    between atoms: C_15  and  C_16
REMARK    9  A    between atoms: C_19  and  O_20
REMARK   10  A    between atoms: O_20  and  C_21
REMARK                            x       y       z     vdW  Elec       q    Type
REMARK                         _______ _______ _______ _____ _____    ______ ____
ROOT
ATOM      1  N   UNL     1       3.917   3.892  18.277  0.00  0.00    +0.000 NA
ATOM      2  C   UNL     1       4.999   4.573  18.120  0.00  0.00    +0.000 C 
ATOM      3  N   UNL     1       6.272   4.060  18.163  0.00  0.00    +0.000 N 
ATOM      4  N   UNL     1       4.920   5.930  17.888  0.00  0.00    +0.000 N 
ATOM      5  C   UNL     1       5.876   6.901  18.400  0.00  0.00    +0.000 C 
ATOM      6  H   UNL     1       6.327   3.069  18.373  0.00  0.00    +0.000 HD
ENDROOT
BRANCH   1   8
ATOM      7  C   UNL     1       2.490   1.987  18.641  0.00  0.00    +0.000 C 
ATOM      8  C   UNL     1       3.933   2.470  18.565  0.00  0.00    +0.000 C 
ENDBRANCH   1   8
BRANCH   3   9
ATOM      9  C   UNL     1       7.333   4.469  17.238  0.00  0.00    +0.000 C 
BRANCH   9  10
ATOM     10  C   UNL     1       7.042   4.552  15.772  0.00  0.00    +0.000 A 
ATOM     11  N   UNL     1       7.630   5.466  14.985  0.00  0.00    +0.000 NA
ATOM     12  O   UNL     1       7.181   5.134  13.711  0.00  0.00    +0.000 OA
ATOM     13  C   UNL     1       6.373   4.045  13.857  0.00  0.00    +0.000 A 
ATOM     14  C   UNL     1       5.774   3.500  12.627  0.00  0.00    +0.000 C 
ATOM     15  N   UNL     1       6.254   3.642  15.104  0.00  0.00    +0.000 NA
ENDBRANCH   9  10
ENDBRANCH   3   9
BRANCH   4  16
ATOM     16  C   UNL     1       3.753   6.493  17.199  0.00  0.00    +0.000 C 
BRANCH  16  17
ATOM     17  C   UNL     1       2.851   7.338  18.071  0.00  0.00    +0.000 A 
ATOM     18  C   UNL     1       2.397   8.588  17.627  0.00  0.00    +0.000 A 
ATOM     19  C   UNL     1       1.635   9.414  18.458  0.00  0.00    +0.000 A 
ATOM     20  C   UNL     1       1.297   9.010  19.753  0.00  0.00    +0.000 A 
ATOM     21  C   UNL     1       1.722   7.754  20.186  0.00  0.00    +0.000 A 
ATOM     22  F   UNL     1       1.423   7.294  21.411  0.00  0.00    +0.000 F 
ATOM     23  C   UNL     1       2.491   6.927  19.362  0.00  0.00    +0.000 A 
BRANCH  20  24
ATOM     24  O   UNL     1       0.573   9.934  20.457  0.00  0.00    +0.000 OA
ATOM     25  C   UNL     1      -0.468  10.607  19.762  0.00  0.00    +0.000 C 
ENDBRANCH  20  24
ENDBRANCH  16  17
ENDBRANCH   4  16
TORSDOF 6
ENDMDL
MODEL 2
REMARK VINA RESULT:      -7.5      1.116      1.516
REMARK  Name = 
REMARK  10 active torsions:
REMARK  status: ('A' for Active; 'I' for Inactive)
REMARK    1  A    between atoms: C_1  and  C_2
REMARK    2  A    between atoms: C_2  and  N_3
REMARK    3  A    between atoms: N_5  and  C_6
REMARK    4  A    between atoms: C_6  and  C_7
REMARK    5  A    between atoms: C_10  and  C_11
REMARK    6  A    between atoms: N_13  and  C_14
REMARK    7  A    between atoms: N_13  and  C_15
REMARK    8  A    between atoms: C_15  and  C_16
REMARK    9  A    between atoms: C_19  and  O_20
REMARK   10  A    between atoms: O_20  and  C_21
REMARK                            x       y       z     vdW  Elec       q    Type
REMARK                         _______ _______ _______ _____ _____    ______ ____
ROOT
ATOM      1  N   UNL     1       4.103   4.016  18.449  0.00  0.00    +0.000 NA
ATOM      2  C   UNL     1       5.185   4.662  18.178  0.00  0.00    +0.000 C 
ATOM      3  N   UNL     1       6.449   4.125  18.177  0.00  0.00    +0.000 N 
ATOM      4  N   UNL     1       5.114   6.001  17.856  0.00  0.00    +0.000 N 
ATOM      5  C   UNL     1       6.117   6.984  18.238  0.00  0.00    +0.000 C 
ATOM      6  H   UNL     1       6.500   3.151  18.452  0.00  0.00    +0.000 HD
ENDROOT
BRANCH   1   8
ATOM      7  C   UNL     1       3.125   1.876  17.943  0.00  0.00    +0.000 C 
ATOM      8  C   UNL     1       4.114   2.618  18.834  0.00  0.00    +0.000 C 
ENDBRANCH   1   8
BRANCH   3   9
ATOM      9  C   UNL     1       7.456   4.448  17.162  0.00  0.00    +0.000 C 
BRANCH   9  10
ATOM     10  C   UNL     1       7.050   4.542  15.724  0.00  0.00    +0.000 A 
ATOM     11  N   UNL     1       7.516   5.510  14.920  0.00  0.00    +0.000 NA
ATOM     12  O   UNL     1       6.994   5.176  13.675  0.00  0.00    +0.000 OA
ATOM     13  C   UNL     1       6.272   4.033  13.851  0.00  0.00    +0.000 A 
ATOM     14  C   UNL     1       5.618   3.475  12.655  0.00  0.00    +0.000 C 
ATOM     15  N   UNL     1       6.274   3.596  15.093  0.00  0.00    +0.000 NA
ENDBRANCH   9  10
ENDBRANCH   3   9
BRANCH   4  16
ATOM     16  C   UNL     1       3.916   6.540  17.203  0.00  0.00    +0.000 C 
BRANCH  16  17
ATOM     17  C   UNL     1       3.030   7.379  18.099  0.00  0.00    +0.000 A 
ATOM     18  C   UNL     1       2.681   6.926  19.379  0.00  0.00    +0.000 A 
ATOM     19  C   UNL     1       1.794   7.652  20.181  0.00  0.00    +0.000 A 
ATOM     20  C   UNL     1       1.240   8.852  19.730  0.00  0.00    +0.000 A 
ATOM     21  C   UNL     1       1.610   9.319  18.468  0.00  0.00    +0.000 A 
ATOM     22  F   UNL     1       1.129  10.471  17.976  0.00  0.00    +0.000 F 
ATOM     23  C   UNL     1       2.490   8.594  17.659  0.00  0.00    +0.000 A 
BRANCH  20  24
ATOM     24  O   UNL     1       0.369   9.434  20.611  0.00  0.00    +0.000 OA
ATOM     25  C   UNL     1       0.452   9.022  21.970  0.00  0.00    +0.000 C 
ENDBRANCH  20  24
ENDBRANCH  16  17
ENDBRANCH   4  16
TORSDOF 6
ENDMDL
MODEL 3
REMARK VINA RESULT:      -7.4      3.024      4.482
REMARK  Name = 
REMARK  10 active torsions:
REMARK  status: ('A' for Active; 'I' for Inactive)
REMARK    1  A    between atoms: C_1  and  C_2
REMARK    2  A    between atoms: C_2  and  N_3
REMARK    3  A    between atoms: N_5  and  C_6
REMARK    4  A    between atoms: C_6  and  C_7
REMARK    5  A    between atoms: C_10  and  C_11
REMARK    6  A    between atoms: N_13  and  C_14
REMARK    7  A    between atoms: N_13  and  C_15
REMARK    8  A    between atoms: C_15  and  C_16
REMARK    9  A    between atoms: C_19  and  O_20
REMARK   10  A    between atoms: O_20  and  C_21
REMARK                            x       y       z     vdW  Elec       q    Type
REMARK                         _______ _______ _______ _____ _____    ______ ____
ROOT
ATOM      1  N   UNL     1       6.969   7.887  17.892  0.00  0.00    +0.000 NA
ATOM      2  C   UNL     1       6.619   7.069  16.959  0.00  0.00    +0.000 C 
ATOM      3  N   UNL     1       7.482   6.309  16.208  0.00  0.00    +0.000 N 
ATOM      4  N   UNL     1       5.283   6.914  16.658  0.00  0.00    +0.000 N 
ATOM      5  C   UNL     1       4.773   6.689  15.314  0.00  0.00    +0.000 C 
ATOM      6  H   UNL     1       8.465   6.455  16.407  0.00  0.00    +0.000 HD
ENDROOT
BRANCH   1   8
ATOM      7  C   UNL     1       8.573   9.633  18.309  0.00  0.00    +0.000 C 
ATOM      8  C   UNL     1       8.359   8.126  18.229  0.00  0.00    +0.000 C 
ENDBRANCH   1   8
BRANCH   3   9
ATOM      9  C   UNL     1       7.212   4.914  15.846  0.00  0.00    +0.000 C 
BRANCH   9  10
ATOM     10  C   UNL     1       6.945   4.563  14.415  0.00  0.00    +0.000 A 
ATOM     11  N   UNL     1       7.603   5.156  13.407  0.00  0.00    +0.000 NA
ATOM     12  O   UNL     1       7.148   4.477  12.280  0.00  0.00    +0.000 OA
ATOM     13  C   UNL     1       6.268   3.536  12.724  0.00  0.00    +0.000 A 
ATOM     14  C   UNL     1       5.649   2.677  11.700  0.00  0.00    +0.000 C 
ATOM     15  N   UNL     1       6.107   3.540  14.030  0.00  0.00    +0.000 NA
ENDBRANCH   9  10
ENDBRANCH   3   9
BRANCH   4  16
ATOM     16  C   UNL     1       4.265   7.105  17.698  0.00  0.00    +0.000 C 
BRANCH  16  17
ATOM     17  C   UNL     1       3.684   5.824  18.255  0.00  0.00    +0.000 A 
ATOM     18  C   UNL     1       2.303   5.586  18.202  0.00  0.00    +0.000 A 
ATOM     19  C   UNL     1       1.746   4.447  18.791  0.00  0.00    +0.000 A 
ATOM     20  C   UNL     1       2.553   3.509  19.440  0.00  0.00    +0.000 A 
ATOM     21  C   UNL     1       3.931   3.729  19.468  0.00  0.00    +0.000 A 
ATOM     22  F   UNL     1       4.769   2.864  20.060  0.00  0.00    +0.000 F 
ATOM     23  C   UNL     1       4.493   4.870  18.887  0.00  0.00    +0.000 A 
BRANCH  20  24
ATOM     24  O   UNL     1       1.865   2.463  19.992  0.00  0.00    +0.000 OA
ATOM     25  C   UNL     1       1.566   2.545  21.379  0.00  0.00    +0.000 C 
ENDBRANCH  20  24
ENDBRANCH  16  17
ENDBRANCH   4  16
TORSDOF 6
ENDMDL
MODEL 4
REMARK VINA RESULT:      -7.4      2.201      3.925
REMARK  Name = 
REMARK  10 active torsions:
REMARK  status: ('A' for Active; 'I' for Inactive)
REMARK    1  A    between atoms: C_1  and  C_2
REMARK    2  A    between atoms: C_2  and  N_3
REMARK    3  A    between atoms: N_5  and  C_6
REMARK    4  A    between atoms: C_6  and  C_7
REMARK    5  A    between atoms: C_10  and  C_11
REMARK    6  A    between atoms: N_13  and  C_14
REMARK    7  A    between atoms: N_13  and  C_15
REMARK    8  A    between atoms: C_15  and  C_16
REMARK    9  A    between atoms: C_19  and  O_20
REMARK   10  A    between atoms: O_20  and  C_21
REMARK                            x       y       z     vdW  Elec       q    Type
REMARK                         _______ _______ _______ _____ _____    ______ ____
ROOT
ATOM      1  N   UNL     1       5.269   4.186  15.263  0.00  0.00    +0.000 NA
ATOM      2  C   UNL     1       5.641   4.204  16.497  0.00  0.00    +0.000 C 
ATOM      3  N   UNL     1       6.940   4.306  16.931  0.00  0.00    +0.000 N 
ATOM      4  N   UNL     1       4.692   4.118  17.494  0.00  0.00    +0.000 N 
ATOM      5  C   UNL     1       4.897   3.417  18.753  0.00  0.00    +0.000 C 
ATOM      6  H   UNL     1       7.636   4.330  16.195  0.00  0.00    +0.000 HD
ENDROOT
BRANCH   1   8
ATOM      7  C   UNL     1       5.542   3.653  12.932  0.00  0.00    +0.000 C 
ATOM      8  C   UNL     1       6.219   4.232  14.168  0.00  0.00    +0.000 C 
ENDBRANCH   1   8
BRANCH   3   9
ATOM      9  C   UNL     1       7.341   5.133  18.073  0.00  0.00    +0.000 C 
BRANCH   9  10
ATOM     10  C   UNL     1       7.665   6.580  17.857  0.00  0.00    +0.000 A 
ATOM     11  N   UNL     1       7.192   7.260  16.802  0.00  0.00    +0.000 NA
ATOM     12  O   UNL     1       7.624   8.562  17.036  0.00  0.00    +0.000 OA
ATOM     13  C   UNL     1       8.306   8.537  18.216  0.00  0.00    +0.000 A 
ATOM     14  C   UNL     1       8.863   9.818  18.682  0.00  0.00    +0.000 C 
ATOM     15  N   UNL     1       8.360   7.343  18.768  0.00  0.00    +0.000 NA
ENDBRANCH   9  10
ENDBRANCH   3   9
BRANCH   4  16
ATOM     16  C   UNL     1       3.338   4.637  17.270  0.00  0.00    +0.000 C 
BRANCH  16  17
ATOM     17  C   UNL     1       2.851   5.606  18.326  0.00  0.00    +0.000 A 
ATOM     18  C   UNL     1       2.271   5.134  19.512  0.00  0.00    +0.000 A 
ATOM     19  C   UNL     1       1.739   6.020  20.454  0.00  0.00    +0.000 A 
ATOM     20  C   UNL     1       1.780   7.400  20.242  0.00  0.00    +0.000 A 
ATOM     21  C   UNL     1       2.385   7.873  19.076  0.00  0.00    +0.000 A 
ATOM     22  F   UNL     1       2.474   9.185  18.813  0.00  0.00    +0.000 F 
ATOM     23  C   UNL     1       2.911   6.991  18.127  0.00  0.00    +0.000 A 
BRANCH  20  24
ATOM     24  O   UNL     1       1.196   8.138  21.236  0.00  0.00    +0.000 OA
ATOM     25  C   UNL     1       0.088   8.950  20.872  0.00  0.00    +0.000 C 
ENDBRANCH  20  24
ENDBRANCH  16  17
ENDBRANCH   4  16
TORSDOF 6
ENDMDL
MODEL 5
REMARK VINA RESULT:      -7.3      2.181      3.821
REMARK  Name = 
REMARK  10 active torsions:
REMARK  status: ('A' for Active; 'I' for Inactive)
REMARK    1  A    between atoms: C_1  and  C_2
REMARK    2  A    between atoms: C_2  and  N_3
REMARK    3  A    between atoms: N_5  and  C_6
REMARK    4  A    between atoms: C_6  and  C_7
REMARK    5  A    between atoms: C_10  and  C_11
REMARK    6  A    between atoms: N_13  and  C_14
REMARK    7  A    between atoms: N_13  and  C_15
REMARK    8  A    between atoms: C_15  and  C_16
REMARK    9  A    between atoms: C_19  and  O_20
REMARK   10  A    between atoms: O_20  and  C_21
REMARK                            x       y       z     vdW  Elec       q    Type
REMARK                         _______ _______ _______ _____ _____    ______ ____
ROOT
ATOM      1  N   UNL     1       5.571   4.225  15.523  0.00  0.00    +0.000 NA
ATOM      2  C   UNL     1       5.869   4.376  16.768  0.00  0.00    +0.000 C 
ATOM      3  N   UNL     1       7.112   4.702  17.251  0.00  0.00    +0.000 N 
ATOM      4  N   UNL     1       4.891   4.205  17.726  0.00  0.00    +0.000 N 
ATOM      5  C   UNL     1       5.130   3.622  19.038  0.00  0.00    +0.000 C 
ATOM      6  H   UNL     1       7.836   4.788  16.547  0.00  0.00    +0.000 HD
ENDROOT
BRANCH   1   8
ATOM      7  C   UNL     1       5.993   3.708  13.211  0.00  0.00    +0.000 C 
ATOM      8  C   UNL     1       6.561   4.350  14.471  0.00  0.00    +0.000 C 
ENDBRANCH   1   8
BRANCH   3   9
ATOM      9  C   UNL     1       7.322   5.649  18.350  0.00  0.00    +0.000 C 
BRANCH   9  10
ATOM     10  C   UNL     1       7.642   7.079  18.041  0.00  0.00    +0.000 A 
ATOM     11  N   UNL     1       6.997   7.754  17.077  0.00  0.00    +0.000 NA
ATOM     12  O   UNL     1       7.505   9.045  17.192  0.00  0.00    +0.000 OA
ATOM     13  C   UNL     1       8.400   9.019  18.220  0.00  0.00    +0.000 A 
ATOM     14  C   UNL     1       9.074  10.289  18.539  0.00  0.00    +0.000 C 
ATOM     15  N   UNL     1       8.522   7.835  18.782  0.00  0.00    +0.000 NA
ENDBRANCH   9  10
ENDBRANCH   3   9
BRANCH   4  16
ATOM     16  C   UNL     1       3.489   4.495  17.407  0.00  0.00    +0.000 C 
BRANCH  16  17
ATOM     17  C   UNL     1       2.926   5.723  18.092  0.00  0.00    +0.000 A 
ATOM     18  C   UNL     1       3.073   6.991  17.512  0.00  0.00    +0.000 A 
ATOM     19  C   UNL     1       2.635   8.140  18.177  0.00  0.00    +0.000 A 
ATOM     20  C   UNL     1       2.029   8.053  19.433  0.00  0.00    +0.000 A 
ATOM     21  C   UNL     1       1.854   6.789  19.998  0.00  0.00    +0.000 A 
ATOM     22  F   UNL     1       1.268   6.628  21.194  0.00  0.00    +0.000 F 
ATOM     23  C   UNL     1       2.298   5.638  19.341  0.00  0.00    +0.000 A 
BRANCH  20  24
ATOM     24  O   UNL     1       1.679   9.262  19.971  0.00  0.00    +0.000 OA
ATOM     25  C   UNL     1       0.304   9.621  19.915  0.00  0.00    +0.000 C 
ENDBRANCH  20  24
ENDBRANCH  16  17
ENDBRANCH   4  16
TORSDOF 6
ENDMDL
MODEL 6
REMARK VINA RESULT:      -7.0      1.474      1.761
REMARK  Name = 
REMARK  10 active torsions:
REMARK  status: ('A' for Active; 'I' for Inactive)
REMARK    1  A    between atoms: C_1  and  C_2
REMARK    2  A    between atoms: C_2  and  N_3
REMARK    3  A    between atoms: N_5  and  C_6
REMARK    4  A    between atoms: C_6  and  C_7
REMARK    5  A    between atoms: C_10  and  C_11
REMARK    6  A    between atoms: N_13  and  C_14
REMARK    7  A    between atoms: N_13  and  C_15
REMARK    8  A    between atoms: C_15  and  C_16
REMARK    9  A    between atoms: C_19  and  O_20
REMARK   10  A    between atoms: O_20  and  C_21
REMARK                            x       y       z     vdW  Elec       q    Type
REMARK                         _______ _______ _______ _____ _____    ______ ____
ROOT
ATOM      1  N   UNL     1       2.962   3.218  18.712  0.00  0.00    +0.000 NA
ATOM      2  C   UNL     1       3.842   4.098  18.375  0.00  0.00    +0.000 C 
ATOM      3  N   UNL     1       4.593   4.067  17.226  0.00  0.00    +0.000 N 
ATOM      4  N   UNL     1       4.078   5.174  19.204  0.00  0.00    +0.000 N 
ATOM      5  C   UNL     1       5.388   5.778  19.400  0.00  0.00    +0.000 C 
ATOM      6  H   UNL     1       4.444   3.254  16.639  0.00  0.00    +0.000 HD
ENDROOT
BRANCH   1   8
ATOM      7  C   UNL     1       3.711   0.970  18.284  0.00  0.00    +0.000 C 
ATOM      8  C   UNL     1       2.696   2.042  17.905  0.00  0.00    +0.000 C 
ENDBRANCH   1   8
BRANCH   3   9
ATOM      9  C   UNL     1       4.880   5.259  16.423  0.00  0.00    +0.000 C 
BRANCH   9  10
ATOM     10  C   UNL     1       5.850   5.167  15.286  0.00  0.00    +0.000 A 
ATOM     11  N   UNL     1       7.078   5.704  15.359  0.00  0.00    +0.000 NA
ATOM     12  O   UNL     1       7.676   5.305  14.168  0.00  0.00    +0.000 OA
ATOM     13  C   UNL     1       6.752   4.558  13.501  0.00  0.00    +0.000 A 
ATOM     14  C   UNL     1       7.163   4.012  12.195  0.00  0.00    +0.000 C 
ATOM     15  N   UNL     1       5.610   4.437  14.144  0.00  0.00    +0.000 NA
ENDBRANCH   9  10
ENDBRANCH   3   9
BRANCH   4  16
ATOM     16  C   UNL     1       3.005   5.697  20.057  0.00  0.00    +0.000 C 
BRANCH  16  17
ATOM     17  C   UNL     1       2.397   6.999  19.581  0.00  0.00    +0.000 A 
ATOM     18  C   UNL     1       2.580   7.428  18.260  0.00  0.00    +0.000 A 
ATOM     19  C   UNL     1       2.096   8.669  17.833  0.00  0.00    +0.000 A 
ATOM     20  C   UNL     1       1.409   9.510  18.713  0.00  0.00    +0.000 A 
ATOM     21  C   UNL     1       1.200   9.071  20.021  0.00  0.00    +0.000 A 
ATOM     22  F   UNL     1       0.536   9.818  20.915  0.00  0.00    +0.000 F 
ATOM     23  C   UNL     1       1.688   7.834  20.454  0.00  0.00    +0.000 A 
BRANCH  20  24
ATOM     24  O   UNL     1       1.022  10.701  18.162  0.00  0.00    +0.000 OA
ATOM     25  C   UNL     1       1.695  11.870  18.611  0.00  0.00    +0.000 C 
ENDBRANCH  20  24
ENDBRANCH  16  17
ENDBRANCH   4  16
TORSDOF 6
ENDMDL
MODEL 7
REMARK VINA RESULT:      -7.0      2.750      4.330
REMARK  Name = 
REMARK  10 active torsions:
REMARK  status: ('A' for Active; 'I' for Inactive)
REMARK    1  A    between atoms: C_1  and  C_2
REMARK    2  A    between atoms: C_2  and  N_3
REMARK    3  A    between atoms: N_5  and  C_6
REMARK    4  A    between atoms: C_6  and  C_7
REMARK    5  A    between atoms: C_10  and  C_11
REMARK    6  A    between atoms: N_13  and  C_14
REMARK    7  A    between atoms: N_13  and  C_15
REMARK    8  A    between atoms: C_15  and  C_16
REMARK    9  A    between atoms: C_19  and  O_20
REMARK   10  A    between atoms: O_20  and  C_21
REMARK                            x       y       z     vdW  Elec       q    Type
REMARK                         _______ _______ _______ _____ _____    ______ ____
ROOT
ATOM      1  N   UNL     1       6.939   7.886  17.922  0.00  0.00    +0.000 NA
ATOM      2  C   UNL     1       6.607   7.083  16.970  0.00  0.00    +0.000 C 
ATOM      3  N   UNL     1       7.475   6.279  16.274  0.00  0.00    +0.000 N 
ATOM      4  N   UNL     1       5.285   6.993  16.588  0.00  0.00    +0.000 N 
ATOM      5  C   UNL     1       4.847   6.789  15.216  0.00  0.00    +0.000 C 
ATOM      6  H   UNL     1       8.450   6.377  16.531  0.00  0.00    +0.000 HD
ENDROOT
BRANCH   1   8
ATOM      7  C   UNL     1       8.629   9.550  18.335  0.00  0.00    +0.000 C 
ATOM      8  C   UNL     1       8.317   8.058  18.343  0.00  0.00    +0.000 C 
ENDBRANCH   1   8
BRANCH   3   9
ATOM      9  C   UNL     1       7.159   4.898  15.896  0.00  0.00    +0.000 C 
BRANCH   9  10
ATOM     10  C   UNL     1       6.917   4.564  14.457  0.00  0.00    +0.000 A 
ATOM     11  N   UNL     1       7.599   5.162  13.468  0.00  0.00    +0.000 NA
ATOM     12  O   UNL     1       7.161   4.499  12.326  0.00  0.00    +0.000 OA
ATOM     13  C   UNL     1       6.264   3.561  12.742  0.00  0.00    +0.000 A 
ATOM     14  C   UNL     1       5.658   2.718  11.697  0.00  0.00    +0.000 C 
ATOM     15  N   UNL     1       6.077   3.553  14.045  0.00  0.00    +0.000 NA
ENDBRANCH   9  10
ENDBRANCH   3   9
BRANCH   4  16
ATOM     16  C   UNL     1       4.217   7.238  17.565  0.00  0.00    +0.000 C 
BRANCH  16  17
ATOM     17  C   UNL     1       3.637   5.989  18.193  0.00  0.00    +0.000 A 
ATOM     18  C   UNL     1       3.679   4.764  17.512  0.00  0.00    +0.000 A 
ATOM     19  C   UNL     1       3.070   3.624  18.045  0.00  0.00    +0.000 A 
ATOM     20  C   UNL     1       2.412   3.673  19.277  0.00  0.00    +0.000 A 
ATOM     21  C   UNL     1       2.396   4.884  19.970  0.00  0.00    +0.000 A 
ATOM     22  F   UNL     1       1.797   5.002  21.165  0.00  0.00    +0.000 F 
ATOM     23  C   UNL     1       2.997   6.029  19.438  0.00  0.00    +0.000 A 
BRANCH  20  24
ATOM     24  O   UNL     1       1.841   2.489  19.656  0.00  0.00    +0.000 OA
ATOM     25  C   UNL     1       0.640   2.109  18.996  0.00  0.00    +0.000 C 
ENDBRANCH  20  24
ENDBRANCH  16  17
ENDBRANCH   4  16
TORSDOF 6
ENDMDL
MODEL 8
REMARK VINA RESULT:      -6.8      0.888      1.091
REMARK  Name = 
REMARK  10 active torsions:
REMARK  status: ('A' for Active; 'I' for Inactive)
REMARK    1  A    between atoms: C_1  and  C_2
REMARK    2  A    between atoms: C_2  and  N_3
REMARK    3  A    between atoms: N_5  and  C_6
REMARK    4  A    between atoms: C_6  and  C_7
REMARK    5  A    between atoms: C_10  and  C_11
REMARK    6  A    between atoms: N_13  and  C_14
REMARK    7  A    between atoms: N_13  and  C_15
REMARK    8  A    between atoms: C_15  and  C_16
REMARK    9  A    between atoms: C_19  and  O_20
REMARK   10  A    between atoms: O_20  and  C_21
REMARK                            x       y       z     vdW  Elec       q    Type
REMARK                         _______ _______ _______ _____ _____    ______ ____
ROOT
ATOM      1  N   UNL     1       4.137   4.072  18.892  0.00  0.00    +0.000 NA
ATOM      2  C   UNL     1       5.134   4.781  18.486  0.00  0.00    +0.000 C 
ATOM      3  N   UNL     1       6.446   4.376  18.484  0.00  0.00    +0.000 N 
ATOM      4  N   UNL     1       4.911   6.055  18.007  0.00  0.00    +0.000 N 
ATOM      5  C   UNL     1       5.821   7.172  18.212  0.00  0.00    +0.000 C 
ATOM      6  H   UNL     1       6.610   3.454  18.873  0.00  0.00    +0.000 HD
ENDROOT
BRANCH   1   8
ATOM      7  C   UNL     1       3.292   2.561  20.564  0.00  0.00    +0.000 C 
ATOM      8  C   UNL     1       4.309   2.742  19.444  0.00  0.00    +0.000 C 
ENDBRANCH   1   8
BRANCH   3   9
ATOM      9  C   UNL     1       7.372   4.663  17.385  0.00  0.00    +0.000 C 
BRANCH   9  10
ATOM     10  C   UNL     1       6.973   4.337  15.980  0.00  0.00    +0.000 A 
ATOM     11  N   UNL     1       5.887   3.595  15.708  0.00  0.00    +0.000 NA
ATOM     12  O   UNL     1       5.815   3.625  14.318  0.00  0.00    +0.000 OA
ATOM     13  C   UNL     1       6.860   4.391  13.892  0.00  0.00    +0.000 A 
ATOM     14  C   UNL     1       6.992   4.575  12.437  0.00  0.00    +0.000 C 
ATOM     15  N   UNL     1       7.604   4.858  14.872  0.00  0.00    +0.000 NA
ENDBRANCH   9  10
ENDBRANCH   3   9
BRANCH   4  16
ATOM     16  C   UNL     1       3.638   6.386  17.357  0.00  0.00    +0.000 C 
BRANCH  16  17
ATOM     17  C   UNL     1       2.741   7.307  18.156  0.00  0.00    +0.000 A 
ATOM     18  C   UNL     1       2.252   8.492  17.588  0.00  0.00    +0.000 A 
ATOM     19  C   UNL     1       1.495   9.392  18.344  0.00  0.00    +0.000 A 
ATOM     20  C   UNL     1       1.199   9.130  19.684  0.00  0.00    +0.000 A 
ATOM     21  C   UNL     1       1.660   7.936  20.242  0.00  0.00    +0.000 A 
ATOM     22  F   UNL     1       1.401   7.611  21.518  0.00  0.00    +0.000 F 
ATOM     23  C   UNL     1       2.423   7.036  19.493  0.00  0.00    +0.000 A 
BRANCH  20  24
ATOM     24  O   UNL     1       0.476  10.114  20.302  0.00  0.00    +0.000 OA
ATOM     25  C   UNL     1       1.068  11.404  20.373  0.00  0.00    +0.000 C 
ENDBRANCH  20  24
ENDBRANCH  16  17
ENDBRANCH   4  16
TORSDOF 6
ENDMDL
MODEL 9
REMARK VINA RESULT:      -6.7      2.200      3.867
REMARK  Name = 
REMARK  10 active torsions:
REMARK  status: ('A' for Active; 'I' for Inactive)
REMARK    1  A    between atoms: C_1  and  C_2
REMARK    2  A    between atoms: C_2  and  N_3
REMARK    3  A    between atoms: N_5  and  C_6
REMARK    4  A    between atoms: C_6  and  C_7
REMARK    5  A    between atoms: C_10  and  C_11
REMARK    6  A    between atoms: N_13  and  C_14
REMARK    7  A    between atoms: N_13  and  C_15
REMARK    8  A    between atoms: C_15  and  C_16
REMARK    9  A    between atoms: C_19  and  O_20
REMARK   10  A    between atoms: O_20  and  C_21
REMARK                            x       y       z     vdW  Elec       q    Type
REMARK                         _______ _______ _______ _____ _____    ______ ____
ROOT
ATOM      1  N   UNL     1       4.987   4.314  15.219  0.00  0.00    +0.000 NA
ATOM      2  C   UNL     1       5.290   4.014  16.436  0.00  0.00    +0.000 C 
ATOM      3  N   UNL     1       6.565   3.950  16.942  0.00  0.00    +0.000 N 
ATOM      4  N   UNL     1       4.285   3.728  17.335  0.00  0.00    +0.000 N 
ATOM      5  C   UNL     1       4.396   2.733  18.391  0.00  0.00    +0.000 C 
ATOM      6  H   UNL     1       7.302   4.123  16.268  0.00  0.00    +0.000 HD
ENDROOT
BRANCH   1   8
ATOM      7  C   UNL     1       5.780   3.621  13.054  0.00  0.00    +0.000 C 
ATOM      8  C   UNL     1       5.998   4.584  14.215  0.00  0.00    +0.000 C 
ENDBRANCH   1   8
BRANCH   3   9
ATOM      9  C   UNL     1       6.926   4.456  18.270  0.00  0.00    +0.000 C 
BRANCH   9  10
ATOM     10  C   UNL     1       7.440   5.855  18.411  0.00  0.00    +0.000 A 
ATOM     11  N   UNL     1       8.333   6.188  19.356  0.00  0.00    +0.000 NA
ATOM     12  O   UNL     1       8.620   7.520  19.074  0.00  0.00    +0.000 OA
ATOM     13  C   UNL     1       7.877   7.854  17.980  0.00  0.00    +0.000 A 
ATOM     14  C   UNL     1       8.018   9.234  17.484  0.00  0.00    +0.000 C 
ATOM     15  N   UNL     1       7.134   6.866  17.528  0.00  0.00    +0.000 NA
ENDBRANCH   9  10
ENDBRANCH   3   9
BRANCH   4  16
ATOM     16  C   UNL     1       2.962   4.344  17.182  0.00  0.00    +0.000 C 
BRANCH  16  17
ATOM     17  C   UNL     1       2.670   5.465  18.157  0.00  0.00    +0.000 A 
ATOM     18  C   UNL     1       2.224   5.181  19.455  0.00  0.00    +0.000 A 
ATOM     19  C   UNL     1       1.870   6.209  20.335  0.00  0.00    +0.000 A 
ATOM     20  C   UNL     1       1.960   7.548  19.945  0.00  0.00    +0.000 A 
ATOM     21  C   UNL     1       2.433   7.833  18.663  0.00  0.00    +0.000 A 
ATOM     22  F   UNL     1       2.560   9.095  18.225  0.00  0.00    +0.000 F 
ATOM     23  C   UNL     1       2.782   6.809  17.777  0.00  0.00    +0.000 A 
BRANCH  20  24
ATOM     24  O   UNL     1       1.553   8.439  20.900  0.00  0.00    +0.000 OA
ATOM     25  C   UNL     1       0.479   9.306  20.559  0.00  0.00    +0.000 C 
ENDBRANCH  20  24
ENDBRANCH  16  17
ENDBRANCH   4  16
TORSDOF 6
ENDMDL
