MODEL 1
REMARK VINA RESULT:      -7.9      0.000      0.000
REMARK  Name = 
REMARK  9 active torsions:
REMARK  status: ('A' for Active; 'I' for Inactive)
REMARK    1  A    between atoms: C_1  and  C_2
REMARK    2  A    between atoms: C_3  and  O_4
REMARK    3  A    between atoms: O_4  and  C_5
REMARK    4  A    between atoms: C_5  and  C_6
REMARK    5  A    between atoms: C_6  and  C_7
REMARK    6  A    between atoms: C_7  and  C_8
REMARK    7  A    between atoms: C_8  and  N_9
REMARK    8  A    between atoms: C_14  and  C_15
REMARK    9  A    between atoms: C_22  and  C_23
REMARK                            x       y       z     vdW  Elec       q    Type
REMARK                         _______ _______ _______ _____ _____    ______ ____
ROOT
ATOM      1  C   UNL     1       1.958   9.662  17.763  0.00  0.00    +0.000 C 
ATOM      2  C   UNL     1       1.706   8.861  19.015  0.00  0.00    +0.000 A 
ATOM      3  C   UNL     1       0.997   9.397  20.110  0.00  0.00    +0.000 A 
ATOM      4  C   UNL     1       0.723   8.595  21.228  0.00  0.00    +0.000 A 
ATOM      5  C   UNL     1       1.152   7.269  21.270  0.00  0.00    +0.000 A 
ATOM      6  C   UNL     1       1.886   6.749  20.208  0.00  0.00    +0.000 A 
ATOM      7  C   UNL     1       2.375   5.367  20.266  0.00  0.00    +0.000 A 
ATOM      8  O   UNL     1       2.085   4.603  21.177  0.00  0.00    +0.000 OA
ATOM      9  C   UNL     1       3.258   4.936  19.171  0.00  0.00    +0.000 A 
ATOM     10  C   UNL     1       3.491   5.790  18.170  0.00  0.00    +0.000 A 
ATOM     11  O   UNL     1       2.942   7.057  18.053  0.00  0.00    +0.000 OA
ATOM     12  C   UNL     1       2.177   7.537  19.094  0.00  0.00    +0.000 A 
ENDROOT
BRANCH  10  13
ATOM     13  C   UNL     1       4.412   5.436  17.089  0.00  0.00    +0.000 A 
ATOM     14  C   UNL     1       4.793   4.105  16.886  0.00  0.00    +0.000 A 
ATOM     15  C   UNL     1       5.641   3.773  15.828  0.00  0.00    +0.000 A 
ATOM     16  C   UNL     1       6.117   4.768  14.974  0.00  0.00    +0.000 A 
ATOM     17  C   UNL     1       5.762   6.099  15.186  0.00  0.00    +0.000 A 
ATOM     18  C   UNL     1       4.912   6.433  16.242  0.00  0.00    +0.000 A 
ENDBRANCH  10  13
BRANCH   3  19
ATOM     19  O   UNL     1       0.624  10.711  20.016  0.00  0.00    +0.000 OA
BRANCH  19  20
ATOM     20  C   UNL     1      -0.497  11.140  20.790  0.00  0.00    +0.000 C 
BRANCH  20  21
ATOM     21  C   UNL     1      -0.478  12.664  20.886  0.00  0.00    +0.000 C 
BRANCH  21  22
ATOM     22  C   UNL     1      -1.564  13.280  19.997  0.00  0.00    +0.000 C 
BRANCH  22  23
ATOM     23  C   UNL     1      -2.759  12.342  19.838  0.00  0.00    +0.000 C 
BRANCH  23  24
ATOM     24  N   UNL     1      -2.997  11.902  18.475  0.00  0.00    +0.000 NA
ATOM     25  C   UNL     1      -1.869  11.736  17.573  0.00  0.00    +0.000 C 
ATOM     26  C   UNL     1      -1.596  10.285  17.172  0.00  0.00    +0.000 C 
ATOM     27  C   UNL     1      -2.864   9.555  16.743  0.00  0.00    +0.000 C 
ATOM     28  C   UNL     1      -3.936   9.693  17.818  0.00  0.00    +0.000 C 
ATOM     29  C   UNL     1      -4.215  11.157  18.188  0.00  0.00    +0.000 C 
ATOM     30  C   UNL     1      -4.964  11.897  17.074  0.00  0.00    +0.000 C 
ENDBRANCH  23  24
ENDBRANCH  22  23
ENDBRANCH  21  22
ENDBRANCH  20  21
ENDBRANCH  19  20
ENDBRANCH   3  19
TORSDOF 7
ENDMDL
MODEL 2
REMARK VINA RESULT:      -7.8      1.638      2.786
REMARK  Name = 
REMARK  9 active torsions:
REMARK  status: ('A' for Active; 'I' for Inactive)
REMARK    1  A    between atoms: C_1  and  C_2
REMARK    2  A    between atoms: C_3  and  O_4
REMARK    3  A    between atoms: O_4  and  C_5
REMARK    4  A    between atoms: C_5  and  C_6
REMARK    5  A    between atoms: C_6  and  C_7
REMARK    6  A    between atoms: C_7  and  C_8
REMARK    7  A    between atoms: C_8  and  N_9
REMARK    8  A    between atoms: C_14  and  C_15
REMARK    9  A    between atoms: C_22  and  C_23
REMARK                            x       y       z     vdW  Elec       q    Type
REMARK                         _______ _______ _______ _____ _____    ______ ____
ROOT
ATOM      1  C   UNL     1       2.722   8.255  17.890  0.00  0.00    +0.000 C 
ATOM      2  C   UNL     1       2.531   7.086  18.822  0.00  0.00    +0.000 A 
ATOM      3  C   UNL     1       1.816   7.207  20.032  0.00  0.00    +0.000 A 
ATOM      4  C   UNL     1       1.601   6.079  20.836  0.00  0.00    +0.000 A 
ATOM      5  C   UNL     1       2.095   4.833  20.453  0.00  0.00    +0.000 A 
ATOM      6  C   UNL     1       2.835   4.716  19.280  0.00  0.00    +0.000 A 
ATOM      7  C   UNL     1       3.391   3.414  18.895  0.00  0.00    +0.000 A 
ATOM      8  O   UNL     1       3.155   2.387  19.515  0.00  0.00    +0.000 OA
ATOM      9  C   UNL     1       4.275   3.401  17.718  0.00  0.00    +0.000 A 
ATOM     10  C   UNL     1       4.449   4.540  17.041  0.00  0.00    +0.000 A 
ATOM     11  O   UNL     1       3.837   5.748  17.334  0.00  0.00    +0.000 OA
ATOM     12  C   UNL     1       3.067   5.831  18.475  0.00  0.00    +0.000 A 
ENDROOT
BRANCH  10  13
ATOM     13  C   UNL     1       5.368   4.596  15.903  0.00  0.00    +0.000 A 
ATOM     14  C   UNL     1       6.554   5.332  15.982  0.00  0.00    +0.000 A 
ATOM     15  C   UNL     1       7.443   5.346  14.905  0.00  0.00    +0.000 A 
ATOM     16  C   UNL     1       7.145   4.633  13.743  0.00  0.00    +0.000 A 
ATOM     17  C   UNL     1       5.951   3.919  13.648  0.00  0.00    +0.000 A 
ATOM     18  C   UNL     1       5.063   3.901  14.725  0.00  0.00    +0.000 A 
ENDBRANCH  10  13
BRANCH   3  19
ATOM     19  O   UNL     1       1.378   8.463  20.361  0.00  0.00    +0.000 OA
BRANCH  19  20
ATOM     20  C   UNL     1       1.326   8.805  21.747  0.00  0.00    +0.000 C 
BRANCH  20  21
ATOM     21  C   UNL     1      -0.131   9.010  22.152  0.00  0.00    +0.000 C 
BRANCH  21  22
ATOM     22  C   UNL     1      -0.526  10.487  22.036  0.00  0.00    +0.000 C 
BRANCH  22  23
ATOM     23  C   UNL     1       0.499  11.281  21.230  0.00  0.00    +0.000 C 
BRANCH  23  24
ATOM     24  N   UNL     1       0.014  11.755  19.947  0.00  0.00    +0.000 NA
ATOM     25  C   UNL     1       0.234  10.945  18.759  0.00  0.00    +0.000 C 
ATOM     26  C   UNL     1      -1.044  10.361  18.154  0.00  0.00    +0.000 C 
ATOM     27  C   UNL     1      -2.148  11.404  18.015  0.00  0.00    +0.000 C 
ATOM     28  C   UNL     1      -2.376  12.104  19.350  0.00  0.00    +0.000 C 
ATOM     29  C   UNL     1      -1.087  12.706  19.929  0.00  0.00    +0.000 C 
ATOM     30  C   UNL     1      -0.627  13.940  19.141  0.00  0.00    +0.000 C 
ENDBRANCH  23  24
ENDBRANCH  22  23
ENDBRANCH  21  22
ENDBRANCH  20  21
ENDBRANCH  19  20
ENDBRANCH   3  19
TORSDOF 7
ENDMDL
MODEL 3
REMARK VINA RESULT:      -7.8      3.220      4.941
REMARK  Name = 
REMARK  9 active torsions:
REMARK  status: ('A' for Active; 'I' for Inactive)
REMARK    1  A    between atoms: C_1  and  C_2
REMARK    2  A    between atoms: C_3  and  O_4
REMARK    3  A    between atoms: O_4  and  C_5
REMARK    4  A    between atoms: C_5  and  C_6
REMARK    5  A    between atoms: C_6  and  C_7
REMARK    6  A    between atoms: C_7  and  C_8
REMARK    7  A    between atoms: C_8  and  N_9
REMARK    8  A    between atoms: C_14  and  C_15
REMARK    9  A    between atoms: C_22  and  C_23
REMARK                            x       y       z     vdW  Elec       q    Type
REMARK                         _______ _______ _______ _____ _____    ______ ____
ROOT
ATOM      1  C   UNL     1      -0.117   8.978  22.708  0.00  0.00    +0.000 C 
ATOM      2  C   UNL     1       0.081   9.668  21.383  0.00  0.00    +0.000 A 
ATOM      3  C   UNL     1      -0.504  10.920  21.101  0.00  0.00    +0.000 A 
ATOM      4  C   UNL     1      -0.237  11.561  19.882  0.00  0.00    +0.000 A 
ATOM      5  C   UNL     1       0.600  10.966  18.939  0.00  0.00    +0.000 A 
ATOM      6  C   UNL     1       1.148   9.713  19.197  0.00  0.00    +0.000 A 
ATOM      7  C   UNL     1       1.995   9.066  18.189  0.00  0.00    +0.000 A 
ATOM      8  O   UNL     1       2.329   9.622  17.153  0.00  0.00    +0.000 OA
ATOM      9  C   UNL     1       2.421   7.687  18.478  0.00  0.00    +0.000 A 
ATOM     10  C   UNL     1       2.081   7.150  19.654  0.00  0.00    +0.000 A 
ATOM     11  O   UNL     1       1.375   7.796  20.656  0.00  0.00    +0.000 OA
ATOM     12  C   UNL     1       0.883   9.058  20.399  0.00  0.00    +0.000 A 
ENDROOT
BRANCH  10  13
ATOM     13  C   UNL     1       2.424   5.761  19.964  0.00  0.00    +0.000 A 
ATOM     14  C   UNL     1       1.588   4.986  20.775  0.00  0.00    +0.000 A 
ATOM     15  C   UNL     1       1.904   3.651  21.032  0.00  0.00    +0.000 A 
ATOM     16  C   UNL     1       3.060   3.088  20.488  0.00  0.00    +0.000 A 
ATOM     17  C   UNL     1       3.911   3.863  19.702  0.00  0.00    +0.000 A 
ATOM     18  C   UNL     1       3.594   5.198  19.441  0.00  0.00    +0.000 A 
ENDBRANCH  10  13
BRANCH   3  19
ATOM     19  O   UNL     1      -1.334  11.439  22.059  0.00  0.00    +0.000 OA
BRANCH  19  20
ATOM     20  C   UNL     1      -1.004  12.719  22.601  0.00  0.00    +0.000 C 
BRANCH  20  21
ATOM     21  C   UNL     1      -2.081  13.124  23.605  0.00  0.00    +0.000 C 
BRANCH  21  22
ATOM     22  C   UNL     1      -3.359  12.305  23.392  0.00  0.00    +0.000 C 
BRANCH  22  23
ATOM     23  C   UNL     1      -4.508  12.825  24.254  0.00  0.00    +0.000 C 
BRANCH  23  24
ATOM     24  N   UNL     1      -5.691  13.209  23.505  0.00  0.00    +0.000 NA
ATOM     25  C   UNL     1      -5.601  13.367  22.063  0.00  0.00    +0.000 C 
ATOM     26  C   UNL     1      -6.385  12.320  21.268  0.00  0.00    +0.000 C 
ATOM     27  C   UNL     1      -7.802  12.133  21.798  0.00  0.00    +0.000 C 
ATOM     28  C   UNL     1      -7.767  11.852  23.296  0.00  0.00    +0.000 C 
ATOM     29  C   UNL     1      -6.999  12.927  24.080  0.00  0.00    +0.000 C 
ATOM     30  C   UNL     1      -7.774  14.248  24.150  0.00  0.00    +0.000 C 
ENDBRANCH  23  24
ENDBRANCH  22  23
ENDBRANCH  21  22
ENDBRANCH  20  21
ENDBRANCH  19  20
ENDBRANCH   3  19
TORSDOF 7
ENDMDL
MODEL 4
REMARK VINA RESULT:      -7.7      2.045      3.102
REMARK  Name = 
REMARK  9 active torsions:
REMARK  status: ('A' for Active; 'I' for Inactive)
REMARK    1  A    between atoms: C_1  and  C_2
REMARK    2  A    between atoms: C_3  and  O_4
REMARK    3  A    between atoms: O_4  and  C_5
REMARK    4  A    between atoms: C_5  and  C_6
REMARK    5  A    between atoms: C_6  and  C_7
REMARK    6  A    between atoms: C_7  and  C_8
REMARK    7  A    between atoms: C_8  and  N_9
REMARK    8  A    between atoms: C_14  and  C_15
REMARK    9  A    between atoms: C_22  and  C_23
REMARK                            x       y       z     vdW  Elec       q    Type
REMARK                         _______ _______ _______ _____ _____    ______ ____
ROOT
ATOM      1  C   UNL     1       2.796   8.204  17.898  0.00  0.00    +0.000 C 
ATOM      2  C   UNL     1       2.555   7.008  18.784  0.00  0.00    +0.000 A 
ATOM      3  C   UNL     1       1.832   7.111  19.991  0.00  0.00    +0.000 A 
ATOM      4  C   UNL     1       1.570   5.962  20.751  0.00  0.00    +0.000 A 
ATOM      5  C   UNL     1       2.024   4.714  20.326  0.00  0.00    +0.000 A 
ATOM      6  C   UNL     1       2.771   4.614  19.156  0.00  0.00    +0.000 A 
ATOM      7  C   UNL     1       3.285   3.309  18.728  0.00  0.00    +0.000 A 
ATOM      8  O   UNL     1       3.007   2.269  19.308  0.00  0.00    +0.000 OA
ATOM      9  C   UNL     1       4.180   3.307  17.560  0.00  0.00    +0.000 A 
ATOM     10  C   UNL     1       4.400   4.464  16.927  0.00  0.00    +0.000 A 
ATOM     11  O   UNL     1       3.828   5.681  17.259  0.00  0.00    +0.000 OA
ATOM     12  C   UNL     1       3.050   5.749  18.395  0.00  0.00    +0.000 A 
ENDROOT
BRANCH  10  13
ATOM     13  C   UNL     1       5.332   4.529  15.799  0.00  0.00    +0.000 A 
ATOM     14  C   UNL     1       6.561   5.183  15.929  0.00  0.00    +0.000 A 
ATOM     15  C   UNL     1       7.459   5.205  14.861  0.00  0.00    +0.000 A 
ATOM     16  C   UNL     1       7.129   4.581  13.657  0.00  0.00    +0.000 A 
ATOM     17  C   UNL     1       5.894   3.951  13.512  0.00  0.00    +0.000 A 
ATOM     18  C   UNL     1       4.996   3.926  14.581  0.00  0.00    +0.000 A 
ENDBRANCH  10  13
BRANCH   3  19
ATOM     19  O   UNL     1       1.435   8.368  20.363  0.00  0.00    +0.000 OA
BRANCH  19  20
ATOM     20  C   UNL     1       1.256   8.622  21.757  0.00  0.00    +0.000 C 
BRANCH  20  21
ATOM     21  C   UNL     1      -0.187   9.057  22.000  0.00  0.00    +0.000 C 
BRANCH  21  22
ATOM     22  C   UNL     1      -0.256  10.134  23.088  0.00  0.00    +0.000 C 
BRANCH  22  23
ATOM     23  C   UNL     1      -1.404  11.111  22.841  0.00  0.00    +0.000 C 
BRANCH  23  24
ATOM     24  N   UNL     1      -1.152  12.074  21.785  0.00  0.00    +0.000 NA
ATOM     25  C   UNL     1       0.202  12.561  21.573  0.00  0.00    +0.000 C 
ATOM     26  C   UNL     1       0.830  12.112  20.252  0.00  0.00    +0.000 C 
ATOM     27  C   UNL     1      -0.109  12.313  19.067  0.00  0.00    +0.000 C 
ATOM     28  C   UNL     1      -1.456  11.657  19.350  0.00  0.00    +0.000 C 
ATOM     29  C   UNL     1      -2.082  12.140  20.667  0.00  0.00    +0.000 C 
ATOM     30  C   UNL     1      -2.590  13.583  20.564  0.00  0.00    +0.000 C 
ENDBRANCH  23  24
ENDBRANCH  22  23
ENDBRANCH  21  22
ENDBRANCH  20  21
ENDBRANCH  19  20
ENDBRANCH   3  19
TORSDOF 7
ENDMDL
MODEL 5
REMARK VINA RESULT:      -7.7      1.064      1.685
REMARK  Name = 
REMARK  9 active torsions:
REMARK  status: ('A' for Active; 'I' for Inactive)
REMARK    1  A    between atoms: C_1  and  C_2
REMARK    2  A    between atoms: C_3  and  O_4
REMARK    3  A    between atoms: O_4  and  C_5
REMARK    4  A    between atoms: C_5  and  C_6
REMARK    5  A    between atoms: C_6  and  C_7
REMARK    6  A    between atoms: C_7  and  C_8
REMARK    7  A    between atoms: C_8  and  N_9
REMARK    8  A    between atoms: C_14  and  C_15
REMARK    9  A    between atoms: C_22  and  C_23
REMARK                            x       y       z     vdW  Elec       q    Type
REMARK                         _______ _______ _______ _____ _____    ______ ____
ROOT
ATOM      1  C   UNL     1       2.312   9.185  17.710  0.00  0.00    +0.000 C 
ATOM      2  C   UNL     1       1.947   8.442  18.969  0.00  0.00    +0.000 A 
ATOM      3  C   UNL     1       1.099   9.006  19.946  0.00  0.00    +0.000 A 
ATOM      4  C   UNL     1       0.727   8.255  21.070  0.00  0.00    +0.000 A 
ATOM      5  C   UNL     1       1.194   6.951  21.236  0.00  0.00    +0.000 A 
ATOM      6  C   UNL     1       2.062   6.405  20.294  0.00  0.00    +0.000 A 
ATOM      7  C   UNL     1       2.587   5.049  20.487  0.00  0.00    +0.000 A 
ATOM      8  O   UNL     1       2.222   4.325  21.401  0.00  0.00    +0.000 OA
ATOM      9  C   UNL     1       3.604   4.597  19.524  0.00  0.00    +0.000 A 
ATOM     10  C   UNL     1       3.921   5.406  18.508  0.00  0.00    +0.000 A 
ATOM     11  O   UNL     1       3.346   6.641  18.257  0.00  0.00    +0.000 OA
ATOM     12  C   UNL     1       2.450   7.144  19.177  0.00  0.00    +0.000 A 
ENDROOT
BRANCH  10  13
ATOM     13  C   UNL     1       4.971   5.032  17.559  0.00  0.00    +0.000 A 
ATOM     14  C   UNL     1       6.310   4.994  17.959  0.00  0.00    +0.000 A 
ATOM     15  C   UNL     1       7.300   4.597  17.058  0.00  0.00    +0.000 A 
ATOM     16  C   UNL     1       6.956   4.246  15.752  0.00  0.00    +0.000 A 
ATOM     17  C   UNL     1       5.626   4.307  15.339  0.00  0.00    +0.000 A 
ATOM     18  C   UNL     1       4.635   4.701  16.240  0.00  0.00    +0.000 A 
ENDBRANCH  10  13
BRANCH   3  19
ATOM     19  O   UNL     1       0.695  10.298  19.735  0.00  0.00    +0.000 OA
BRANCH  19  20
ATOM     20  C   UNL     1       0.922  11.243  20.781  0.00  0.00    +0.000 C 
BRANCH  20  21
ATOM     21  C   UNL     1       0.308  12.582  20.379  0.00  0.00    +0.000 C 
BRANCH  21  22
ATOM     22  C   UNL     1       0.367  12.775  18.859  0.00  0.00    +0.000 C 
BRANCH  22  23
ATOM     23  C   UNL     1      -1.014  13.070  18.277  0.00  0.00    +0.000 C 
BRANCH  23  24
ATOM     24  N   UNL     1      -1.914  11.932  18.264  0.00  0.00    +0.000 NA
ATOM     25  C   UNL     1      -2.964  11.844  19.265  0.00  0.00    +0.000 C 
ATOM     26  C   UNL     1      -4.380  11.985  18.701  0.00  0.00    +0.000 C 
ATOM     27  C   UNL     1      -4.603  11.114  17.470  0.00  0.00    +0.000 C 
ATOM     28  C   UNL     1      -3.512  11.380  16.438  0.00  0.00    +0.000 C 
ATOM     29  C   UNL     1      -2.099  11.207  17.015  0.00  0.00    +0.000 C 
ATOM     30  C   UNL     1      -1.763   9.733  17.275  0.00  0.00    +0.000 C 
ENDBRANCH  23  24
ENDBRANCH  22  23
ENDBRANCH  21  22
ENDBRANCH  20  21
ENDBRANCH  19  20
ENDBRANCH   3  19
TORSDOF 7
ENDMDL
MODEL 6
REMARK VINA RESULT:      -7.7      2.374      3.598
REMARK  Name = 
REMARK  9 active torsions:
REMARK  status: ('A' for Active; 'I' for Inactive)
REMARK    1  A    between atoms: C_1  and  C_2
REMARK    2  A    between atoms: C_3  and  O_4
REMARK    3  A    between atoms: O_4  and  C_5
REMARK    4  A    between atoms: C_5  and  C_6
REMARK    5  A    between atoms: C_6  and  C_7
REMARK    6  A    between atoms: C_7  and  C_8
REMARK    7  A    between atoms: C_8  and  N_9
REMARK    8  A    between atoms: C_14  and  C_15
REMARK    9  A    between atoms: C_22  and  C_23
REMARK                            x       y       z     vdW  Elec       q    Type
REMARK                         _______ _______ _______ _____ _____    ______ ____
ROOT
ATOM      1  C   UNL     1       2.874   8.185  17.687  0.00  0.00    +0.000 C 
ATOM      2  C   UNL     1       2.689   7.016  18.619  0.00  0.00    +0.000 A 
ATOM      3  C   UNL     1       2.007   7.145  19.847  0.00  0.00    +0.000 A 
ATOM      4  C   UNL     1       1.794   6.017  20.654  0.00  0.00    +0.000 A 
ATOM      5  C   UNL     1       2.259   4.764  20.254  0.00  0.00    +0.000 A 
ATOM      6  C   UNL     1       2.967   4.640  19.062  0.00  0.00    +0.000 A 
ATOM      7  C   UNL     1       3.493   3.331  18.659  0.00  0.00    +0.000 A 
ATOM      8  O   UNL     1       3.256   2.306  19.282  0.00  0.00    +0.000 OA
ATOM      9  C   UNL     1       4.346   3.307  17.461  0.00  0.00    +0.000 A 
ATOM     10  C   UNL     1       4.520   4.446  16.783  0.00  0.00    +0.000 A 
ATOM     11  O   UNL     1       3.935   5.663  17.095  0.00  0.00    +0.000 OA
ATOM     12  C   UNL     1       3.196   5.754  18.255  0.00  0.00    +0.000 A 
ENDROOT
BRANCH  10  13
ATOM     13  C   UNL     1       5.410   4.492  15.621  0.00  0.00    +0.000 A 
ATOM     14  C   UNL     1       6.612   5.205  15.674  0.00  0.00    +0.000 A 
ATOM     15  C   UNL     1       7.473   5.209  14.574  0.00  0.00    +0.000 A 
ATOM     16  C   UNL     1       7.132   4.508  13.417  0.00  0.00    +0.000 A 
ATOM     17  C   UNL     1       5.923   3.817  13.349  0.00  0.00    +0.000 A 
ATOM     18  C   UNL     1       5.063   3.810  14.449  0.00  0.00    +0.000 A 
ENDBRANCH  10  13
BRANCH   3  19
ATOM     19  O   UNL     1       1.597   8.405  20.192  0.00  0.00    +0.000 OA
BRANCH  19  20
ATOM     20  C   UNL     1       1.252   8.641  21.558  0.00  0.00    +0.000 C 
BRANCH  20  21
ATOM     21  C   UNL     1      -0.257   8.847  21.659  0.00  0.00    +0.000 C 
BRANCH  21  22
ATOM     22  C   UNL     1      -0.655  10.229  21.127  0.00  0.00    +0.000 C 
BRANCH  22  23
ATOM     23  C   UNL     1       0.350  11.301  21.540  0.00  0.00    +0.000 C 
BRANCH  23  24
ATOM     24  N   UNL     1       0.586  12.320  20.534  0.00  0.00    +0.000 NA
ATOM     25  C   UNL     1       1.324  13.519  20.894  0.00  0.00    +0.000 C 
ATOM     26  C   UNL     1       2.694  13.637  20.222  0.00  0.00    +0.000 C 
ATOM     27  C   UNL     1       2.630  13.357  18.724  0.00  0.00    +0.000 C 
ATOM     28  C   UNL     1       1.946  12.018  18.471  0.00  0.00    +0.000 C 
ATOM     29  C   UNL     1       0.562  11.929  19.131  0.00  0.00    +0.000 C 
ATOM     30  C   UNL     1      -0.471  12.810  18.418  0.00  0.00    +0.000 C 
ENDBRANCH  23  24
ENDBRANCH  22  23
ENDBRANCH  21  22
ENDBRANCH  20  21
ENDBRANCH  19  20
ENDBRANCH   3  19
TORSDOF 7
ENDMDL
MODEL 7
REMARK VINA RESULT:      -7.6      2.190      3.575
REMARK  Name = 
REMARK  9 active torsions:
REMARK  status: ('A' for Active; 'I' for Inactive)
REMARK    1  A    between atoms: C_1  and  C_2
REMARK    2  A    between atoms: C_3  and  O_4
REMARK    3  A    between atoms: O_4  and  C_5
REMARK    4  A    between atoms: C_5  and  C_6
REMARK    5  A    between atoms: C_6  and  C_7
REMARK    6  A    between atoms: C_7  and  C_8
REMARK    7  A    between atoms: C_8  and  N_9
REMARK    8  A    between atoms: C_14  and  C_15
REMARK    9  A    between atoms: C_22  and  C_23
REMARK                            x       y       z     vdW  Elec       q    Type
REMARK                         _______ _______ _______ _____ _____    ______ ____
ROOT
ATOM      1  C   UNL     1       2.859   8.255  17.895  0.00  0.00    +0.000 C 
ATOM      2  C   UNL     1       2.608   7.063  18.782  0.00  0.00    +0.000 A 
ATOM      3  C   UNL     1       1.900   7.175  19.997  0.00  0.00    +0.000 A 
ATOM      4  C   UNL     1       1.627   6.030  20.759  0.00  0.00    +0.000 A 
ATOM      5  C   UNL     1       2.055   4.775  20.327  0.00  0.00    +0.000 A 
ATOM      6  C   UNL     1       2.788   4.665  19.149  0.00  0.00    +0.000 A 
ATOM      7  C   UNL     1       3.276   3.351  18.714  0.00  0.00    +0.000 A 
ATOM      8  O   UNL     1       2.987   2.315  19.295  0.00  0.00    +0.000 OA
ATOM      9  C   UNL     1       4.158   3.337  17.536  0.00  0.00    +0.000 A 
ATOM     10  C   UNL     1       4.390   4.491  16.902  0.00  0.00    +0.000 A 
ATOM     11  O   UNL     1       3.842   5.717  17.242  0.00  0.00    +0.000 OA
ATOM     12  C   UNL     1       3.078   5.796  18.387  0.00  0.00    +0.000 A 
ENDROOT
BRANCH  10  13
ATOM     13  C   UNL     1       5.310   4.542  15.764  0.00  0.00    +0.000 A 
ATOM     14  C   UNL     1       6.489   5.292  15.836  0.00  0.00    +0.000 A 
ATOM     15  C   UNL     1       7.379   5.302  14.760  0.00  0.00    +0.000 A 
ATOM     16  C   UNL     1       7.091   4.571  13.607  0.00  0.00    +0.000 A 
ATOM     17  C   UNL     1       5.905   3.843  13.519  0.00  0.00    +0.000 A 
ATOM     18  C   UNL     1       5.016   3.830  14.595  0.00  0.00    +0.000 A 
ENDBRANCH  10  13
BRANCH   3  19
ATOM     19  O   UNL     1       1.528   8.438  20.376  0.00  0.00    +0.000 OA
BRANCH  19  20
ATOM     20  C   UNL     1       0.512   8.560  21.373  0.00  0.00    +0.000 C 
BRANCH  20  21
ATOM     21  C   UNL     1      -0.269   9.849  21.129  0.00  0.00    +0.000 C 
BRANCH  21  22
ATOM     22  C   UNL     1      -0.458  10.096  19.627  0.00  0.00    +0.000 C 
BRANCH  22  23
ATOM     23  C   UNL     1      -0.707  11.572  19.328  0.00  0.00    +0.000 C 
BRANCH  23  24
ATOM     24  N   UNL     1       0.405  12.445  19.653  0.00  0.00    +0.000 NA
ATOM     25  C   UNL     1       1.715  12.173  19.083  0.00  0.00    +0.000 C 
ATOM     26  C   UNL     1       2.191  13.224  18.078  0.00  0.00    +0.000 C 
ATOM     27  C   UNL     1       2.008  14.646  18.598  0.00  0.00    +0.000 C 
ATOM     28  C   UNL     1       0.569  14.855  19.055  0.00  0.00    +0.000 C 
ATOM     29  C   UNL     1       0.118  13.806  20.082  0.00  0.00    +0.000 C 
ATOM     30  C   UNL     1       0.785  14.018  21.447  0.00  0.00    +0.000 C 
ENDBRANCH  23  24
ENDBRANCH  22  23
ENDBRANCH  21  22
ENDBRANCH  20  21
ENDBRANCH  19  20
ENDBRANCH   3  19
TORSDOF 7
ENDMDL
MODEL 8
REMARK VINA RESULT:      -7.6      2.721      3.666
REMARK  Name = 
REMARK  9 active torsions:
REMARK  status: ('A' for Active; 'I' for Inactive)
REMARK    1  A    between atoms: C_1  and  C_2
REMARK    2  A    between atoms: C_3  and  O_4
REMARK    3  A    between atoms: O_4  and  C_5
REMARK    4  A    between atoms: C_5  and  C_6
REMARK    5  A    between atoms: C_6  and  C_7
REMARK    6  A    between atoms: C_7  and  C_8
REMARK    7  A    between atoms: C_8  and  N_9
REMARK    8  A    between atoms: C_14  and  C_15
REMARK    9  A    between atoms: C_22  and  C_23
REMARK                            x       y       z     vdW  Elec       q    Type
REMARK                         _______ _______ _______ _____ _____    ______ ____
ROOT
ATOM      1  C   UNL     1       2.860   8.220  17.871  0.00  0.00    +0.000 C 
ATOM      2  C   UNL     1       2.604   7.051  18.788  0.00  0.00    +0.000 A 
ATOM      3  C   UNL     1       1.888   7.195  19.995  0.00  0.00    +0.000 A 
ATOM      4  C   UNL     1       1.611   6.069  20.784  0.00  0.00    +0.000 A 
ATOM      5  C   UNL     1       2.044   4.805  20.389  0.00  0.00    +0.000 A 
ATOM      6  C   UNL     1       2.785   4.664  19.219  0.00  0.00    +0.000 A 
ATOM      7  C   UNL     1       3.277   3.341  18.822  0.00  0.00    +0.000 A 
ATOM      8  O   UNL     1       2.986   2.320  19.428  0.00  0.00    +0.000 OA
ATOM      9  C   UNL     1       4.168   3.296  17.651  0.00  0.00    +0.000 A 
ATOM     10  C   UNL     1       4.403   4.433  16.988  0.00  0.00    +0.000 A 
ATOM     11  O   UNL     1       3.850   5.667  17.292  0.00  0.00    +0.000 OA
ATOM     12  C   UNL     1       3.079   5.775  18.429  0.00  0.00    +0.000 A 
ENDROOT
BRANCH  10  13
ATOM     13  C   UNL     1       5.330   4.456  15.856  0.00  0.00    +0.000 A 
ATOM     14  C   UNL     1       4.998   3.828  14.651  0.00  0.00    +0.000 A 
ATOM     15  C   UNL     1       5.872   3.889  13.565  0.00  0.00    +0.000 A 
ATOM     16  C   UNL     1       7.084   4.571  13.680  0.00  0.00    +0.000 A 
ATOM     17  C   UNL     1       7.433   5.177  14.886  0.00  0.00    +0.000 A 
ATOM     18  C   UNL     1       6.559   5.118  15.973  0.00  0.00    +0.000 A 
ENDBRANCH  10  13
BRANCH   3  19
ATOM     19  O   UNL     1       1.511   8.467  20.337  0.00  0.00    +0.000 OA
BRANCH  19  20
ATOM     20  C   UNL     1       1.188   8.718  21.705  0.00  0.00    +0.000 C 
BRANCH  20  21
ATOM     21  C   UNL     1      -0.293   9.073  21.806  0.00  0.00    +0.000 C 
BRANCH  21  22
ATOM     22  C   UNL     1      -0.519  10.177  22.846  0.00  0.00    +0.000 C 
BRANCH  22  23
ATOM     23  C   UNL     1      -0.400  11.567  22.225  0.00  0.00    +0.000 C 
BRANCH  23  24
ATOM     24  N   UNL     1      -1.363  12.530  22.727  0.00  0.00    +0.000 NA
ATOM     25  C   UNL     1      -0.944  13.904  22.952  0.00  0.00    +0.000 C 
ATOM     26  C   UNL     1      -1.587  14.919  22.004  0.00  0.00    +0.000 C 
ATOM     27  C   UNL     1      -3.095  14.727  21.887  0.00  0.00    +0.000 C 
ATOM     28  C   UNL     1      -3.411  13.279  21.528  0.00  0.00    +0.000 C 
ATOM     29  C   UNL     1      -2.779  12.277  22.506  0.00  0.00    +0.000 C 
ATOM     30  C   UNL     1      -3.476  12.293  23.872  0.00  0.00    +0.000 C 
ENDBRANCH  23  24
ENDBRANCH  22  23
ENDBRANCH  21  22
ENDBRANCH  20  21
ENDBRANCH  19  20
ENDBRANCH   3  19
TORSDOF 7
ENDMDL
MODEL 9
REMARK VINA RESULT:      -7.6      2.392      3.806
REMARK  Name = 
REMARK  9 active torsions:
REMARK  status: ('A' for Active; 'I' for Inactive)
REMARK    1  A    between atoms: C_1  and  C_2
REMARK    2  A    between atoms: C_3  and  O_4
REMARK    3  A    between atoms: O_4  and  C_5
REMARK    4  A    between atoms: C_5  and  C_6
REMARK    5  A    between atoms: C_6  and  C_7
REMARK    6  A    between atoms: C_7  and  C_8
REMARK    7  A    between atoms: C_8  and  N_9
REMARK    8  A    between atoms: C_14  and  C_15
REMARK    9  A    between atoms: C_22  and  C_23
REMARK                            x       y       z     vdW  Elec       q    Type
REMARK                         _______ _______ _______ _____ _____    ______ ____
ROOT
ATOM      1  C   UNL     1       2.718   8.222  17.890  0.00  0.00    +0.000 C 
ATOM      2  C   UNL     1       2.531   7.049  18.818  0.00  0.00    +0.000 A 
ATOM      3  C   UNL     1       1.828   7.168  20.035  0.00  0.00    +0.000 A 
ATOM      4  C   UNL     1       1.615   6.036  20.836  0.00  0.00    +0.000 A 
ATOM      5  C   UNL     1       2.101   4.790  20.442  0.00  0.00    +0.000 A 
ATOM      6  C   UNL     1       2.830   4.676  19.262  0.00  0.00    +0.000 A 
ATOM      7  C   UNL     1       3.378   3.374  18.866  0.00  0.00    +0.000 A 
ATOM      8  O   UNL     1       3.143   2.345  19.483  0.00  0.00    +0.000 OA
ATOM      9  C   UNL     1       4.251   3.363  17.682  0.00  0.00    +0.000 A 
ATOM     10  C   UNL     1       4.423   4.505  17.008  0.00  0.00    +0.000 A 
ATOM     11  O   UNL     1       3.818   5.714  17.312  0.00  0.00    +0.000 OA
ATOM     12  C   UNL     1       3.059   5.794  18.460  0.00  0.00    +0.000 A 
ENDROOT
BRANCH  10  13
ATOM     13  C   UNL     1       5.331   4.563  15.861  0.00  0.00    +0.000 A 
ATOM     14  C   UNL     1       6.530   5.278  15.939  0.00  0.00    +0.000 A 
ATOM     15  C   UNL     1       7.408   5.294  14.854  0.00  0.00    +0.000 A 
ATOM     16  C   UNL     1       7.088   4.603  13.685  0.00  0.00    +0.000 A 
ATOM     17  C   UNL     1       5.882   3.909  13.591  0.00  0.00    +0.000 A 
ATOM     18  C   UNL     1       5.005   3.890  14.677  0.00  0.00    +0.000 A 
ENDBRANCH  10  13
BRANCH   3  19
ATOM     19  O   UNL     1       1.397   8.423  20.375  0.00  0.00    +0.000 OA
BRANCH  19  20
ATOM     20  C   UNL     1       1.287   8.734  21.764  0.00  0.00    +0.000 C 
BRANCH  20  21
ATOM     21  C   UNL     1      -0.173   9.042  22.088  0.00  0.00    +0.000 C 
BRANCH  21  22
ATOM     22  C   UNL     1      -0.434  10.552  22.042  0.00  0.00    +0.000 C 
BRANCH  22  23
ATOM     23  C   UNL     1      -1.373  10.994  23.162  0.00  0.00    +0.000 C 
BRANCH  23  24
ATOM     24  N   UNL     1      -2.340  12.002  22.769  0.00  0.00    +0.000 NA
ATOM     25  C   UNL     1      -3.376  12.400  23.708  0.00  0.00    +0.000 C 
ATOM     26  C   UNL     1      -3.242  13.838  24.216  0.00  0.00    +0.000 C 
ATOM     27  C   UNL     1      -2.996  14.830  23.084  0.00  0.00    +0.000 C 
ATOM     28  C   UNL     1      -1.812  14.376  22.238  0.00  0.00    +0.000 C 
ATOM     29  C   UNL     1      -1.977  12.940  21.716  0.00  0.00    +0.000 C 
ATOM     30  C   UNL     1      -3.044  12.849  20.619  0.00  0.00    +0.000 C 
ENDBRANCH  23  24
ENDBRANCH  22  23
ENDBRANCH  21  22
ENDBRANCH  20  21
ENDBRANCH  19  20
ENDBRANCH   3  19
TORSDOF 7
ENDMDL
