MODEL 1
REMARK VINA RESULT:      -7.8      0.000      0.000
REMARK  Name = 
REMARK  5 active torsions:
REMARK  status: ('A' for Active; 'I' for Inactive)
REMARK    1  A    between atoms: C_1  and  C_2
REMARK    2  A    between atoms: C_2  and  C_13
REMARK    3  A    between atoms: N_3  and  N_4
REMARK    4  A    between atoms: C_5  and  C_7
REMARK    5  A    between atoms: C_16  and  N_17
REMARK                            x       y       z     vdW  Elec       q    Type
REMARK                         _______ _______ _______ _____ _____    ______ ____
ROOT
ATOM      1  C   UNL     1       2.445   5.314  19.961  0.00  0.00    +0.000 C 
ATOM      2  C   UNL     1       2.884   6.360  18.954  0.00  0.00    +0.000 C 
ATOM      3  N   UNL     1       2.579   7.624  19.001  0.00  0.00    +0.000 NA
ENDROOT
BRANCH   2   4
ATOM      4  C   UNL     1       3.718   5.880  17.794  0.00  0.00    +0.000 A 
ATOM      5  C   UNL     1       3.806   4.523  17.468  0.00  0.00    +0.000 A 
ATOM      6  C   UNL     1       4.541   4.102  16.353  0.00  0.00    +0.000 A 
ATOM      7  C   UNL     1       5.206   5.031  15.542  0.00  0.00    +0.000 A 
ATOM      8  C   UNL     1       5.147   6.388  15.889  0.00  0.00    +0.000 A 
ATOM      9  C   UNL     1       4.407   6.807  17.003  0.00  0.00    +0.000 A 
BRANCH   7  10
ATOM     10  N   UNL     1       5.911   4.597  14.378  0.00  0.00    +0.000 N 
ATOM     11  C   UNL     1       5.467   3.686  13.434  0.00  0.00    +0.000 A 
ATOM     12  C   UNL     1       6.419   3.540  12.451  0.00  0.00    +0.000 A 
ATOM     13  C   UNL     1       7.496   4.381  12.788  0.00  0.00    +0.000 A 
ATOM     14  C   UNL     1       7.163   5.019  13.963  0.00  0.00    +0.000 A 
ENDBRANCH   7  10
ENDBRANCH   2   4
BRANCH   3  15
ATOM     15  N   UNL     1       1.822   8.129  20.009  0.00  0.00    +0.000 N 
ATOM     16  C   UNL     1       0.971   9.198  19.755  0.00  0.00    +0.000 C 
ATOM     17  O   UNL     1       0.818   9.734  18.659  0.00  0.00    +0.000 OA
ATOM     18  H   UNL     1       1.970   7.821  20.956  0.00  0.00    +0.000 HD
BRANCH  16  19
ATOM     19  C   UNL     1       0.241   9.738  20.938  0.00  0.00    +0.000 A 
ATOM     20  C   UNL     1      -0.395  10.981  20.808  0.00  0.00    +0.000 A 
ATOM     21  C   UNL     1      -1.069  11.546  21.892  0.00  0.00    +0.000 A 
ATOM     22  C   UNL     1      -1.123  10.869  23.108  0.00  0.00    +0.000 A 
ATOM     23  C   UNL     1      -0.514   9.620  23.240  0.00  0.00    +0.000 A 
ATOM     24  C   UNL     1       0.161   9.050  22.157  0.00  0.00    +0.000 A 
ENDBRANCH  16  19
ENDBRANCH   3  15
TORSDOF 4
ENDMDL
MODEL 2
REMARK VINA RESULT:      -7.7      0.090      1.273
REMARK  Name = 
REMARK  5 active torsions:
REMARK  status: ('A' for Active; 'I' for Inactive)
REMARK    1  A    between atoms: C_1  and  C_2
REMARK    2  A    between atoms: C_2  and  C_13
REMARK    3  A    between atoms: N_3  and  N_4
REMARK    4  A    between atoms: C_5  and  C_7
REMARK    5  A    between atoms: C_16  and  N_17
REMARK                            x       y       z     vdW  Elec       q    Type
REMARK                         _______ _______ _______ _____ _____    ______ ____
ROOT
ATOM      1  C   UNL     1       2.424   5.387  19.991  0.00  0.00    +0.000 C 
ATOM      2  C   UNL     1       2.853   6.420  18.966  0.00  0.00    +0.000 C 
ATOM      3  N   UNL     1       2.543   7.682  18.996  0.00  0.00    +0.000 NA
ENDROOT
BRANCH   2   4
ATOM      4  C   UNL     1       3.682   5.926  17.809  0.00  0.00    +0.000 A 
ATOM      5  C   UNL     1       3.731   4.570  17.469  0.00  0.00    +0.000 A 
ATOM      6  C   UNL     1       4.462   4.137  16.357  0.00  0.00    +0.000 A 
ATOM      7  C   UNL     1       5.162   5.054  15.560  0.00  0.00    +0.000 A 
ATOM      8  C   UNL     1       5.142   6.408  15.921  0.00  0.00    +0.000 A 
ATOM      9  C   UNL     1       4.406   6.839  17.033  0.00  0.00    +0.000 A 
BRANCH   7  10
ATOM     10  N   UNL     1       5.864   4.610  14.398  0.00  0.00    +0.000 N 
ATOM     11  C   UNL     1       7.138   4.989  14.006  0.00  0.00    +0.000 A 
ATOM     12  C   UNL     1       7.475   4.335  12.844  0.00  0.00    +0.000 A 
ATOM     13  C   UNL     1       6.381   3.523  12.490  0.00  0.00    +0.000 A 
ATOM     14  C   UNL     1       5.413   3.703  13.454  0.00  0.00    +0.000 A 
ENDBRANCH   7  10
ENDBRANCH   2   4
BRANCH   3  15
ATOM     15  N   UNL     1       1.790   8.200  20.001  0.00  0.00    +0.000 N 
ATOM     16  C   UNL     1       0.962   9.286  19.745  0.00  0.00    +0.000 C 
ATOM     17  O   UNL     1       0.827   9.828  18.651  0.00  0.00    +0.000 OA
ATOM     18  H   UNL     1       1.926   7.886  20.948  0.00  0.00    +0.000 HD
BRANCH  16  19
ATOM     19  C   UNL     1       0.236   9.837  20.926  0.00  0.00    +0.000 A 
ATOM     20  C   UNL     1       0.275   9.107  22.123  0.00  0.00    +0.000 A 
ATOM     21  C   UNL     1      -0.409   9.563  23.251  0.00  0.00    +0.000 A 
ATOM     22  C   UNL     1      -1.128  10.755  23.195  0.00  0.00    +0.000 A 
ATOM     23  C   UNL     1      -1.152  11.501  22.015  0.00  0.00    +0.000 A 
ATOM     24  C   UNL     1      -0.467  11.049  20.884  0.00  0.00    +0.000 A 
ENDBRANCH  16  19
ENDBRANCH   3  15
TORSDOF 4
ENDMDL
MODEL 3
REMARK VINA RESULT:      -7.3      0.344      1.061
REMARK  Name = 
REMARK  5 active torsions:
REMARK  status: ('A' for Active; 'I' for Inactive)
REMARK    1  A    between atoms: C_1  and  C_2
REMARK    2  A    between atoms: C_2  and  C_13
REMARK    3  A    between atoms: N_3  and  N_4
REMARK    4  A    between atoms: C_5  and  C_7
REMARK    5  A    between atoms: C_16  and  N_17
REMARK                            x       y       z     vdW  Elec       q    Type
REMARK                         _______ _______ _______ _____ _____    ______ ____
ROOT
ATOM      1  C   UNL     1       3.101   5.443  19.939  0.00  0.00    +0.000 C 
ATOM      2  C   UNL     1       3.095   6.402  18.763  0.00  0.00    +0.000 C 
ATOM      3  N   UNL     1       2.479   7.546  18.730  0.00  0.00    +0.000 NA
ENDROOT
BRANCH   2   4
ATOM      4  C   UNL     1       3.846   5.971  17.530  0.00  0.00    +0.000 A 
ATOM      5  C   UNL     1       4.464   6.899  16.686  0.00  0.00    +0.000 A 
ATOM      6  C   UNL     1       5.203   6.475  15.576  0.00  0.00    +0.000 A 
ATOM      7  C   UNL     1       5.339   5.111  15.285  0.00  0.00    +0.000 A 
ATOM      8  C   UNL     1       4.692   4.182  16.111  0.00  0.00    +0.000 A 
ATOM      9  C   UNL     1       3.954   4.609  17.224  0.00  0.00    +0.000 A 
BRANCH   7  10
ATOM     10  N   UNL     1       6.138   4.686  14.180  0.00  0.00    +0.000 N 
ATOM     11  C   UNL     1       5.822   3.695  13.265  0.00  0.00    +0.000 A 
ATOM     12  C   UNL     1       6.833   3.587  12.337  0.00  0.00    +0.000 A 
ATOM     13  C   UNL     1       7.815   4.534  12.680  0.00  0.00    +0.000 A 
ATOM     14  C   UNL     1       7.369   5.196  13.803  0.00  0.00    +0.000 A 
ENDBRANCH   7  10
ENDBRANCH   2   4
BRANCH   3  15
ATOM     15  N   UNL     1       1.772   7.998  19.799  0.00  0.00    +0.000 N 
ATOM     16  C   UNL     1       1.084   9.201  19.704  0.00  0.00    +0.000 C 
ATOM     17  O   UNL     1       1.035   9.910  18.702  0.00  0.00    +0.000 OA
ATOM     18  H   UNL     1       1.851   7.534  20.690  0.00  0.00    +0.000 HD
BRANCH  16  19
ATOM     19  C   UNL     1       0.404   9.656  20.952  0.00  0.00    +0.000 A 
ATOM     20  C   UNL     1      -0.433  10.778  20.873  0.00  0.00    +0.000 A 
ATOM     21  C   UNL     1      -1.072  11.264  22.016  0.00  0.00    +0.000 A 
ATOM     22  C   UNL     1      -0.889  10.626  23.241  0.00  0.00    +0.000 A 
ATOM     23  C   UNL     1      -0.077   9.494  23.324  0.00  0.00    +0.000 A 
ATOM     24  C   UNL     1       0.564   9.003  22.182  0.00  0.00    +0.000 A 
ENDBRANCH  16  19
ENDBRANCH   3  15
TORSDOF 4
ENDMDL
MODEL 4
REMARK VINA RESULT:      -7.3      2.602      4.701
REMARK  Name = 
REMARK  5 active torsions:
REMARK  status: ('A' for Active; 'I' for Inactive)
REMARK    1  A    between atoms: C_1  and  C_2
REMARK    2  A    between atoms: C_2  and  C_13
REMARK    3  A    between atoms: N_3  and  N_4
REMARK    4  A    between atoms: C_5  and  C_7
REMARK    5  A    between atoms: C_16  and  N_17
REMARK                            x       y       z     vdW  Elec       q    Type
REMARK                         _______ _______ _______ _____ _____    ______ ____
ROOT
ATOM      1  C   UNL     1       1.289  11.736  19.699  0.00  0.00    +0.000 C 
ATOM      2  C   UNL     1       0.715  10.370  20.025  0.00  0.00    +0.000 C 
ATOM      3  N   UNL     1      -0.330  10.151  20.767  0.00  0.00    +0.000 NA
ENDROOT
BRANCH   2   4
ATOM      4  C   UNL     1       1.440   9.176  19.460  0.00  0.00    +0.000 A 
ATOM      5  C   UNL     1       1.695   8.040  20.234  0.00  0.00    +0.000 A 
ATOM      6  C   UNL     1       2.319   6.919  19.675  0.00  0.00    +0.000 A 
ATOM      7  C   UNL     1       2.705   6.912  18.328  0.00  0.00    +0.000 A 
ATOM      8  C   UNL     1       2.481   8.063  17.560  0.00  0.00    +0.000 A 
ATOM      9  C   UNL     1       1.852   9.183  18.122  0.00  0.00    +0.000 A 
BRANCH   7  10
ATOM     10  N   UNL     1       3.296   5.745  17.753  0.00  0.00    +0.000 N 
ATOM     11  C   UNL     1       4.485   5.684  17.046  0.00  0.00    +0.000 A 
ATOM     12  C   UNL     1       4.730   4.383  16.669  0.00  0.00    +0.000 A 
ATOM     13  C   UNL     1       3.662   3.603  17.149  0.00  0.00    +0.000 A 
ATOM     14  C   UNL     1       2.802   4.453  17.811  0.00  0.00    +0.000 A 
ENDBRANCH   7  10
ENDBRANCH   2   4
BRANCH   3  15
ATOM     15  N   UNL     1      -1.028  11.177  21.321  0.00  0.00    +0.000 N 
ATOM     16  C   UNL     1      -1.000  11.357  22.698  0.00  0.00    +0.000 C 
ATOM     17  O   UNL     1      -0.363  10.665  23.489  0.00  0.00    +0.000 OA
ATOM     18  H   UNL     1      -1.662  11.719  20.757  0.00  0.00    +0.000 HD
BRANCH  16  19
ATOM     19  C   UNL     1      -1.861  12.457  23.223  0.00  0.00    +0.000 A 
ATOM     20  C   UNL     1      -3.198  12.159  23.525  0.00  0.00    +0.000 A 
ATOM     21  C   UNL     1      -4.055  13.156  23.994  0.00  0.00    +0.000 A 
ATOM     22  C   UNL     1      -3.581  14.453  24.175  0.00  0.00    +0.000 A 
ATOM     23  C   UNL     1      -2.245  14.754  23.900  0.00  0.00    +0.000 A 
ATOM     24  C   UNL     1      -1.383  13.758  23.432  0.00  0.00    +0.000 A 
ENDBRANCH  16  19
ENDBRANCH   3  15
TORSDOF 4
ENDMDL
MODEL 5
REMARK VINA RESULT:      -7.3      2.553      4.750
REMARK  Name = 
REMARK  5 active torsions:
REMARK  status: ('A' for Active; 'I' for Inactive)
REMARK    1  A    between atoms: C_1  and  C_2
REMARK    2  A    between atoms: C_2  and  C_13
REMARK    3  A    between atoms: N_3  and  N_4
REMARK    4  A    between atoms: C_5  and  C_7
REMARK    5  A    between atoms: C_16  and  N_17
REMARK                            x       y       z     vdW  Elec       q    Type
REMARK                         _______ _______ _______ _____ _____    ______ ____
ROOT
ATOM      1  C   UNL     1       1.333  11.778  19.784  0.00  0.00    +0.000 C 
ATOM      2  C   UNL     1       0.685  10.424  20.001  0.00  0.00    +0.000 C 
ATOM      3  N   UNL     1      -0.394  10.210  20.694  0.00  0.00    +0.000 NA
ENDROOT
BRANCH   2   4
ATOM      4  C   UNL     1       1.370   9.234  19.380  0.00  0.00    +0.000 A 
ATOM      5  C   UNL     1       1.774   9.238  18.041  0.00  0.00    +0.000 A 
ATOM      6  C   UNL     1       2.459   8.145  17.498  0.00  0.00    +0.000 A 
ATOM      7  C   UNL     1       2.754   7.022  18.284  0.00  0.00    +0.000 A 
ATOM      8  C   UNL     1       2.319   7.004  19.616  0.00  0.00    +0.000 A 
ATOM      9  C   UNL     1       1.636   8.101  20.158  0.00  0.00    +0.000 A 
BRANCH   7  10
ATOM     10  N   UNL     1       3.498   5.933  17.735  0.00  0.00    +0.000 N 
ATOM     11  C   UNL     1       4.666   6.020  16.995  0.00  0.00    +0.000 A 
ATOM     12  C   UNL     1       5.092   4.756  16.658  0.00  0.00    +0.000 A 
ATOM     13  C   UNL     1       4.164   3.846  17.199  0.00  0.00    +0.000 A 
ATOM     14  C   UNL     1       3.204   4.586  17.855  0.00  0.00    +0.000 A 
ENDBRANCH   7  10
ENDBRANCH   2   4
BRANCH   3  15
ATOM     15  N   UNL     1      -1.061  11.230  21.294  0.00  0.00    +0.000 N 
ATOM     16  C   UNL     1      -1.005  11.365  22.675  0.00  0.00    +0.000 C 
ATOM     17  O   UNL     1      -0.368  10.635  23.431  0.00  0.00    +0.000 OA
ATOM     18  H   UNL     1      -1.694  11.803  20.759  0.00  0.00    +0.000 HD
BRANCH  16  19
ATOM     19  C   UNL     1      -1.834  12.464  23.251  0.00  0.00    +0.000 A 
ATOM     20  C   UNL     1      -3.159  12.173  23.604  0.00  0.00    +0.000 A 
ATOM     21  C   UNL     1      -3.987  13.170  24.122  0.00  0.00    +0.000 A 
ATOM     22  C   UNL     1      -3.495  14.461  24.301  0.00  0.00    +0.000 A 
ATOM     23  C   UNL     1      -2.169  14.754  23.975  0.00  0.00    +0.000 A 
ATOM     24  C   UNL     1      -1.336  13.758  23.458  0.00  0.00    +0.000 A 
ENDBRANCH  16  19
ENDBRANCH   3  15
TORSDOF 4
ENDMDL
MODEL 6
REMARK VINA RESULT:      -7.3      2.497      4.491
REMARK  Name = 
REMARK  5 active torsions:
REMARK  status: ('A' for Active; 'I' for Inactive)
REMARK    1  A    between atoms: C_1  and  C_2
REMARK    2  A    between atoms: C_2  and  C_13
REMARK    3  A    between atoms: N_3  and  N_4
REMARK    4  A    between atoms: C_5  and  C_7
REMARK    5  A    between atoms: C_16  and  N_17
REMARK                            x       y       z     vdW  Elec       q    Type
REMARK                         _______ _______ _______ _____ _____    ______ ____
ROOT
ATOM      1  C   UNL     1      -0.401  10.835  18.896  0.00  0.00    +0.000 C 
ATOM      2  C   UNL     1       0.535  10.156  19.879  0.00  0.00    +0.000 C 
ATOM      3  N   UNL     1       0.667  10.473  21.133  0.00  0.00    +0.000 NA
ENDROOT
BRANCH   2   4
ATOM      4  C   UNL     1       1.396   9.043  19.340  0.00  0.00    +0.000 A 
ATOM      5  C   UNL     1       1.696   7.912  20.105  0.00  0.00    +0.000 A 
ATOM      6  C   UNL     1       2.451   6.864  19.567  0.00  0.00    +0.000 A 
ATOM      7  C   UNL     1       2.926   6.926  18.250  0.00  0.00    +0.000 A 
ATOM      8  C   UNL     1       2.656   8.075  17.494  0.00  0.00    +0.000 A 
ATOM      9  C   UNL     1       1.896   9.122  18.034  0.00  0.00    +0.000 A 
BRANCH   7  10
ATOM     10  N   UNL     1       3.652   5.830  17.693  0.00  0.00    +0.000 N 
ATOM     11  C   UNL     1       4.851   5.898  17.002  0.00  0.00    +0.000 A 
ATOM     12  C   UNL     1       5.246   4.631  16.639  0.00  0.00    +0.000 A 
ATOM     13  C   UNL     1       4.266   3.739  17.111  0.00  0.00    +0.000 A 
ATOM     14  C   UNL     1       3.307   4.491  17.754  0.00  0.00    +0.000 A 
ENDBRANCH   7  10
ENDBRANCH   2   4
BRANCH   3  15
ATOM     15  N   UNL     1      -0.066  11.473  21.688  0.00  0.00    +0.000 N 
ATOM     16  C   UNL     1      -0.934  11.184  22.734  0.00  0.00    +0.000 C 
ATOM     17  O   UNL     1      -1.090  10.073  23.236  0.00  0.00    +0.000 OA
ATOM     18  H   UNL     1      -0.080  12.386  21.263  0.00  0.00    +0.000 HD
BRANCH  16  19
ATOM     19  C   UNL     1      -1.757  12.327  23.225  0.00  0.00    +0.000 A 
ATOM     20  C   UNL     1      -1.147  13.587  23.314  0.00  0.00    +0.000 A 
ATOM     21  C   UNL     1      -1.863  14.686  23.792  0.00  0.00    +0.000 A 
ATOM     22  C   UNL     1      -3.195  14.537  24.174  0.00  0.00    +0.000 A 
ATOM     23  C   UNL     1      -3.817  13.292  24.067  0.00  0.00    +0.000 A 
ATOM     24  C   UNL     1      -3.105  12.189  23.586  0.00  0.00    +0.000 A 
ENDBRANCH  16  19
ENDBRANCH   3  15
TORSDOF 4
ENDMDL
MODEL 7
REMARK VINA RESULT:      -7.3      2.678      4.459
REMARK  Name = 
REMARK  5 active torsions:
REMARK  status: ('A' for Active; 'I' for Inactive)
REMARK    1  A    between atoms: C_1  and  C_2
REMARK    2  A    between atoms: C_2  and  C_13
REMARK    3  A    between atoms: N_3  and  N_4
REMARK    4  A    between atoms: C_5  and  C_7
REMARK    5  A    between atoms: C_16  and  N_17
REMARK                            x       y       z     vdW  Elec       q    Type
REMARK                         _______ _______ _______ _____ _____    ______ ____
ROOT
ATOM      1  C   UNL     1       0.926  11.484  18.991  0.00  0.00    +0.000 C 
ATOM      2  C   UNL     1       0.738  10.172  19.730  0.00  0.00    +0.000 C 
ATOM      3  N   UNL     1      -0.012  10.000  20.778  0.00  0.00    +0.000 NA
ENDROOT
BRANCH   2   4
ATOM      4  C   UNL     1       1.509   8.985  19.214  0.00  0.00    +0.000 A 
ATOM      5  C   UNL     1       2.045   8.964  17.922  0.00  0.00    +0.000 A 
ATOM      6  C   UNL     1       2.806   7.875  17.481  0.00  0.00    +0.000 A 
ATOM      7  C   UNL     1       3.046   6.781  18.324  0.00  0.00    +0.000 A 
ATOM      8  C   UNL     1       2.481   6.786  19.606  0.00  0.00    +0.000 A 
ATOM      9  C   UNL     1       1.722   7.879  20.047  0.00  0.00    +0.000 A 
BRANCH   7  10
ATOM     10  N   UNL     1       3.866   5.698  17.883  0.00  0.00    +0.000 N 
ATOM     11  C   UNL     1       3.431   4.465  17.424  0.00  0.00    +0.000 A 
ATOM     12  C   UNL     1       4.516   3.695  17.075  0.00  0.00    +0.000 A 
ATOM     13  C   UNL     1       5.668   4.462  17.325  0.00  0.00    +0.000 A 
ATOM     14  C   UNL     1       5.249   5.681  17.813  0.00  0.00    +0.000 A 
ENDBRANCH   7  10
ENDBRANCH   2   4
BRANCH   3  15
ATOM     15  N   UNL     1      -0.728  11.026  21.308  0.00  0.00    +0.000 N 
ATOM     16  C   UNL     1      -0.825  11.150  22.688  0.00  0.00    +0.000 C 
ATOM     17  O   UNL     1      -0.287  10.405  23.504  0.00  0.00    +0.000 OA
ATOM     18  H   UNL     1      -1.289  11.612  20.711  0.00  0.00    +0.000 HD
BRANCH  16  19
ATOM     19  C   UNL     1      -1.699  12.256  23.177  0.00  0.00    +0.000 A 
ATOM     20  C   UNL     1      -1.140  13.538  23.282  0.00  0.00    +0.000 A 
ATOM     21  C   UNL     1      -1.904  14.604  23.760  0.00  0.00    +0.000 A 
ATOM     22  C   UNL     1      -3.233  14.400  24.125  0.00  0.00    +0.000 A 
ATOM     23  C   UNL     1      -3.805  13.133  24.001  0.00  0.00    +0.000 A 
ATOM     24  C   UNL     1      -3.044  12.063  23.522  0.00  0.00    +0.000 A 
ENDBRANCH  16  19
ENDBRANCH   3  15
TORSDOF 4
ENDMDL
MODEL 8
REMARK VINA RESULT:      -7.2      3.876     10.106
REMARK  Name = 
REMARK  5 active torsions:
REMARK  status: ('A' for Active; 'I' for Inactive)
REMARK    1  A    between atoms: C_1  and  C_2
REMARK    2  A    between atoms: C_2  and  C_13
REMARK    3  A    between atoms: N_3  and  N_4
REMARK    4  A    between atoms: C_5  and  C_7
REMARK    5  A    between atoms: C_16  and  N_17
REMARK                            x       y       z     vdW  Elec       q    Type
REMARK                         _______ _______ _______ _____ _____    ______ ____
ROOT
ATOM      1  C   UNL     1       1.891   8.454  18.827  0.00  0.00    +0.000 C 
ATOM      2  C   UNL     1       1.448   8.167  20.250  0.00  0.00    +0.000 C 
ATOM      3  N   UNL     1       1.627   7.044  20.880  0.00  0.00    +0.000 NA
ENDROOT
BRANCH   2   4
ATOM      4  C   UNL     1       0.718   9.270  20.970  0.00  0.00    +0.000 A 
ATOM      5  C   UNL     1       0.480  10.509  20.366  0.00  0.00    +0.000 A 
ATOM      6  C   UNL     1      -0.248  11.502  21.031  0.00  0.00    +0.000 A 
ATOM      7  C   UNL     1      -0.754  11.276  22.319  0.00  0.00    +0.000 A 
ATOM      8  C   UNL     1      -0.487  10.048  22.939  0.00  0.00    +0.000 A 
ATOM      9  C   UNL     1       0.240   9.055  22.269  0.00  0.00    +0.000 A 
BRANCH   7  10
ATOM     10  N   UNL     1      -1.540  12.276  22.970  0.00  0.00    +0.000 N 
ATOM     11  C   UNL     1      -1.135  13.559  23.301  0.00  0.00    +0.000 A 
ATOM     12  C   UNL     1      -2.177  14.229  23.901  0.00  0.00    +0.000 A 
ATOM     13  C   UNL     1      -3.268  13.342  23.951  0.00  0.00    +0.000 A 
ATOM     14  C   UNL     1      -2.859  12.160  23.374  0.00  0.00    +0.000 A 
ENDBRANCH   7  10
ENDBRANCH   2   4
BRANCH   3  15
ATOM     15  N   UNL     1       2.267   5.999  20.292  0.00  0.00    +0.000 N 
ATOM     16  C   UNL     1       1.599   4.792  20.132  0.00  0.00    +0.000 C 
ATOM     17  O   UNL     1       0.435   4.579  20.465  0.00  0.00    +0.000 OA
ATOM     18  H   UNL     1       3.252   6.057  20.093  0.00  0.00    +0.000 HD
BRANCH  16  19
ATOM     19  C   UNL     1       2.406   3.679  19.552  0.00  0.00    +0.000 A 
ATOM     20  C   UNL     1       2.003   3.149  18.318  0.00  0.00    +0.000 A 
ATOM     21  C   UNL     1       2.706   2.089  17.742  0.00  0.00    +0.000 A 
ATOM     22  C   UNL     1       3.821   1.559  18.389  0.00  0.00    +0.000 A 
ATOM     23  C   UNL     1       4.243   2.097  19.606  0.00  0.00    +0.000 A 
ATOM     24  C   UNL     1       3.543   3.160  20.185  0.00  0.00    +0.000 A 
ENDBRANCH  16  19
ENDBRANCH   3  15
TORSDOF 4
ENDMDL
MODEL 9
REMARK VINA RESULT:      -7.1      2.897     10.383
REMARK  Name = 
REMARK  5 active torsions:
REMARK  status: ('A' for Active; 'I' for Inactive)
REMARK    1  A    between atoms: C_1  and  C_2
REMARK    2  A    between atoms: C_2  and  C_13
REMARK    3  A    between atoms: N_3  and  N_4
REMARK    4  A    between atoms: C_5  and  C_7
REMARK    5  A    between atoms: C_16  and  N_17
REMARK                            x       y       z     vdW  Elec       q    Type
REMARK                         _______ _______ _______ _____ _____    ______ ____
ROOT
ATOM      1  C   UNL     1       1.041   9.731  18.403  0.00  0.00    +0.000 C 
ATOM      2  C   UNL     1       0.943   9.299  19.854  0.00  0.00    +0.000 C 
ATOM      3  N   UNL     1       1.536   8.264  20.371  0.00  0.00    +0.000 NA
ENDROOT
BRANCH   2   4
ATOM      4  C   UNL     1       0.062  10.128  20.753  0.00  0.00    +0.000 A 
ATOM      5  C   UNL     1      -0.074   9.839  22.114  0.00  0.00    +0.000 A 
ATOM      6  C   UNL     1      -0.852  10.654  22.944  0.00  0.00    +0.000 A 
ATOM      7  C   UNL     1      -1.515  11.777  22.427  0.00  0.00    +0.000 A 
ATOM      8  C   UNL     1      -1.407  12.046  21.056  0.00  0.00    +0.000 A 
ATOM      9  C   UNL     1      -0.624  11.230  20.228  0.00  0.00    +0.000 A 
BRANCH   7  10
ATOM     10  N   UNL     1      -2.266  12.631  23.291  0.00  0.00    +0.000 N 
ATOM     11  C   UNL     1      -1.897  13.892  23.732  0.00  0.00    +0.000 A 
ATOM     12  C   UNL     1      -2.888  14.407  24.534  0.00  0.00    +0.000 A 
ATOM     13  C   UNL     1      -3.910  13.442  24.604  0.00  0.00    +0.000 A 
ATOM     14  C   UNL     1      -3.511  12.370  23.836  0.00  0.00    +0.000 A 
ENDBRANCH   7  10
ENDBRANCH   2   4
BRANCH   3  15
ATOM     15  N   UNL     1       2.336   7.462  19.622  0.00  0.00    +0.000 N 
ATOM     16  C   UNL     1       2.286   6.085  19.802  0.00  0.00    +0.000 C 
ATOM     17  O   UNL     1       1.543   5.502  20.589  0.00  0.00    +0.000 OA
ATOM     18  H   UNL     1       3.050   7.865  19.036  0.00  0.00    +0.000 HD
BRANCH  16  19
ATOM     19  C   UNL     1       3.258   5.292  18.995  0.00  0.00    +0.000 A 
ATOM     20  C   UNL     1       2.759   4.527  17.931  0.00  0.00    +0.000 A 
ATOM     21  C   UNL     1       3.621   3.745  17.159  0.00  0.00    +0.000 A 
ATOM     22  C   UNL     1       4.985   3.730  17.438  0.00  0.00    +0.000 A 
ATOM     23  C   UNL     1       5.494   4.507  18.479  0.00  0.00    +0.000 A 
ATOM     24  C   UNL     1       4.636   5.294  19.253  0.00  0.00    +0.000 A 
ENDBRANCH  16  19
ENDBRANCH   3  15
TORSDOF 4
ENDMDL
