MODEL 1
REMARK VINA RESULT:      -8.0      0.000      0.000
REMARK  Name = 
REMARK  3 active torsions:
REMARK  status: ('A' for Active; 'I' for Inactive)
REMARK    1  A    between atoms: C_1  and  C_2
REMARK    2  A    between atoms: N_4  and  C_5
REMARK    3  A    between atoms: C_8  and  C_9
REMARK                            x       y       z     vdW  Elec       q    Type
REMARK                         _______ _______ _______ _____ _____    ______ ____
ROOT
ATOM      1  C   UNL     1       0.834   2.555  19.048  0.00  0.00    +0.000 C 
ATOM      2  C   UNL     1       1.731   3.720  18.849  0.00  0.00    +0.000 A 
ATOM      3  N   UNL     1       1.373   4.935  19.267  0.00  0.00    +0.000 NA
ATOM      4  N   UNL     1       2.340   5.784  18.808  0.00  0.00    +0.000 N 
ATOM      5  C   UNL     1       3.417   5.072  18.280  0.00  0.00    +0.000 A 
ATOM      6  C   UNL     1       3.010   3.745  18.281  0.00  0.00    +0.000 A 
ATOM      7  C   UNL     1       3.836   2.659  17.796  0.00  0.00    +0.000 A 
ATOM      8  O   UNL     1       3.471   1.489  17.783  0.00  0.00    +0.000 OA
ATOM      9  O   UNL     1       5.110   3.035  17.340  0.00  0.00    +0.000 OA
ATOM     10  C   UNL     1       5.576   4.378  17.383  0.00  0.00    +0.000 A 
ATOM     11  C   UNL     1       6.888   4.563  16.942  0.00  0.00    +0.000 A 
ATOM     12  C   UNL     1       7.425   5.845  16.943  0.00  0.00    +0.000 A 
ATOM     13  C   UNL     1       6.660   6.904  17.427  0.00  0.00    +0.000 A 
ATOM     14 CL   UNL     1       7.312   8.497  17.406  0.00  0.00    +0.000 Cl
ATOM     15  C   UNL     1       5.365   6.698  17.922  0.00  0.00    +0.000 A 
ATOM     16  C   UNL     1       4.774   5.436  17.859  0.00  0.00    +0.000 A 
ENDROOT
BRANCH   4  17
ATOM     17  C   UNL     1       2.076   7.179  18.908  0.00  0.00    +0.000 A 
ATOM     18  C   UNL     1       1.721   7.708  20.159  0.00  0.00    +0.000 A 
ATOM     19  C   UNL     1       1.442   9.069  20.304  0.00  0.00    +0.000 A 
ATOM     20  C   UNL     1       1.491   9.925  19.196  0.00  0.00    +0.000 A 
ATOM     21  C   UNL     1       1.820   9.386  17.941  0.00  0.00    +0.000 A 
ATOM     22  C   UNL     1       2.081   8.018  17.792  0.00  0.00    +0.000 A 
BRANCH  20  23
ATOM     23  C   UNL     1       1.160  11.392  19.328  0.00  0.00    +0.000 C 
ATOM     24  F   UNL     1      -0.142  11.684  19.056  0.00  0.00    +0.000 F 
ATOM     25  F   UNL     1       1.398  11.871  20.580  0.00  0.00    +0.000 F 
ATOM     26  F   UNL     1       1.899  12.165  18.485  0.00  0.00    +0.000 F 
ENDBRANCH  20  23
ENDBRANCH   4  17
TORSDOF 2
ENDMDL
MODEL 2
REMARK VINA RESULT:      -8.0      1.018      1.018
REMARK  Name = 
REMARK  3 active torsions:
REMARK  status: ('A' for Active; 'I' for Inactive)
REMARK    1  A    between atoms: C_1  and  C_2
REMARK    2  A    between atoms: N_4  and  C_5
REMARK    3  A    between atoms: C_8  and  C_9
REMARK                            x       y       z     vdW  Elec       q    Type
REMARK                         _______ _______ _______ _____ _____    ______ ____
ROOT
ATOM      1  C   UNL     1       1.276   2.828  20.858  0.00  0.00    +0.000 C 
ATOM      2  C   UNL     1       2.069   3.954  20.306  0.00  0.00    +0.000 A 
ATOM      3  N   UNL     1       1.641   5.211  20.425  0.00  0.00    +0.000 NA
ATOM      4  N   UNL     1       2.514   5.970  19.698  0.00  0.00    +0.000 N 
ATOM      5  C   UNL     1       3.613   5.213  19.294  0.00  0.00    +0.000 A 
ATOM      6  C   UNL     1       3.310   3.909  19.661  0.00  0.00    +0.000 A 
ATOM      7  C   UNL     1       4.190   2.787  19.411  0.00  0.00    +0.000 A 
ATOM      8  O   UNL     1       3.917   1.633  19.722  0.00  0.00    +0.000 OA
ATOM      9  O   UNL     1       5.406   3.109  18.785  0.00  0.00    +0.000 OA
ATOM     10  C   UNL     1       5.768   4.444  18.452  0.00  0.00    +0.000 A 
ATOM     11  C   UNL     1       7.037   4.588  17.887  0.00  0.00    +0.000 A 
ATOM     12  C   UNL     1       7.473   5.856  17.524  0.00  0.00    +0.000 A 
ATOM     13  C   UNL     1       6.656   6.956  17.775  0.00  0.00    +0.000 A 
ATOM     14 CL   UNL     1       7.181   8.526  17.303  0.00  0.00    +0.000 Cl
ATOM     15  C   UNL     1       5.408   6.806  18.397  0.00  0.00    +0.000 A 
ATOM     16  C   UNL     1       4.913   5.537  18.698  0.00  0.00    +0.000 A 
ENDROOT
BRANCH   4  17
ATOM     17  C   UNL     1       2.148   7.325  19.458  0.00  0.00    +0.000 A 
ATOM     18  C   UNL     1       1.585   8.066  20.510  0.00  0.00    +0.000 A 
ATOM     19  C   UNL     1       1.201   9.395  20.318  0.00  0.00    +0.000 A 
ATOM     20  C   UNL     1       1.352  10.004  19.066  0.00  0.00    +0.000 A 
ATOM     21  C   UNL     1       1.890   9.250  18.010  0.00  0.00    +0.000 A 
ATOM     22  C   UNL     1       2.258   7.912  18.196  0.00  0.00    +0.000 A 
BRANCH  20  23
ATOM     23  C   UNL     1       0.912  11.429  18.833  0.00  0.00    +0.000 C 
ATOM     24  F   UNL     1      -0.274  11.533  18.170  0.00  0.00    +0.000 F 
ATOM     25  F   UNL     1       0.753  12.123  19.993  0.00  0.00    +0.000 F 
ATOM     26  F   UNL     1       1.813  12.134  18.095  0.00  0.00    +0.000 F 
ENDBRANCH  20  23
ENDBRANCH   4  17
TORSDOF 2
ENDMDL
MODEL 3
REMARK VINA RESULT:      -7.9      0.124      1.217
REMARK  Name = 
REMARK  3 active torsions:
REMARK  status: ('A' for Active; 'I' for Inactive)
REMARK    1  A    between atoms: C_1  and  C_2
REMARK    2  A    between atoms: N_4  and  C_5
REMARK    3  A    between atoms: C_8  and  C_9
REMARK                            x       y       z     vdW  Elec       q    Type
REMARK                         _______ _______ _______ _____ _____    ______ ____
ROOT
ATOM      1  C   UNL     1       0.841   2.516  19.062  0.00  0.00    +0.000 C 
ATOM      2  C   UNL     1       1.725   3.690  18.862  0.00  0.00    +0.000 A 
ATOM      3  N   UNL     1       1.357   4.900  19.285  0.00  0.00    +0.000 NA
ATOM      4  N   UNL     1       2.313   5.760  18.824  0.00  0.00    +0.000 N 
ATOM      5  C   UNL     1       3.395   5.060  18.290  0.00  0.00    +0.000 A 
ATOM      6  C   UNL     1       3.001   3.729  18.290  0.00  0.00    +0.000 A 
ATOM      7  C   UNL     1       3.835   2.652  17.798  0.00  0.00    +0.000 A 
ATOM      8  O   UNL     1       3.482   1.479  17.783  0.00  0.00    +0.000 OA
ATOM      9  O   UNL     1       5.104   3.042  17.338  0.00  0.00    +0.000 OA
ATOM     10  C   UNL     1       5.556   4.390  17.382  0.00  0.00    +0.000 A 
ATOM     11  C   UNL     1       6.865   4.589  16.936  0.00  0.00    +0.000 A 
ATOM     12  C   UNL     1       7.389   5.876  16.938  0.00  0.00    +0.000 A 
ATOM     13  C   UNL     1       6.616   6.926  17.428  0.00  0.00    +0.000 A 
ATOM     14 CL   UNL     1       7.252   8.526  17.408  0.00  0.00    +0.000 Cl
ATOM     15  C   UNL     1       5.325   6.706  17.928  0.00  0.00    +0.000 A 
ATOM     16  C   UNL     1       4.746   5.438  17.864  0.00  0.00    +0.000 A 
ENDROOT
BRANCH   4  17
ATOM     17  C   UNL     1       2.036   7.152  18.929  0.00  0.00    +0.000 A 
ATOM     18  C   UNL     1       2.155   7.950  17.780  0.00  0.00    +0.000 A 
ATOM     19  C   UNL     1       1.904   9.323  17.838  0.00  0.00    +0.000 A 
ATOM     20  C   UNL     1       1.548   9.929  19.050  0.00  0.00    +0.000 A 
ATOM     21  C   UNL     1       1.458   9.131  20.202  0.00  0.00    +0.000 A 
ATOM     22  C   UNL     1       1.728   7.758  20.149  0.00  0.00    +0.000 A 
BRANCH  20  23
ATOM     23  C   UNL     1       1.306  11.417  19.137  0.00  0.00    +0.000 C 
ATOM     24  F   UNL     1       2.149  12.154  18.361  0.00  0.00    +0.000 F 
ATOM     25  F   UNL     1       0.047  11.764  18.753  0.00  0.00    +0.000 F 
ATOM     26  F   UNL     1       1.455  11.891  20.404  0.00  0.00    +0.000 F 
ENDBRANCH  20  23
ENDBRANCH   4  17
TORSDOF 2
ENDMDL
MODEL 4
REMARK VINA RESULT:      -7.1      2.413      4.175
REMARK  Name = 
REMARK  3 active torsions:
REMARK  status: ('A' for Active; 'I' for Inactive)
REMARK    1  A    between atoms: C_1  and  C_2
REMARK    2  A    between atoms: N_4  and  C_5
REMARK    3  A    between atoms: C_8  and  C_9
REMARK                            x       y       z     vdW  Elec       q    Type
REMARK                         _______ _______ _______ _____ _____    ______ ____
ROOT
ATOM      1  C   UNL     1       7.429   7.416  17.095  0.00  0.00    +0.000 C 
ATOM      2  C   UNL     1       6.098   6.959  17.567  0.00  0.00    +0.000 A 
ATOM      3  N   UNL     1       5.047   7.779  17.539  0.00  0.00    +0.000 NA
ATOM      4  N   UNL     1       4.036   7.105  18.164  0.00  0.00    +0.000 N 
ATOM      5  C   UNL     1       4.393   5.777  18.398  0.00  0.00    +0.000 A 
ATOM      6  C   UNL     1       5.731   5.694  18.039  0.00  0.00    +0.000 A 
ATOM      7  C   UNL     1       6.508   4.476  18.140  0.00  0.00    +0.000 A 
ATOM      8  O   UNL     1       7.693   4.405  17.837  0.00  0.00    +0.000 OA
ATOM      9  O   UNL     1       5.802   3.355  18.607  0.00  0.00    +0.000 OA
ATOM     10  C   UNL     1       4.416   3.397  18.925  0.00  0.00    +0.000 A 
ATOM     11  C   UNL     1       3.863   2.177  19.319  0.00  0.00    +0.000 A 
ATOM     12  C   UNL     1       2.515   2.125  19.655  0.00  0.00    +0.000 A 
ATOM     13  C   UNL     1       1.740   3.277  19.545  0.00  0.00    +0.000 A 
ATOM     14 CL   UNL     1       0.077   3.224  19.985  0.00  0.00    +0.000 Cl
ATOM     15  C   UNL     1       2.293   4.483  19.090  0.00  0.00    +0.000 A 
ATOM     16  C   UNL     1       3.659   4.582  18.823  0.00  0.00    +0.000 A 
ENDROOT
BRANCH   4  17
ATOM     17  C   UNL     1       2.866   7.849  18.486  0.00  0.00    +0.000 A 
ATOM     18  C   UNL     1       2.343   8.729  17.525  0.00  0.00    +0.000 A 
ATOM     19  C   UNL     1       1.203   9.488  17.801  0.00  0.00    +0.000 A 
ATOM     20  C   UNL     1       0.575   9.398  19.050  0.00  0.00    +0.000 A 
ATOM     21  C   UNL     1       1.119   8.537  20.017  0.00  0.00    +0.000 A 
ATOM     22  C   UNL     1       2.272   7.790  19.749  0.00  0.00    +0.000 A 
BRANCH  20  23
ATOM     23  C   UNL     1      -0.638  10.236  19.376  0.00  0.00    +0.000 C 
ATOM     24  F   UNL     1      -1.773   9.821  18.749  0.00  0.00    +0.000 F 
ATOM     25  F   UNL     1      -0.926  10.241  20.706  0.00  0.00    +0.000 F 
ATOM     26  F   UNL     1      -0.473  11.541  19.023  0.00  0.00    +0.000 F 
ENDBRANCH  20  23
ENDBRANCH   4  17
TORSDOF 2
ENDMDL
MODEL 5
REMARK VINA RESULT:      -7.1      2.393      4.184
REMARK  Name = 
REMARK  3 active torsions:
REMARK  status: ('A' for Active; 'I' for Inactive)
REMARK    1  A    between atoms: C_1  and  C_2
REMARK    2  A    between atoms: N_4  and  C_5
REMARK    3  A    between atoms: C_8  and  C_9
REMARK                            x       y       z     vdW  Elec       q    Type
REMARK                         _______ _______ _______ _____ _____    ______ ____
ROOT
ATOM      1  C   UNL     1       7.413   7.463  16.726  0.00  0.00    +0.000 C 
ATOM      2  C   UNL     1       6.084   6.955  17.147  0.00  0.00    +0.000 A 
ATOM      3  N   UNL     1       5.075   7.796  17.380  0.00  0.00    +0.000 NA
ATOM      4  N   UNL     1       4.061   7.029  17.879  0.00  0.00    +0.000 N 
ATOM      5  C   UNL     1       4.360   5.672  17.762  0.00  0.00    +0.000 A 
ATOM      6  C   UNL     1       5.675   5.628  17.318  0.00  0.00    +0.000 A 
ATOM      7  C   UNL     1       6.392   4.393  17.075  0.00  0.00    +0.000 A 
ATOM      8  O   UNL     1       7.557   4.353  16.698  0.00  0.00    +0.000 OA
ATOM      9  O   UNL     1       5.652   3.220  17.295  0.00  0.00    +0.000 OA
ATOM     10  C   UNL     1       4.286   3.236  17.692  0.00  0.00    +0.000 A 
ATOM     11  C   UNL     1       3.690   1.978  17.809  0.00  0.00    +0.000 A 
ATOM     12  C   UNL     1       2.358   1.897  18.199  0.00  0.00    +0.000 A 
ATOM     13  C   UNL     1       1.639   3.070  18.416  0.00  0.00    +0.000 A 
ATOM     14 CL   UNL     1      -0.003   2.974  18.924  0.00  0.00    +0.000 Cl
ATOM     15  C   UNL     1       2.231   4.329  18.238  0.00  0.00    +0.000 A 
ATOM     16  C   UNL     1       3.586   4.437  17.925  0.00  0.00    +0.000 A 
ENDROOT
BRANCH   4  17
ATOM     17  C   UNL     1       2.946   7.715  18.438  0.00  0.00    +0.000 A 
ATOM     18  C   UNL     1       2.331   8.727  17.683  0.00  0.00    +0.000 A 
ATOM     19  C   UNL     1       1.242   9.435  18.195  0.00  0.00    +0.000 A 
ATOM     20  C   UNL     1       0.758   9.161  19.481  0.00  0.00    +0.000 A 
ATOM     21  C   UNL     1       1.394   8.167  20.243  0.00  0.00    +0.000 A 
ATOM     22  C   UNL     1       2.499   7.469  19.738  0.00  0.00    +0.000 A 
BRANCH  20  23
ATOM     23  C   UNL     1      -0.397   9.939  20.063  0.00  0.00    +0.000 C 
ATOM     24  F   UNL     1      -0.823   9.467  21.268  0.00  0.00    +0.000 F 
ATOM     25  F   UNL     1      -0.095  11.252  20.262  0.00  0.00    +0.000 F 
ATOM     26  F   UNL     1      -1.490   9.925  19.251  0.00  0.00    +0.000 F 
ENDBRANCH  20  23
ENDBRANCH   4  17
TORSDOF 2
ENDMDL
MODEL 6
REMARK VINA RESULT:      -6.9      1.395      1.709
REMARK  Name = 
REMARK  3 active torsions:
REMARK  status: ('A' for Active; 'I' for Inactive)
REMARK    1  A    between atoms: C_1  and  C_2
REMARK    2  A    between atoms: N_4  and  C_5
REMARK    3  A    between atoms: C_8  and  C_9
REMARK                            x       y       z     vdW  Elec       q    Type
REMARK                         _______ _______ _______ _____ _____    ______ ____
ROOT
ATOM      1  C   UNL     1       1.493   2.828  21.679  0.00  0.00    +0.000 C 
ATOM      2  C   UNL     1       2.028   3.782  20.676  0.00  0.00    +0.000 A 
ATOM      3  N   UNL     1       1.855   5.095  20.826  0.00  0.00    +0.000 NA
ATOM      4  N   UNL     1       2.333   5.664  19.679  0.00  0.00    +0.000 N 
ATOM      5  C   UNL     1       3.000   4.722  18.896  0.00  0.00    +0.000 A 
ATOM      6  C   UNL     1       2.777   3.505  19.527  0.00  0.00    +0.000 A 
ATOM      7  C   UNL     1       3.290   2.245  19.030  0.00  0.00    +0.000 A 
ATOM      8  O   UNL     1       3.081   1.169  19.577  0.00  0.00    +0.000 OA
ATOM      9  O   UNL     1       4.066   2.336  17.862  0.00  0.00    +0.000 OA
ATOM     10  C   UNL     1       4.360   3.575  17.229  0.00  0.00    +0.000 A 
ATOM     11  C   UNL     1       5.192   3.485  16.111  0.00  0.00    +0.000 A 
ATOM     12  C   UNL     1       5.528   4.646  15.426  0.00  0.00    +0.000 A 
ATOM     13  C   UNL     1       5.066   5.873  15.896  0.00  0.00    +0.000 A 
ATOM     14 CL   UNL     1       5.459   7.312  15.035  0.00  0.00    +0.000 Cl
ATOM     15  C   UNL     1       4.280   5.958  17.054  0.00  0.00    +0.000 A 
ATOM     16  C   UNL     1       3.863   4.802  17.715  0.00  0.00    +0.000 A 
ENDROOT
BRANCH   4  17
ATOM     17  C   UNL     1       2.048   7.044  19.474  0.00  0.00    +0.000 A 
ATOM     18  C   UNL     1       1.552   7.795  20.552  0.00  0.00    +0.000 A 
ATOM     19  C   UNL     1       1.247   9.149  20.395  0.00  0.00    +0.000 A 
ATOM     20  C   UNL     1       1.412   9.774  19.153  0.00  0.00    +0.000 A 
ATOM     21  C   UNL     1       1.882   9.012  18.071  0.00  0.00    +0.000 A 
ATOM     22  C   UNL     1       2.170   7.650  18.222  0.00  0.00    +0.000 A 
BRANCH  20  23
ATOM     23  C   UNL     1       1.056  11.229  18.957  0.00  0.00    +0.000 C 
ATOM     24  F   UNL     1       1.946  11.910  18.183  0.00  0.00    +0.000 F 
ATOM     25  F   UNL     1      -0.158  11.394  18.365  0.00  0.00    +0.000 F 
ATOM     26  F   UNL     1       0.993  11.907  20.136  0.00  0.00    +0.000 F 
ENDBRANCH  20  23
ENDBRANCH   4  17
TORSDOF 2
ENDMDL
MODEL 7
REMARK VINA RESULT:      -6.9      5.780      8.625
REMARK  Name = 
REMARK  3 active torsions:
REMARK  status: ('A' for Active; 'I' for Inactive)
REMARK    1  A    between atoms: C_1  and  C_2
REMARK    2  A    between atoms: N_4  and  C_5
REMARK    3  A    between atoms: C_8  and  C_9
REMARK                            x       y       z     vdW  Elec       q    Type
REMARK                         _______ _______ _______ _____ _____    ______ ____
ROOT
ATOM      1  C   UNL     1      -0.896  12.215  23.059  0.00  0.00    +0.000 C 
ATOM      2  C   UNL     1      -0.932  11.552  21.732  0.00  0.00    +0.000 A 
ATOM      3  N   UNL     1      -0.080  10.570  21.437  0.00  0.00    +0.000 NA
ATOM      4  N   UNL     1      -0.284  10.286  20.116  0.00  0.00    +0.000 N 
ATOM      5  C   UNL     1      -1.414  10.948  19.635  0.00  0.00    +0.000 A 
ATOM      6  C   UNL     1      -1.812  11.784  20.669  0.00  0.00    +0.000 A 
ATOM      7  C   UNL     1      -2.954  12.670  20.581  0.00  0.00    +0.000 A 
ATOM      8  O   UNL     1      -3.297  13.420  21.487  0.00  0.00    +0.000 OA
ATOM      9  O   UNL     1      -3.664  12.610  19.370  0.00  0.00    +0.000 OA
ATOM     10  C   UNL     1      -3.314  11.719  18.317  0.00  0.00    +0.000 A 
ATOM     11  C   UNL     1      -4.164  11.752  17.209  0.00  0.00    +0.000 A 
ATOM     12  C   UNL     1      -3.895  10.920  16.129  0.00  0.00    +0.000 A 
ATOM     13  C   UNL     1      -2.816  10.041  16.198  0.00  0.00    +0.000 A 
ATOM     14 CL   UNL     1      -2.464   9.026  14.852  0.00  0.00    +0.000 Cl
ATOM     15  C   UNL     1      -2.005   9.975  17.340  0.00  0.00    +0.000 A 
ATOM     16  C   UNL     1      -2.205  10.854  18.404  0.00  0.00    +0.000 A 
ENDROOT
BRANCH   4  17
ATOM     17  C   UNL     1       0.667   9.437  19.483  0.00  0.00    +0.000 A 
ATOM     18  C   UNL     1       1.178   8.346  20.202  0.00  0.00    +0.000 A 
ATOM     19  C   UNL     1       2.122   7.492  19.626  0.00  0.00    +0.000 A 
ATOM     20  C   UNL     1       2.588   7.725  18.326  0.00  0.00    +0.000 A 
ATOM     21  C   UNL     1       2.094   8.835  17.620  0.00  0.00    +0.000 A 
ATOM     22  C   UNL     1       1.163   9.702  18.204  0.00  0.00    +0.000 A 
BRANCH  20  23
ATOM     23  C   UNL     1       3.633   6.831  17.699  0.00  0.00    +0.000 C 
ATOM     24  F   UNL     1       3.165   5.596  17.366  0.00  0.00    +0.000 F 
ATOM     25  F   UNL     1       4.150   7.356  16.555  0.00  0.00    +0.000 F 
ATOM     26  F   UNL     1       4.692   6.618  18.527  0.00  0.00    +0.000 F 
ENDBRANCH  20  23
ENDBRANCH   4  17
TORSDOF 2
ENDMDL
MODEL 8
REMARK VINA RESULT:      -6.9      2.415      4.124
REMARK  Name = 
REMARK  3 active torsions:
REMARK  status: ('A' for Active; 'I' for Inactive)
REMARK    1  A    between atoms: C_1  and  C_2
REMARK    2  A    between atoms: N_4  and  C_5
REMARK    3  A    between atoms: C_8  and  C_9
REMARK                            x       y       z     vdW  Elec       q    Type
REMARK                         _______ _______ _______ _____ _____    ______ ____
ROOT
ATOM      1  C   UNL     1       7.485   7.380  17.080  0.00  0.00    +0.000 C 
ATOM      2  C   UNL     1       6.142   6.953  17.545  0.00  0.00    +0.000 A 
ATOM      3  N   UNL     1       5.108   7.794  17.507  0.00  0.00    +0.000 NA
ATOM      4  N   UNL     1       4.079   7.144  18.128  0.00  0.00    +0.000 N 
ATOM      5  C   UNL     1       4.407   5.809  18.367  0.00  0.00    +0.000 A 
ATOM      6  C   UNL     1       5.746   5.697  18.018  0.00  0.00    +0.000 A 
ATOM      7  C   UNL     1       6.496   4.463  18.127  0.00  0.00    +0.000 A 
ATOM      8  O   UNL     1       7.681   4.366  17.833  0.00  0.00    +0.000 OA
ATOM      9  O   UNL     1       5.763   3.358  18.593  0.00  0.00    +0.000 OA
ATOM     10  C   UNL     1       4.376   3.431  18.901  0.00  0.00    +0.000 A 
ATOM     11  C   UNL     1       3.795   2.224  19.296  0.00  0.00    +0.000 A 
ATOM     12  C   UNL     1       2.445   2.201  19.623  0.00  0.00    +0.000 A 
ATOM     13  C   UNL     1       1.695   3.369  19.504  0.00  0.00    +0.000 A 
ATOM     14 CL   UNL     1       0.028   3.352  19.933  0.00  0.00    +0.000 Cl
ATOM     15  C   UNL     1       2.276   4.562  19.050  0.00  0.00    +0.000 A 
ATOM     16  C   UNL     1       3.645   4.631  18.791  0.00  0.00    +0.000 A 
ENDROOT
BRANCH   4  17
ATOM     17  C   UNL     1       2.923   7.913  18.440  0.00  0.00    +0.000 A 
ATOM     18  C   UNL     1       2.360   7.791  19.720  0.00  0.00    +0.000 A 
ATOM     19  C   UNL     1       1.219   8.518  20.068  0.00  0.00    +0.000 A 
ATOM     20  C   UNL     1       0.606   9.365  19.136  0.00  0.00    +0.000 A 
ATOM     21  C   UNL     1       1.157   9.462  17.848  0.00  0.00    +0.000 A 
ATOM     22  C   UNL     1       2.290   8.720  17.492  0.00  0.00    +0.000 A 
BRANCH  20  23
ATOM     23  C   UNL     1      -0.648  10.132  19.485  0.00  0.00    +0.000 C 
ATOM     24  F   UNL     1      -0.990  10.050  20.801  0.00  0.00    +0.000 F 
ATOM     25  F   UNL     1      -0.540  11.461  19.209  0.00  0.00    +0.000 F 
ATOM     26  F   UNL     1      -1.732   9.692  18.790  0.00  0.00    +0.000 F 
ENDBRANCH  20  23
ENDBRANCH   4  17
TORSDOF 2
ENDMDL
MODEL 9
REMARK VINA RESULT:      -6.8      2.408      4.143
REMARK  Name = 
REMARK  3 active torsions:
REMARK  status: ('A' for Active; 'I' for Inactive)
REMARK    1  A    between atoms: C_1  and  C_2
REMARK    2  A    between atoms: N_4  and  C_5
REMARK    3  A    between atoms: C_8  and  C_9
REMARK                            x       y       z     vdW  Elec       q    Type
REMARK                         _______ _______ _______ _____ _____    ______ ____
ROOT
ATOM      1  C   UNL     1       7.464   7.454  16.732  0.00  0.00    +0.000 C 
ATOM      2  C   UNL     1       6.126   6.971  17.154  0.00  0.00    +0.000 A 
ATOM      3  N   UNL     1       5.129   7.829  17.370  0.00  0.00    +0.000 NA
ATOM      4  N   UNL     1       4.101   7.083  17.874  0.00  0.00    +0.000 N 
ATOM      5  C   UNL     1       4.382   5.721  17.777  0.00  0.00    +0.000 A 
ATOM      6  C   UNL     1       5.698   5.652  17.340  0.00  0.00    +0.000 A 
ATOM      7  C   UNL     1       6.398   4.404  17.117  0.00  0.00    +0.000 A 
ATOM      8  O   UNL     1       7.564   4.343  16.745  0.00  0.00    +0.000 OA
ATOM      9  O   UNL     1       5.640   3.245  17.348  0.00  0.00    +0.000 OA
ATOM     10  C   UNL     1       4.273   3.285  17.738  0.00  0.00    +0.000 A 
ATOM     11  C   UNL     1       3.658   2.038  17.869  0.00  0.00    +0.000 A 
ATOM     12  C   UNL     1       2.324   1.981  18.252  0.00  0.00    +0.000 A 
ATOM     13  C   UNL     1       1.620   3.167  18.451  0.00  0.00    +0.000 A 
ATOM     14 CL   UNL     1      -0.025   3.101  18.952  0.00  0.00    +0.000 Cl
ATOM     15  C   UNL     1       2.232   4.415  18.259  0.00  0.00    +0.000 A 
ATOM     16  C   UNL     1       3.590   4.500  17.952  0.00  0.00    +0.000 A 
ENDROOT
BRANCH   4  17
ATOM     17  C   UNL     1       2.994   7.793  18.419  0.00  0.00    +0.000 A 
ATOM     18  C   UNL     1       2.547   7.456  19.707  0.00  0.00    +0.000 A 
ATOM     19  C   UNL     1       1.458   8.117  20.278  0.00  0.00    +0.000 A 
ATOM     20  C   UNL     1       0.780   9.114  19.566  0.00  0.00    +0.000 A 
ATOM     21  C   UNL     1       1.213   9.428  18.267  0.00  0.00    +0.000 A 
ATOM     22  C   UNL     1       2.294   8.753  17.686  0.00  0.00    +0.000 A 
BRANCH  20  23
ATOM     23  C   UNL     1      -0.421   9.815  20.155  0.00  0.00    +0.000 C 
ATOM     24  F   UNL     1      -0.180  11.110  20.503  0.00  0.00    +0.000 F 
ATOM     25  F   UNL     1      -1.478   9.849  19.299  0.00  0.00    +0.000 F 
ATOM     26  F   UNL     1      -0.872   9.204  21.285  0.00  0.00    +0.000 F 
ENDBRANCH  20  23
ENDBRANCH   4  17
TORSDOF 2
ENDMDL
