MODEL 1
REMARK VINA RESULT:      -7.9      0.000      0.000
REMARK  Name = 
REMARK  12 active torsions:
REMARK  status: ('A' for Active; 'I' for Inactive)
REMARK    1  A    between atoms: C_1  and  C_2
REMARK    2  A    between atoms: C_2  and  C_3
REMARK    3  A    between atoms: C_3  and  N_4
REMARK    4  A    between atoms: N_4  and  C_5
REMARK    5  A    between atoms: C_5  and  C_6
REMARK    6  A    between atoms: C_13  and  C_15
REMARK    7  A    between atoms: C_16  and  C_17
REMARK    8  A    between atoms: C_17  and  C_18
REMARK    9  A    between atoms: N_24  and  C_25
REMARK   10  A    between atoms: C_26  and  C_27
REMARK   11  A    between atoms: C_29  and  C_30
REMARK   12  A    between atoms: C_32  and  C_33
REMARK                            x       y       z     vdW  Elec       q    Type
REMARK                         _______ _______ _______ _____ _____    ______ ____
ROOT
ATOM      1  C   UNL     1       2.669   5.521  18.703  0.00  0.00    +0.000 A 
ATOM      2  C   UNL     1       2.150   5.279  19.988  0.00  0.00    +0.000 A 
ATOM      3  N   UNL     1       1.576   6.415  20.528  0.00  0.00    +0.000 NA
ATOM      4  C   UNL     1       1.774   7.348  19.637  0.00  0.00    +0.000 A 
ATOM      5  N   UNL     1       2.335   6.815  18.509  0.00  0.00    +0.000 N 
ATOM      6  C   UNL     1       2.386   7.810  17.466  0.00  0.00    +0.000 C 
ATOM      7  C   UNL     1       2.420   9.069  18.331  0.00  0.00    +0.000 C 
ATOM      8  N   UNL     1       1.593   8.683  19.481  0.00  0.00    +0.000 N 
ENDROOT
BRANCH   8   9
ATOM      9  C   UNL     1       0.739   9.548  20.170  0.00  0.00    +0.000 A 
ATOM     10  C   UNL     1      -0.317  10.238  19.499  0.00  0.00    +0.000 A 
ATOM     11  C   UNL     1      -0.684  10.075  18.043  0.00  0.00    +0.000 C 
ATOM     12  C   UNL     1      -1.141  11.143  20.198  0.00  0.00    +0.000 A 
ATOM     13  C   UNL     1      -1.011  11.338  21.567  0.00  0.00    +0.000 A 
ATOM     14  C   UNL     1      -1.915  12.278  22.300  0.00  0.00    +0.000 C 
ATOM     15  C   UNL     1      -0.029  10.630  22.244  0.00  0.00    +0.000 A 
ATOM     16  C   UNL     1       0.858   9.764  21.573  0.00  0.00    +0.000 A 
ATOM     17  C   UNL     1       1.910   9.114  22.441  0.00  0.00    +0.000 C 
ENDBRANCH   8   9
BRANCH   1  19
ATOM     18  N   UNL     1       4.631   4.420  17.577  0.00  0.00    +0.000 N 
ATOM     19  C   UNL     1       3.238   4.533  17.815  0.00  0.00    +0.000 C 
ATOM     20  O   UNL     1       2.436   3.780  17.268  0.00  0.00    +0.000 OA
BRANCH  18  21
ATOM     21  C   UNL     1       5.121   3.350  16.661  0.00  0.00    +0.000 C 
BRANCH  21  23
ATOM     22  C   UNL     1       5.593   4.864  14.619  0.00  0.00    +0.000 C 
ATOM     23  C   UNL     1       6.080   3.753  15.528  0.00  0.00    +0.000 C 
ENDBRANCH  21  23
ENDBRANCH  18  21
BRANCH  18  24
ATOM     24  C   UNL     1       5.613   4.852  18.586  0.00  0.00    +0.000 C 
BRANCH  24  25
ATOM     25  C   UNL     1       6.511   6.041  18.245  0.00  0.00    +0.000 A 
ATOM     26  C   UNL     1       6.133   7.084  17.380  0.00  0.00    +0.000 A 
ATOM     27  C   UNL     1       6.896   8.259  17.290  0.00  0.00    +0.000 A 
ATOM     28  C   UNL     1       8.055   8.399  18.050  0.00  0.00    +0.000 A 
ATOM     29 CL   UNL     1       8.944   9.872  18.001  0.00  0.00    +0.000 Cl
ATOM     30  C   UNL     1       8.474   7.364  18.879  0.00  0.00    +0.000 A 
ATOM     31  C   UNL     1       7.707   6.196  18.976  0.00  0.00    +0.000 A 
ENDBRANCH  24  25
ENDBRANCH  18  24
ENDBRANCH   1  19
BRANCH   2  32
ATOM     32  C   UNL     1       2.180   4.029  20.814  0.00  0.00    +0.000 C 
ATOM     33  C   UNL     1       1.055   3.055  20.497  0.00  0.00    +0.000 C 
ENDBRANCH   2  32
TORSDOF 7
ENDMDL
MODEL 2
REMARK VINA RESULT:      -7.8      0.080      1.531
REMARK  Name = 
REMARK  12 active torsions:
REMARK  status: ('A' for Active; 'I' for Inactive)
REMARK    1  A    between atoms: C_1  and  C_2
REMARK    2  A    between atoms: C_2  and  C_3
REMARK    3  A    between atoms: C_3  and  N_4
REMARK    4  A    between atoms: N_4  and  C_5
REMARK    5  A    between atoms: C_5  and  C_6
REMARK    6  A    between atoms: C_13  and  C_15
REMARK    7  A    between atoms: C_16  and  C_17
REMARK    8  A    between atoms: C_17  and  C_18
REMARK    9  A    between atoms: N_24  and  C_25
REMARK   10  A    between atoms: C_26  and  C_27
REMARK   11  A    between atoms: C_29  and  C_30
REMARK   12  A    between atoms: C_32  and  C_33
REMARK                            x       y       z     vdW  Elec       q    Type
REMARK                         _______ _______ _______ _____ _____    ______ ____
ROOT
ATOM      1  C   UNL     1       2.646   5.507  18.733  0.00  0.00    +0.000 A 
ATOM      2  C   UNL     1       2.144   5.255  20.023  0.00  0.00    +0.000 A 
ATOM      3  N   UNL     1       1.575   6.386  20.578  0.00  0.00    +0.000 NA
ATOM      4  C   UNL     1       1.759   7.325  19.690  0.00  0.00    +0.000 A 
ATOM      5  N   UNL     1       2.306   6.801  18.551  0.00  0.00    +0.000 N 
ATOM      6  C   UNL     1       2.340   7.803  17.514  0.00  0.00    +0.000 C 
ATOM      7  C   UNL     1       2.383   9.056  18.386  0.00  0.00    +0.000 C 
ATOM      8  N   UNL     1       1.572   8.661  19.545  0.00  0.00    +0.000 N 
ENDROOT
BRANCH   8   9
ATOM      9  C   UNL     1       0.725   9.520  20.250  0.00  0.00    +0.000 A 
ATOM     10  C   UNL     1       0.882   9.731  21.654  0.00  0.00    +0.000 A 
ATOM     11  C   UNL     1       1.980   9.143  22.511  0.00  0.00    +0.000 C 
ATOM     12  C   UNL     1      -0.009  10.564  22.360  0.00  0.00    +0.000 A 
ATOM     13  C   UNL     1      -1.016  11.267  21.711  0.00  0.00    +0.000 A 
ATOM     14  C   UNL     1      -1.934  12.172  22.470  0.00  0.00    +0.000 C 
ATOM     15  C   UNL     1      -1.145  11.119  20.338  0.00  0.00    +0.000 A 
ATOM     16  C   UNL     1      -0.316  10.247  19.604  0.00  0.00    +0.000 A 
ATOM     17  C   UNL     1      -0.622  10.151  18.128  0.00  0.00    +0.000 C 
ENDBRANCH   8   9
BRANCH   1  19
ATOM     18  N   UNL     1       4.596   4.411  17.582  0.00  0.00    +0.000 N 
ATOM     19  C   UNL     1       3.205   4.526  17.831  0.00  0.00    +0.000 C 
ATOM     20  O   UNL     1       2.397   3.781  17.283  0.00  0.00    +0.000 OA
BRANCH  18  21
ATOM     21  C   UNL     1       5.076   3.348  16.653  0.00  0.00    +0.000 C 
BRANCH  21  23
ATOM     22  C   UNL     1       5.610   4.823  14.596  0.00  0.00    +0.000 C 
ATOM     23  C   UNL     1       6.079   3.747  15.557  0.00  0.00    +0.000 C 
ENDBRANCH  21  23
ENDBRANCH  18  21
BRANCH  18  24
ATOM     24  C   UNL     1       5.587   4.830  18.588  0.00  0.00    +0.000 C 
BRANCH  24  25
ATOM     25  C   UNL     1       6.491   6.015  18.249  0.00  0.00    +0.000 A 
ATOM     26  C   UNL     1       6.119   7.060  17.386  0.00  0.00    +0.000 A 
ATOM     27  C   UNL     1       6.889   8.231  17.298  0.00  0.00    +0.000 A 
ATOM     28  C   UNL     1       8.049   8.363  18.059  0.00  0.00    +0.000 A 
ATOM     29 CL   UNL     1       8.947   9.831  18.012  0.00  0.00    +0.000 Cl
ATOM     30  C   UNL     1       8.462   7.325  18.885  0.00  0.00    +0.000 A 
ATOM     31  C   UNL     1       7.689   6.161  18.980  0.00  0.00    +0.000 A 
ENDBRANCH  24  25
ENDBRANCH  18  24
ENDBRANCH   1  19
BRANCH   2  32
ATOM     32  C   UNL     1       2.189   4.000  20.840  0.00  0.00    +0.000 C 
ATOM     33  C   UNL     1       1.098   2.999  20.490  0.00  0.00    +0.000 C 
ENDBRANCH   2  32
TORSDOF 7
ENDMDL
MODEL 3
REMARK VINA RESULT:      -7.6      3.540      8.538
REMARK  Name = 
REMARK  12 active torsions:
REMARK  status: ('A' for Active; 'I' for Inactive)
REMARK    1  A    between atoms: C_1  and  C_2
REMARK    2  A    between atoms: C_2  and  C_3
REMARK    3  A    between atoms: C_3  and  N_4
REMARK    4  A    between atoms: N_4  and  C_5
REMARK    5  A    between atoms: C_5  and  C_6
REMARK    6  A    between atoms: C_13  and  C_15
REMARK    7  A    between atoms: C_16  and  C_17
REMARK    8  A    between atoms: C_17  and  C_18
REMARK    9  A    between atoms: N_24  and  C_25
REMARK   10  A    between atoms: C_26  and  C_27
REMARK   11  A    between atoms: C_29  and  C_30
REMARK   12  A    between atoms: C_32  and  C_33
REMARK                            x       y       z     vdW  Elec       q    Type
REMARK                         _______ _______ _______ _____ _____    ______ ____
ROOT
ATOM      1  C   UNL     1       1.034   9.991  20.511  0.00  0.00    +0.000 A 
ATOM      2  C   UNL     1       1.011   9.176  21.658  0.00  0.00    +0.000 A 
ATOM      3  N   UNL     1       1.473   7.901  21.386  0.00  0.00    +0.000 NA
ATOM      4  C   UNL     1       1.727   7.901  20.106  0.00  0.00    +0.000 A 
ATOM      5  N   UNL     1       1.564   9.157  19.590  0.00  0.00    +0.000 N 
ATOM      6  C   UNL     1       2.018   9.191  18.221  0.00  0.00    +0.000 C 
ATOM      7  C   UNL     1       1.813   7.721  17.859  0.00  0.00    +0.000 C 
ATOM      8  N   UNL     1       2.107   7.041  19.128  0.00  0.00    +0.000 N 
ENDROOT
BRANCH   8   9
ATOM      9  C   UNL     1       2.741   5.801  19.234  0.00  0.00    +0.000 A 
ATOM     10  C   UNL     1       2.100   4.691  19.865  0.00  0.00    +0.000 A 
ATOM     11  C   UNL     1       0.690   4.686  20.408  0.00  0.00    +0.000 C 
ATOM     12  C   UNL     1       2.771   3.460  20.006  0.00  0.00    +0.000 A 
ATOM     13  C   UNL     1       4.037   3.256  19.472  0.00  0.00    +0.000 A 
ATOM     14  C   UNL     1       4.723   1.932  19.602  0.00  0.00    +0.000 C 
ATOM     15  C   UNL     1       4.649   4.306  18.804  0.00  0.00    +0.000 A 
ATOM     16  C   UNL     1       4.040   5.573  18.696  0.00  0.00    +0.000 A 
ATOM     17  C   UNL     1       4.860   6.628  17.992  0.00  0.00    +0.000 C 
ENDBRANCH   8   9
BRANCH   1  19
ATOM     18  N   UNL     1      -0.397  11.921  19.766  0.00  0.00    +0.000 N 
ATOM     19  C   UNL     1       0.723  11.401  20.463  0.00  0.00    +0.000 C 
ATOM     20  O   UNL     1       1.493  12.140  21.072  0.00  0.00    +0.000 OA
BRANCH  18  21
ATOM     21  C   UNL     1      -0.646  13.391  19.798  0.00  0.00    +0.000 C 
BRANCH  21  23
ATOM     22  C   UNL     1       0.806  15.389  19.032  0.00  0.00    +0.000 C 
ATOM     23  C   UNL     1      -0.102  14.240  18.637  0.00  0.00    +0.000 C 
ENDBRANCH  21  23
ENDBRANCH  18  21
BRANCH  18  24
ATOM     24  C   UNL     1      -1.604  11.105  19.548  0.00  0.00    +0.000 C 
BRANCH  24  25
ATOM     25  C   UNL     1      -2.082  10.910  18.109  0.00  0.00    +0.000 A 
ATOM     26  C   UNL     1      -1.550   9.949  17.232  0.00  0.00    +0.000 A 
ATOM     27  C   UNL     1      -2.182   9.656  16.013  0.00  0.00    +0.000 A 
ATOM     28  C   UNL     1      -3.345  10.332  15.649  0.00  0.00    +0.000 A 
ATOM     29 CL   UNL     1      -4.163   9.914  14.194  0.00  0.00    +0.000 Cl
ATOM     30  C   UNL     1      -3.865  11.319  16.479  0.00  0.00    +0.000 A 
ATOM     31  C   UNL     1      -3.240  11.604  17.699  0.00  0.00    +0.000 A 
ENDBRANCH  24  25
ENDBRANCH  18  24
ENDBRANCH   1  19
BRANCH   2  32
ATOM     32  C   UNL     1       0.534   9.485  23.044  0.00  0.00    +0.000 C 
ATOM     33  C   UNL     1      -0.875  10.058  23.096  0.00  0.00    +0.000 C 
ENDBRANCH   2  32
TORSDOF 7
ENDMDL
MODEL 4
REMARK VINA RESULT:      -7.5      3.458      8.500
REMARK  Name = 
REMARK  12 active torsions:
REMARK  status: ('A' for Active; 'I' for Inactive)
REMARK    1  A    between atoms: C_1  and  C_2
REMARK    2  A    between atoms: C_2  and  C_3
REMARK    3  A    between atoms: C_3  and  N_4
REMARK    4  A    between atoms: N_4  and  C_5
REMARK    5  A    between atoms: C_5  and  C_6
REMARK    6  A    between atoms: C_13  and  C_15
REMARK    7  A    between atoms: C_16  and  C_17
REMARK    8  A    between atoms: C_17  and  C_18
REMARK    9  A    between atoms: N_24  and  C_25
REMARK   10  A    between atoms: C_26  and  C_27
REMARK   11  A    between atoms: C_29  and  C_30
REMARK   12  A    between atoms: C_32  and  C_33
REMARK                            x       y       z     vdW  Elec       q    Type
REMARK                         _______ _______ _______ _____ _____    ______ ____
ROOT
ATOM      1  C   UNL     1       1.070  10.067  20.442  0.00  0.00    +0.000 A 
ATOM      2  C   UNL     1       1.047   9.265  21.598  0.00  0.00    +0.000 A 
ATOM      3  N   UNL     1       1.485   7.981  21.336  0.00  0.00    +0.000 NA
ATOM      4  C   UNL     1       1.726   7.963  20.054  0.00  0.00    +0.000 A 
ATOM      5  N   UNL     1       1.577   9.215  19.525  0.00  0.00    +0.000 N 
ATOM      6  C   UNL     1       2.016   9.227  18.151  0.00  0.00    +0.000 C 
ATOM      7  C   UNL     1       1.785   7.756  17.808  0.00  0.00    +0.000 C 
ATOM      8  N   UNL     1       2.082   7.086  19.081  0.00  0.00    +0.000 N 
ENDROOT
BRANCH   8   9
ATOM      9  C   UNL     1       2.698   5.837  19.195  0.00  0.00    +0.000 A 
ATOM     10  C   UNL     1       4.015   5.610  18.690  0.00  0.00    +0.000 A 
ATOM     11  C   UNL     1       4.906   6.658  18.065  0.00  0.00    +0.000 C 
ATOM     12  C   UNL     1       4.605   4.333  18.771  0.00  0.00    +0.000 A 
ATOM     13  C   UNL     1       3.967   3.276  19.409  0.00  0.00    +0.000 A 
ATOM     14  C   UNL     1       4.620   1.935  19.514  0.00  0.00    +0.000 C 
ATOM     15  C   UNL     1       2.712   3.496  19.957  0.00  0.00    +0.000 A 
ATOM     16  C   UNL     1       2.060   4.740  19.842  0.00  0.00    +0.000 A 
ATOM     17  C   UNL     1       0.673   4.802  20.438  0.00  0.00    +0.000 C 
ENDBRANCH   8   9
BRANCH   1  19
ATOM     18  N   UNL     1      -0.429  11.999  19.852  0.00  0.00    +0.000 N 
ATOM     19  C   UNL     1       0.779  11.482  20.382  0.00  0.00    +0.000 C 
ATOM     20  O   UNL     1       1.651  12.225  20.824  0.00  0.00    +0.000 OA
BRANCH  18  21
ATOM     21  C   UNL     1      -0.644  13.475  19.857  0.00  0.00    +0.000 C 
BRANCH  21  23
ATOM     22  C   UNL     1      -0.227  15.789  18.782  0.00  0.00    +0.000 C 
ATOM     23  C   UNL     1      -0.147  14.281  18.646  0.00  0.00    +0.000 C 
ENDBRANCH  21  23
ENDBRANCH  18  21
BRANCH  18  24
ATOM     24  C   UNL     1      -1.670  11.205  19.868  0.00  0.00    +0.000 C 
BRANCH  24  25
ATOM     25  C   UNL     1      -2.299  10.837  18.525  0.00  0.00    +0.000 A 
ATOM     26  C   UNL     1      -3.458  11.445  18.011  0.00  0.00    +0.000 A 
ATOM     27  C   UNL     1      -3.852  11.238  16.680  0.00  0.00    +0.000 A 
ATOM     28  C   UNL     1      -3.102  10.407  15.851  0.00  0.00    +0.000 A 
ATOM     29 CL   UNL     1      -3.540  10.219  14.197  0.00  0.00    +0.000 Cl
ATOM     30  C   UNL     1      -1.977   9.758  16.348  0.00  0.00    +0.000 A 
ATOM     31  C   UNL     1      -1.579   9.973  17.673  0.00  0.00    +0.000 A 
ENDBRANCH  24  25
ENDBRANCH  18  24
ENDBRANCH   1  19
BRANCH   2  32
ATOM     32  C   UNL     1       0.589   9.598  22.986  0.00  0.00    +0.000 C 
ATOM     33  C   UNL     1      -0.863  10.045  23.064  0.00  0.00    +0.000 C 
ENDBRANCH   2  32
TORSDOF 7
ENDMDL
MODEL 5
REMARK VINA RESULT:      -7.4      3.423      8.631
REMARK  Name = 
REMARK  12 active torsions:
REMARK  status: ('A' for Active; 'I' for Inactive)
REMARK    1  A    between atoms: C_1  and  C_2
REMARK    2  A    between atoms: C_2  and  C_3
REMARK    3  A    between atoms: C_3  and  N_4
REMARK    4  A    between atoms: N_4  and  C_5
REMARK    5  A    between atoms: C_5  and  C_6
REMARK    6  A    between atoms: C_13  and  C_15
REMARK    7  A    between atoms: C_16  and  C_17
REMARK    8  A    between atoms: C_17  and  C_18
REMARK    9  A    between atoms: N_24  and  C_25
REMARK   10  A    between atoms: C_26  and  C_27
REMARK   11  A    between atoms: C_29  and  C_30
REMARK   12  A    between atoms: C_32  and  C_33
REMARK                            x       y       z     vdW  Elec       q    Type
REMARK                         _______ _______ _______ _____ _____    ______ ____
ROOT
ATOM      1  C   UNL     1       1.078  10.098  20.438  0.00  0.00    +0.000 A 
ATOM      2  C   UNL     1       1.066   9.302  21.598  0.00  0.00    +0.000 A 
ATOM      3  N   UNL     1       1.509   8.018  21.340  0.00  0.00    +0.000 NA
ATOM      4  C   UNL     1       1.741   7.994  20.056  0.00  0.00    +0.000 A 
ATOM      5  N   UNL     1       1.583   9.243  19.521  0.00  0.00    +0.000 N 
ATOM      6  C   UNL     1       2.013   9.248  18.145  0.00  0.00    +0.000 C 
ATOM      7  C   UNL     1       1.785   7.775  17.812  0.00  0.00    +0.000 C 
ATOM      8  N   UNL     1       2.094   7.113  19.086  0.00  0.00    +0.000 N 
ENDROOT
BRANCH   8   9
ATOM      9  C   UNL     1       2.716   5.868  19.203  0.00  0.00    +0.000 A 
ATOM     10  C   UNL     1       2.073   4.775  19.861  0.00  0.00    +0.000 A 
ATOM     11  C   UNL     1       0.671   4.794  20.425  0.00  0.00    +0.000 C 
ATOM     12  C   UNL     1       2.732   3.539  20.011  0.00  0.00    +0.000 A 
ATOM     13  C   UNL     1       3.988   3.313  19.462  0.00  0.00    +0.000 A 
ATOM     14  C   UNL     1       4.661   1.984  19.603  0.00  0.00    +0.000 C 
ATOM     15  C   UNL     1       4.601   4.345  18.768  0.00  0.00    +0.000 A 
ATOM     16  C   UNL     1       4.005   5.617  18.650  0.00  0.00    +0.000 A 
ATOM     17  C   UNL     1       4.825   6.651  17.916  0.00  0.00    +0.000 C 
ENDBRANCH   8   9
BRANCH   1  19
ATOM     18  N   UNL     1      -0.430  12.020  19.841  0.00  0.00    +0.000 N 
ATOM     19  C   UNL     1       0.782  11.511  20.371  0.00  0.00    +0.000 C 
ATOM     20  O   UNL     1       1.650  12.260  20.809  0.00  0.00    +0.000 OA
BRANCH  18  21
ATOM     21  C   UNL     1      -0.652  13.495  19.840  0.00  0.00    +0.000 C 
BRANCH  21  23
ATOM     22  C   UNL     1      -2.786  14.530  20.869  0.00  0.00    +0.000 C 
ATOM     23  C   UNL     1      -1.339  14.122  21.064  0.00  0.00    +0.000 C 
ENDBRANCH  21  23
ENDBRANCH  18  21
BRANCH  18  24
ATOM     24  C   UNL     1      -1.667  11.221  19.862  0.00  0.00    +0.000 C 
BRANCH  24  25
ATOM     25  C   UNL     1      -2.305  10.856  18.522  0.00  0.00    +0.000 A 
ATOM     26  C   UNL     1      -3.456  11.478  18.009  0.00  0.00    +0.000 A 
ATOM     27  C   UNL     1      -3.856  11.271  16.679  0.00  0.00    +0.000 A 
ATOM     28  C   UNL     1      -3.120  10.426  15.852  0.00  0.00    +0.000 A 
ATOM     29 CL   UNL     1      -3.564  10.236  14.200  0.00  0.00    +0.000 Cl
ATOM     30  C   UNL     1      -2.003   9.763  16.350  0.00  0.00    +0.000 A 
ATOM     31  C   UNL     1      -1.599   9.978  17.673  0.00  0.00    +0.000 A 
ENDBRANCH  24  25
ENDBRANCH  18  24
ENDBRANCH   1  19
BRANCH   2  32
ATOM     32  C   UNL     1       0.617   9.640  22.987  0.00  0.00    +0.000 C 
ATOM     33  C   UNL     1      -0.860   9.991  23.087  0.00  0.00    +0.000 C 
ENDBRANCH   2  32
TORSDOF 7
ENDMDL
MODEL 6
REMARK VINA RESULT:      -7.0      5.657      8.951
REMARK  Name = 
REMARK  12 active torsions:
REMARK  status: ('A' for Active; 'I' for Inactive)
REMARK    1  A    between atoms: C_1  and  C_2
REMARK    2  A    between atoms: C_2  and  C_3
REMARK    3  A    between atoms: C_3  and  N_4
REMARK    4  A    between atoms: N_4  and  C_5
REMARK    5  A    between atoms: C_5  and  C_6
REMARK    6  A    between atoms: C_13  and  C_15
REMARK    7  A    between atoms: C_16  and  C_17
REMARK    8  A    between atoms: C_17  and  C_18
REMARK    9  A    between atoms: N_24  and  C_25
REMARK   10  A    between atoms: C_26  and  C_27
REMARK   11  A    between atoms: C_29  and  C_30
REMARK   12  A    between atoms: C_32  and  C_33
REMARK                            x       y       z     vdW  Elec       q    Type
REMARK                         _______ _______ _______ _____ _____    ______ ____
ROOT
ATOM      1  C   UNL     1       1.013  14.764  20.406  0.00  0.00    +0.000 A 
ATOM      2  C   UNL     1       2.083  14.286  21.185  0.00  0.00    +0.000 A 
ATOM      3  N   UNL     1       2.101  12.904  21.231  0.00  0.00    +0.000 NA
ATOM      4  C   UNL     1       1.053  12.531  20.550  0.00  0.00    +0.000 A 
ATOM      5  N   UNL     1       0.450  13.615  19.974  0.00  0.00    +0.000 N 
ATOM      6  C   UNL     1      -0.596  13.182  19.080  0.00  0.00    +0.000 C 
ATOM      7  C   UNL     1      -0.931  11.840  19.729  0.00  0.00    +0.000 C 
ATOM      8  N   UNL     1       0.376  11.399  20.233  0.00  0.00    +0.000 N 
ENDROOT
BRANCH   8   9
ATOM      9  C   UNL     1       0.807  10.070  20.260  0.00  0.00    +0.000 A 
ATOM     10  C   UNL     1       1.498   9.491  19.152  0.00  0.00    +0.000 A 
ATOM     11  C   UNL     1       1.904  10.222  17.893  0.00  0.00    +0.000 C 
ATOM     12  C   UNL     1       1.886   8.136  19.176  0.00  0.00    +0.000 A 
ATOM     13  C   UNL     1       1.684   7.342  20.298  0.00  0.00    +0.000 A 
ATOM     14  C   UNL     1       2.131   5.914  20.319  0.00  0.00    +0.000 C 
ATOM     15  C   UNL     1       1.068   7.906  21.405  0.00  0.00    +0.000 A 
ATOM     16  C   UNL     1       0.607   9.238  21.399  0.00  0.00    +0.000 A 
ATOM     17  C   UNL     1      -0.096   9.685  22.659  0.00  0.00    +0.000 C 
ENDBRANCH   8   9
BRANCH   1  19
ATOM     18  N   UNL     1       1.586  16.879  19.170  0.00  0.00    +0.000 N 
ATOM     19  C   UNL     1       0.763  16.145  20.061  0.00  0.00    +0.000 C 
ATOM     20  O   UNL     1      -0.220  16.658  20.589  0.00  0.00    +0.000 OA
BRANCH  18  21
ATOM     21  C   UNL     1       1.228  18.293  18.858  0.00  0.00    +0.000 C 
BRANCH  21  23
ATOM     22  C   UNL     1       0.626  18.630  16.366  0.00  0.00    +0.000 C 
ATOM     23  C   UNL     1       0.141  18.545  17.800  0.00  0.00    +0.000 C 
ENDBRANCH  21  23
ENDBRANCH  18  21
BRANCH  18  24
ATOM     24  C   UNL     1       2.359  16.202  18.115  0.00  0.00    +0.000 C 
BRANCH  24  25
ATOM     25  C   UNL     1       3.838  15.924  18.380  0.00  0.00    +0.000 A 
ATOM     26  C   UNL     1       4.511  14.775  17.929  0.00  0.00    +0.000 A 
ATOM     27  C   UNL     1       5.911  14.686  17.996  0.00  0.00    +0.000 A 
ATOM     28  C   UNL     1       6.653  15.736  18.532  0.00  0.00    +0.000 A 
ATOM     29 CL   UNL     1       8.372  15.660  18.538  0.00  0.00    +0.000 Cl
ATOM     30  C   UNL     1       6.007  16.864  19.026  0.00  0.00    +0.000 A 
ATOM     31  C   UNL     1       4.612  16.957  18.949  0.00  0.00    +0.000 A 
ENDBRANCH  24  25
ENDBRANCH  18  24
ENDBRANCH   1  19
BRANCH   2  32
ATOM     32  C   UNL     1       3.116  15.043  21.962  0.00  0.00    +0.000 C 
ATOM     33  C   UNL     1       4.531  14.512  21.785  0.00  0.00    +0.000 C 
ENDBRANCH   2  32
TORSDOF 7
ENDMDL
MODEL 7
REMARK VINA RESULT:      -6.9      3.823      8.661
REMARK  Name = 
REMARK  12 active torsions:
REMARK  status: ('A' for Active; 'I' for Inactive)
REMARK    1  A    between atoms: C_1  and  C_2
REMARK    2  A    between atoms: C_2  and  C_3
REMARK    3  A    between atoms: C_3  and  N_4
REMARK    4  A    between atoms: N_4  and  C_5
REMARK    5  A    between atoms: C_5  and  C_6
REMARK    6  A    between atoms: C_13  and  C_15
REMARK    7  A    between atoms: C_16  and  C_17
REMARK    8  A    between atoms: C_17  and  C_18
REMARK    9  A    between atoms: N_24  and  C_25
REMARK   10  A    between atoms: C_26  and  C_27
REMARK   11  A    between atoms: C_29  and  C_30
REMARK   12  A    between atoms: C_32  and  C_33
REMARK                            x       y       z     vdW  Elec       q    Type
REMARK                         _______ _______ _______ _____ _____    ______ ____
ROOT
ATOM      1  C   UNL     1       1.191   9.624  20.295  0.00  0.00    +0.000 A 
ATOM      2  C   UNL     1       1.156   8.914  21.509  0.00  0.00    +0.000 A 
ATOM      3  N   UNL     1       1.626   7.624  21.358  0.00  0.00    +0.000 NA
ATOM      4  C   UNL     1       1.899   7.511  20.087  0.00  0.00    +0.000 A 
ATOM      5  N   UNL     1       1.737   8.715  19.459  0.00  0.00    +0.000 N 
ATOM      6  C   UNL     1       2.210   8.629  18.098  0.00  0.00    +0.000 C 
ATOM      7  C   UNL     1       2.017   7.132  17.867  0.00  0.00    +0.000 C 
ATOM      8  N   UNL     1       2.295   6.569  19.195  0.00  0.00    +0.000 N 
ENDROOT
BRANCH   8   9
ATOM      9  C   UNL     1       2.934   5.347  19.420  0.00  0.00    +0.000 A 
ATOM     10  C   UNL     1       2.254   4.259  20.048  0.00  0.00    +0.000 A 
ATOM     11  C   UNL     1       0.801   4.256  20.463  0.00  0.00    +0.000 C 
ATOM     12  C   UNL     1       2.925   3.048  20.310  0.00  0.00    +0.000 A 
ATOM     13  C   UNL     1       4.237   2.840  19.902  0.00  0.00    +0.000 A 
ATOM     14  C   UNL     1       4.925   1.536  20.159  0.00  0.00    +0.000 C 
ATOM     15  C   UNL     1       4.892   3.866  19.237  0.00  0.00    +0.000 A 
ATOM     16  C   UNL     1       4.279   5.115  19.012  0.00  0.00    +0.000 A 
ATOM     17  C   UNL     1       5.145   6.148  18.330  0.00  0.00    +0.000 C 
ENDBRANCH   8   9
BRANCH   1  19
ATOM     18  N   UNL     1       0.177  11.518  18.987  0.00  0.00    +0.000 N 
ATOM     19  C   UNL     1       0.874  11.023  20.117  0.00  0.00    +0.000 C 
ATOM     20  O   UNL     1       1.246  11.774  21.015  0.00  0.00    +0.000 OA
BRANCH  18  21
ATOM     21  C   UNL     1      -0.124  12.977  18.908  0.00  0.00    +0.000 C 
BRANCH  21  23
ATOM     22  C   UNL     1       2.288  13.251  18.015  0.00  0.00    +0.000 C 
ATOM     23  C   UNL     1       0.960  13.908  18.339  0.00  0.00    +0.000 C 
ENDBRANCH  21  23
ENDBRANCH  18  21
BRANCH  18  24
ATOM     24  C   UNL     1      -0.758  10.665  18.234  0.00  0.00    +0.000 C 
BRANCH  24  25
ATOM     25  C   UNL     1      -2.159  11.209  17.961  0.00  0.00    +0.000 A 
ATOM     26  C   UNL     1      -2.807  11.115  16.717  0.00  0.00    +0.000 A 
ATOM     27  C   UNL     1      -4.172  11.416  16.589  0.00  0.00    +0.000 A 
ATOM     28  C   UNL     1      -4.902  11.831  17.700  0.00  0.00    +0.000 A 
ATOM     29 CL   UNL     1      -6.593  12.121  17.559  0.00  0.00    +0.000 Cl
ATOM     30  C   UNL     1      -4.275  11.975  18.932  0.00  0.00    +0.000 A 
ATOM     31  C   UNL     1      -2.915  11.666  19.061  0.00  0.00    +0.000 A 
ENDBRANCH  24  25
ENDBRANCH  18  24
ENDBRANCH   1  19
BRANCH   2  32
ATOM     32  C   UNL     1       0.658   9.344  22.856  0.00  0.00    +0.000 C 
ATOM     33  C   UNL     1      -0.840   9.607  22.903  0.00  0.00    +0.000 C 
ENDBRANCH   2  32
TORSDOF 7
ENDMDL
MODEL 8
REMARK VINA RESULT:      -6.9      3.826      8.735
REMARK  Name = 
REMARK  12 active torsions:
REMARK  status: ('A' for Active; 'I' for Inactive)
REMARK    1  A    between atoms: C_1  and  C_2
REMARK    2  A    between atoms: C_2  and  C_3
REMARK    3  A    between atoms: C_3  and  N_4
REMARK    4  A    between atoms: N_4  and  C_5
REMARK    5  A    between atoms: C_5  and  C_6
REMARK    6  A    between atoms: C_13  and  C_15
REMARK    7  A    between atoms: C_16  and  C_17
REMARK    8  A    between atoms: C_17  and  C_18
REMARK    9  A    between atoms: N_24  and  C_25
REMARK   10  A    between atoms: C_26  and  C_27
REMARK   11  A    between atoms: C_29  and  C_30
REMARK   12  A    between atoms: C_32  and  C_33
REMARK                            x       y       z     vdW  Elec       q    Type
REMARK                         _______ _______ _______ _____ _____    ______ ____
ROOT
ATOM      1  C   UNL     1       1.262   9.543  20.186  0.00  0.00    +0.000 A 
ATOM      2  C   UNL     1       1.211   8.859  21.415  0.00  0.00    +0.000 A 
ATOM      3  N   UNL     1       1.672   7.562  21.295  0.00  0.00    +0.000 NA
ATOM      4  C   UNL     1       1.953   7.419  20.029  0.00  0.00    +0.000 A 
ATOM      5  N   UNL     1       1.807   8.611  19.374  0.00  0.00    +0.000 N 
ATOM      6  C   UNL     1       2.289   8.493  18.020  0.00  0.00    +0.000 C 
ATOM      7  C   UNL     1       2.085   6.992  17.818  0.00  0.00    +0.000 C 
ATOM      8  N   UNL     1       2.348   6.456  19.160  0.00  0.00    +0.000 N 
ENDROOT
BRANCH   8   9
ATOM      9  C   UNL     1       2.974   5.233  19.416  0.00  0.00    +0.000 A 
ATOM     10  C   UNL     1       4.348   5.019  19.091  0.00  0.00    +0.000 A 
ATOM     11  C   UNL     1       5.286   6.059  18.524  0.00  0.00    +0.000 C 
ATOM     12  C   UNL     1       4.952   3.766  19.313  0.00  0.00    +0.000 A 
ATOM     13  C   UNL     1       4.264   2.724  19.923  0.00  0.00    +0.000 A 
ATOM     14  C   UNL     1       4.930   1.409  20.180  0.00  0.00    +0.000 C 
ATOM     15  C   UNL     1       2.946   2.935  20.300  0.00  0.00    +0.000 A 
ATOM     16  C   UNL     1       2.285   4.152  20.038  0.00  0.00    +0.000 A 
ATOM     17  C   UNL     1       0.834   4.203  20.455  0.00  0.00    +0.000 C 
ENDBRANCH   8   9
BRANCH   1  19
ATOM     18  N   UNL     1       0.223  11.411  18.860  0.00  0.00    +0.000 N 
ATOM     19  C   UNL     1       0.959  10.940  19.977  0.00  0.00    +0.000 C 
ATOM     20  O   UNL     1       1.379  11.713  20.834  0.00  0.00    +0.000 OA
BRANCH  18  21
ATOM     21  C   UNL     1      -0.059  12.870  18.747  0.00  0.00    +0.000 C 
BRANCH  21  23
ATOM     22  C   UNL     1       1.124  15.143  19.098  0.00  0.00    +0.000 C 
ATOM     23  C   UNL     1       1.107  13.805  18.384  0.00  0.00    +0.000 C 
ENDBRANCH  21  23
ENDBRANCH  18  21
BRANCH  18  24
ATOM     24  C   UNL     1      -0.755  10.549  18.174  0.00  0.00    +0.000 C 
BRANCH  24  25
ATOM     25  C   UNL     1      -2.147  11.120  17.908  0.00  0.00    +0.000 A 
ATOM     26  C   UNL     1      -2.802  11.037  16.667  0.00  0.00    +0.000 A 
ATOM     27  C   UNL     1      -4.162  11.365  16.545  0.00  0.00    +0.000 A 
ATOM     28  C   UNL     1      -4.878  11.798  17.659  0.00  0.00    +0.000 A 
ATOM     29 CL   UNL     1      -6.563  12.121  17.527  0.00  0.00    +0.000 Cl
ATOM     30  C   UNL     1      -4.241  11.932  18.888  0.00  0.00    +0.000 A 
ATOM     31  C   UNL     1      -2.887  11.595  19.010  0.00  0.00    +0.000 A 
ENDBRANCH  24  25
ENDBRANCH  18  24
ENDBRANCH   1  19
BRANCH   2  32
ATOM     32  C   UNL     1       0.706   9.321  22.748  0.00  0.00    +0.000 C 
ATOM     33  C   UNL     1      -0.787   9.609  22.774  0.00  0.00    +0.000 C 
ENDBRANCH   2  32
TORSDOF 7
ENDMDL
MODEL 9
REMARK VINA RESULT:      -6.8      3.953      9.061
REMARK  Name = 
REMARK  12 active torsions:
REMARK  status: ('A' for Active; 'I' for Inactive)
REMARK    1  A    between atoms: C_1  and  C_2
REMARK    2  A    between atoms: C_2  and  C_3
REMARK    3  A    between atoms: C_3  and  N_4
REMARK    4  A    between atoms: N_4  and  C_5
REMARK    5  A    between atoms: C_5  and  C_6
REMARK    6  A    between atoms: C_13  and  C_15
REMARK    7  A    between atoms: C_16  and  C_17
REMARK    8  A    between atoms: C_17  and  C_18
REMARK    9  A    between atoms: N_24  and  C_25
REMARK   10  A    between atoms: C_26  and  C_27
REMARK   11  A    between atoms: C_29  and  C_30
REMARK   12  A    between atoms: C_32  and  C_33
REMARK                            x       y       z     vdW  Elec       q    Type
REMARK                         _______ _______ _______ _____ _____    ______ ____
ROOT
ATOM      1  C   UNL     1       1.271   9.945  19.559  0.00  0.00    +0.000 A 
ATOM      2  C   UNL     1       1.204   9.404  20.856  0.00  0.00    +0.000 A 
ATOM      3  N   UNL     1       1.629   8.089  20.881  0.00  0.00    +0.000 NA
ATOM      4  C   UNL     1       1.903   7.799  19.639  0.00  0.00    +0.000 A 
ATOM      5  N   UNL     1       1.789   8.915  18.855  0.00  0.00    +0.000 N 
ATOM      6  C   UNL     1       2.264   8.633  17.523  0.00  0.00    +0.000 C 
ATOM      7  C   UNL     1       2.019   7.126  17.489  0.00  0.00    +0.000 C 
ATOM      8  N   UNL     1       2.271   6.735  18.882  0.00  0.00    +0.000 N 
ENDROOT
BRANCH   8   9
ATOM      9  C   UNL     1       2.864   5.532  19.273  0.00  0.00    +0.000 A 
ATOM     10  C   UNL     1       2.147   4.567  20.045  0.00  0.00    +0.000 A 
ATOM     11  C   UNL     1       0.698   4.677  20.457  0.00  0.00    +0.000 C 
ATOM     12  C   UNL     1       2.774   3.379  20.471  0.00  0.00    +0.000 A 
ATOM     13  C   UNL     1       4.074   3.067  20.094  0.00  0.00    +0.000 A 
ATOM     14  C   UNL     1       4.714   1.786  20.529  0.00  0.00    +0.000 C 
ATOM     15  C   UNL     1       4.764   3.966  19.295  0.00  0.00    +0.000 A 
ATOM     16  C   UNL     1       4.197   5.194  18.900  0.00  0.00    +0.000 A 
ATOM     17  C   UNL     1       5.097   6.090  18.082  0.00  0.00    +0.000 C 
ENDBRANCH   8   9
BRANCH   1  19
ATOM     18  N   UNL     1      -0.283  11.784  18.829  0.00  0.00    +0.000 N 
ATOM     19  C   UNL     1       1.005  11.318  19.195  0.00  0.00    +0.000 C 
ATOM     20  O   UNL     1       1.972  12.075  19.221  0.00  0.00    +0.000 OA
BRANCH  18  21
ATOM     21  C   UNL     1      -0.459  13.226  18.494  0.00  0.00    +0.000 C 
BRANCH  21  23
ATOM     22  C   UNL     1      -0.283  15.662  19.346  0.00  0.00    +0.000 C 
ATOM     23  C   UNL     1      -0.637  14.220  19.655  0.00  0.00    +0.000 C 
ENDBRANCH  21  23
ENDBRANCH  18  21
BRANCH  18  24
ATOM     24  C   UNL     1      -1.501  11.124  19.328  0.00  0.00    +0.000 C 
BRANCH  24  25
ATOM     25  C   UNL     1      -2.845  11.593  18.771  0.00  0.00    +0.000 A 
ATOM     26  C   UNL     1      -3.327  11.248  17.496  0.00  0.00    +0.000 A 
ATOM     27  C   UNL     1      -4.658  11.508  17.133  0.00  0.00    +0.000 A 
ATOM     28  C   UNL     1      -5.519  12.130  18.035  0.00  0.00    +0.000 A 
ATOM     29 CL   UNL     1      -7.171  12.374  17.619  0.00  0.00    +0.000 Cl
ATOM     30  C   UNL     1      -5.054  12.521  19.285  0.00  0.00    +0.000 A 
ATOM     31  C   UNL     1      -3.729  12.253  19.650  0.00  0.00    +0.000 A 
ENDBRANCH  24  25
ENDBRANCH  18  24
ENDBRANCH   1  19
BRANCH   2  32
ATOM     32  C   UNL     1       0.716  10.025  22.129  0.00  0.00    +0.000 C 
ATOM     33  C   UNL     1      -0.416   9.256  22.793  0.00  0.00    +0.000 C 
ENDBRANCH   2  32
TORSDOF 7
ENDMDL
