MODEL 1
REMARK VINA RESULT:      -8.6      0.000      0.000
REMARK  Name = 
REMARK  6 active torsions:
REMARK  status: ('A' for Active; 'I' for Inactive)
REMARK    1  A    between atoms: C_2  and  O_3
REMARK    2  A    between atoms: C_2  and  C_4
REMARK    3  A    between atoms: C_9  and  O_10
REMARK    4  A    between atoms: O_10  and  C_11
REMARK    5  A    between atoms: C_11  and  C_12
REMARK    6  A    between atoms: C_12  and  C_13
REMARK                            x       y       z     vdW  Elec       q    Type
REMARK                         _______ _______ _______ _____ _____    ______ ____
ROOT
ATOM      1  C   UNL     1       3.102   3.513  19.119  0.00  0.00    +0.000 A 
ATOM      2  C   UNL     1       3.026   4.606  18.342  0.00  0.00    +0.000 A 
ATOM      3  C   UNL     1       4.231   5.342  17.993  0.00  0.00    +0.000 A 
ATOM      4  C   UNL     1       4.221   6.452  17.144  0.00  0.00    +0.000 A 
ATOM      5  C   UNL     1       5.414   7.137  16.878  0.00  0.00    +0.000 A 
ATOM      6  C   UNL     1       6.624   6.721  17.445  0.00  0.00    +0.000 A 
ATOM      7  C   UNL     1       6.633   5.618  18.295  0.00  0.00    +0.000 A 
ATOM      8  C   UNL     1       5.441   4.941  18.544  0.00  0.00    +0.000 A 
ATOM      9  O   UNL     1       5.520   3.808  19.373  0.00  0.00    +0.000 OA
ATOM     10  C   UNL     1       4.402   3.026  19.609  0.00  0.00    +0.000 A 
ATOM     11  O   UNL     1       4.479   1.956  20.210  0.00  0.00    +0.000 OA
ENDROOT
BRANCH   1  13
ATOM     12  O   UNL     1       0.959   3.326  20.137  0.00  0.00    +0.000 OA
ATOM     13  C   UNL     1       1.839   2.817  19.454  0.00  0.00    +0.000 C 
BRANCH  13  14
ATOM     14  O   UNL     1       1.704   1.580  18.933  0.00  0.00    +0.000 OA
ATOM     15  H   UNL     1       2.064   0.845  19.486  0.00  0.00    +0.000 HD
ENDBRANCH  13  14
ENDBRANCH   1  13
BRANCH   6  16
ATOM     16  O   UNL     1       7.722   7.478  17.133  0.00  0.00    +0.000 OA
BRANCH  16  17
ATOM     17  C   UNL     1       8.254   8.261  18.208  0.00  0.00    +0.000 C 
BRANCH  17  18
ATOM     18  C   UNL     1       8.204   9.741  17.829  0.00  0.00    +0.000 C 
BRANCH  18  19
ATOM     19  C   UNL     1       9.279  10.524  18.542  0.00  0.00    +0.000 A 
ATOM     20  C   UNL     1       9.283  10.610  19.940  0.00  0.00    +0.000 A 
ATOM     21  C   UNL     1      10.251  11.367  20.600  0.00  0.00    +0.000 A 
ATOM     22  C   UNL     1      11.222  12.050  19.870  0.00  0.00    +0.000 A 
ATOM     23  C   UNL     1      11.224  11.976  18.478  0.00  0.00    +0.000 A 
ATOM     24  C   UNL     1      10.258  11.219  17.815  0.00  0.00    +0.000 A 
ENDBRANCH  18  19
ENDBRANCH  17  18
ENDBRANCH  16  17
ENDBRANCH   6  16
TORSDOF 6
ENDMDL
MODEL 2
REMARK VINA RESULT:      -8.4      1.257      2.183
REMARK  Name = 
REMARK  6 active torsions:
REMARK  status: ('A' for Active; 'I' for Inactive)
REMARK    1  A    between atoms: C_2  and  O_3
REMARK    2  A    between atoms: C_2  and  C_4
REMARK    3  A    between atoms: C_9  and  O_10
REMARK    4  A    between atoms: O_10  and  C_11
REMARK    5  A    between atoms: C_11  and  C_12
REMARK    6  A    between atoms: C_12  and  C_13
REMARK                            x       y       z     vdW  Elec       q    Type
REMARK                         _______ _______ _______ _____ _____    ______ ____
ROOT
ATOM      1  C   UNL     1       3.574   3.636  18.629  0.00  0.00    +0.000 A 
ATOM      2  C   UNL     1       4.855   3.782  19.010  0.00  0.00    +0.000 A 
ATOM      3  C   UNL     1       5.621   4.939  18.575  0.00  0.00    +0.000 A 
ATOM      4  C   UNL     1       6.936   5.173  18.984  0.00  0.00    +0.000 A 
ATOM      5  C   UNL     1       7.629   6.291  18.498  0.00  0.00    +0.000 A 
ATOM      6  C   UNL     1       7.019   7.185  17.611  0.00  0.00    +0.000 A 
ATOM      7  C   UNL     1       5.710   6.948  17.200  0.00  0.00    +0.000 A 
ATOM      8  C   UNL     1       5.030   5.839  17.697  0.00  0.00    +0.000 A 
ATOM      9  O   UNL     1       3.696   5.677  17.283  0.00  0.00    +0.000 OA
ATOM     10  C   UNL     1       2.918   4.651  17.789  0.00  0.00    +0.000 A 
ATOM     11  O   UNL     1       1.714   4.577  17.552  0.00  0.00    +0.000 OA
ENDROOT
BRANCH   1  13
ATOM     12  O   UNL     1       2.569   2.228  20.263  0.00  0.00    +0.000 OA
ATOM     13  C   UNL     1       2.852   2.427  19.089  0.00  0.00    +0.000 C 
BRANCH  13  14
ATOM     14  O   UNL     1       2.499   1.560  18.117  0.00  0.00    +0.000 OA
ATOM     15  H   UNL     1       2.470   1.936  17.205  0.00  0.00    +0.000 HD
ENDBRANCH  13  14
ENDBRANCH   1  13
BRANCH   6  16
ATOM     16  O   UNL     1       7.798   8.228  17.185  0.00  0.00    +0.000 OA
BRANCH  16  17
ATOM     17  C   UNL     1       8.438   8.981  18.222  0.00  0.00    +0.000 C 
BRANCH  17  18
ATOM     18  C   UNL     1       8.603  10.431  17.767  0.00  0.00    +0.000 C 
BRANCH  18  19
ATOM     19  C   UNL     1       9.756  11.097  18.475  0.00  0.00    +0.000 A 
ATOM     20  C   UNL     1      10.831  11.617  17.743  0.00  0.00    +0.000 A 
ATOM     21  C   UNL     1      11.919  12.197  18.397  0.00  0.00    +0.000 A 
ATOM     22  C   UNL     1      11.945  12.260  19.789  0.00  0.00    +0.000 A 
ATOM     23  C   UNL     1      10.883  11.741  20.527  0.00  0.00    +0.000 A 
ATOM     24  C   UNL     1       9.794  11.161  19.876  0.00  0.00    +0.000 A 
ENDBRANCH  18  19
ENDBRANCH  17  18
ENDBRANCH  16  17
ENDBRANCH   6  16
TORSDOF 6
ENDMDL
MODEL 3
REMARK VINA RESULT:      -8.2      1.141      1.462
REMARK  Name = 
REMARK  6 active torsions:
REMARK  status: ('A' for Active; 'I' for Inactive)
REMARK    1  A    between atoms: C_2  and  O_3
REMARK    2  A    between atoms: C_2  and  C_4
REMARK    3  A    between atoms: C_9  and  O_10
REMARK    4  A    between atoms: O_10  and  C_11
REMARK    5  A    between atoms: C_11  and  C_12
REMARK    6  A    between atoms: C_12  and  C_13
REMARK                            x       y       z     vdW  Elec       q    Type
REMARK                         _______ _______ _______ _____ _____    ______ ____
ROOT
ATOM      1  C   UNL     1       3.637   3.327  18.265  0.00  0.00    +0.000 A 
ATOM      2  C   UNL     1       3.719   4.256  17.297  0.00  0.00    +0.000 A 
ATOM      3  C   UNL     1       4.852   5.167  17.252  0.00  0.00    +0.000 A 
ATOM      4  C   UNL     1       5.020   6.115  16.240  0.00  0.00    +0.000 A 
ATOM      5  C   UNL     1       6.118   6.987  16.276  0.00  0.00    +0.000 A 
ATOM      6  C   UNL     1       7.056   6.918  17.311  0.00  0.00    +0.000 A 
ATOM      7  C   UNL     1       6.885   5.976  18.323  0.00  0.00    +0.000 A 
ATOM      8  C   UNL     1       5.795   5.111  18.270  0.00  0.00    +0.000 A 
ATOM      9  O   UNL     1       5.700   4.151  19.293  0.00  0.00    +0.000 OA
ATOM     10  C   UNL     1       4.697   3.198  19.277  0.00  0.00    +0.000 A 
ATOM     11  O   UNL     1       4.680   2.265  20.079  0.00  0.00    +0.000 OA
ENDROOT
BRANCH   1  13
ATOM     12  O   UNL     1       1.317   2.844  18.036  0.00  0.00    +0.000 OA
ATOM     13  C   UNL     1       2.450   2.441  18.269  0.00  0.00    +0.000 C 
BRANCH  13  14
ATOM     14  O   UNL     1       2.702   1.139  18.522  0.00  0.00    +0.000 OA
ATOM     15  H   UNL     1       3.394   0.724  17.954  0.00  0.00    +0.000 HD
ENDBRANCH  13  14
ENDBRANCH   1  13
BRANCH   6  16
ATOM     16  O   UNL     1       8.074   7.832  17.257  0.00  0.00    +0.000 OA
BRANCH  16  17
ATOM     17  C   UNL     1       7.766   9.128  17.786  0.00  0.00    +0.000 C 
BRANCH  17  18
ATOM     18  C   UNL     1       8.881   9.566  18.734  0.00  0.00    +0.000 C 
BRANCH  18  19
ATOM     19  C   UNL     1       9.476  10.885  18.306  0.00  0.00    +0.000 A 
ATOM     20  C   UNL     1      10.857  11.099  18.394  0.00  0.00    +0.000 A 
ATOM     21  C   UNL     1      11.407  12.332  18.038  0.00  0.00    +0.000 A 
ATOM     22  C   UNL     1      10.581  13.363  17.596  0.00  0.00    +0.000 A 
ATOM     23  C   UNL     1       9.205  13.162  17.508  0.00  0.00    +0.000 A 
ATOM     24  C   UNL     1       8.653  11.931  17.863  0.00  0.00    +0.000 A 
ENDBRANCH  18  19
ENDBRANCH  17  18
ENDBRANCH  16  17
ENDBRANCH   6  16
TORSDOF 6
ENDMDL
MODEL 4
REMARK VINA RESULT:      -8.2      0.258      1.225
REMARK  Name = 
REMARK  6 active torsions:
REMARK  status: ('A' for Active; 'I' for Inactive)
REMARK    1  A    between atoms: C_2  and  O_3
REMARK    2  A    between atoms: C_2  and  C_4
REMARK    3  A    between atoms: C_9  and  O_10
REMARK    4  A    between atoms: O_10  and  C_11
REMARK    5  A    between atoms: C_11  and  C_12
REMARK    6  A    between atoms: C_12  and  C_13
REMARK                            x       y       z     vdW  Elec       q    Type
REMARK                         _______ _______ _______ _____ _____    ______ ____
ROOT
ATOM      1  C   UNL     1       3.308   3.563  18.991  0.00  0.00    +0.000 A 
ATOM      2  C   UNL     1       3.227   4.621  18.167  0.00  0.00    +0.000 A 
ATOM      3  C   UNL     1       4.414   5.406  17.865  0.00  0.00    +0.000 A 
ATOM      4  C   UNL     1       4.403   6.481  16.973  0.00  0.00    +0.000 A 
ATOM      5  C   UNL     1       5.575   7.218  16.754  0.00  0.00    +0.000 A 
ATOM      6  C   UNL     1       6.765   6.888  17.412  0.00  0.00    +0.000 A 
ATOM      7  C   UNL     1       6.774   5.819  18.305  0.00  0.00    +0.000 A 
ATOM      8  C   UNL     1       5.604   5.090  18.507  0.00  0.00    +0.000 A 
ATOM      9  O   UNL     1       5.686   3.994  19.383  0.00  0.00    +0.000 OA
ATOM     10  C   UNL     1       4.597   3.164  19.581  0.00  0.00    +0.000 A 
ATOM     11  O   UNL     1       4.688   2.122  20.228  0.00  0.00    +0.000 OA
ENDROOT
BRANCH   1  13
ATOM     12  O   UNL     1       1.924   1.627  19.011  0.00  0.00    +0.000 OA
ATOM     13  C   UNL     1       2.062   2.814  19.275  0.00  0.00    +0.000 C 
BRANCH  13  14
ATOM     14  O   UNL     1       1.085   3.525  19.875  0.00  0.00    +0.000 OA
ATOM     15  H   UNL     1       1.369   4.061  20.655  0.00  0.00    +0.000 HD
ENDBRANCH  13  14
ENDBRANCH   1  13
BRANCH   6  16
ATOM     16  O   UNL     1       7.841   7.689  17.139  0.00  0.00    +0.000 OA
BRANCH  16  17
ATOM     17  C   UNL     1       8.359   8.425  18.254  0.00  0.00    +0.000 C 
BRANCH  17  18
ATOM     18  C   UNL     1       8.241   9.922  17.972  0.00  0.00    +0.000 C 
BRANCH  18  19
ATOM     19  C   UNL     1       9.367  10.690  18.618  0.00  0.00    +0.000 A 
ATOM     20  C   UNL     1      10.443  11.149  17.848  0.00  0.00    +0.000 A 
ATOM     21  C   UNL     1      11.507  11.824  18.448  0.00  0.00    +0.000 A 
ATOM     22  C   UNL     1      11.509  12.042  19.824  0.00  0.00    +0.000 A 
ATOM     23  C   UNL     1      10.445  11.585  20.601  0.00  0.00    +0.000 A 
ATOM     24  C   UNL     1       9.380  10.911  20.003  0.00  0.00    +0.000 A 
ENDBRANCH  18  19
ENDBRANCH  17  18
ENDBRANCH  16  17
ENDBRANCH   6  16
TORSDOF 6
ENDMDL
MODEL 5
REMARK VINA RESULT:      -8.2      4.371      6.800
REMARK  Name = 
REMARK  6 active torsions:
REMARK  status: ('A' for Active; 'I' for Inactive)
REMARK    1  A    between atoms: C_2  and  O_3
REMARK    2  A    between atoms: C_2  and  C_4
REMARK    3  A    between atoms: C_9  and  O_10
REMARK    4  A    between atoms: O_10  and  C_11
REMARK    5  A    between atoms: C_11  and  C_12
REMARK    6  A    between atoms: C_12  and  C_13
REMARK                            x       y       z     vdW  Elec       q    Type
REMARK                         _______ _______ _______ _____ _____    ______ ____
ROOT
ATOM      1  C   UNL     1       2.549   3.636  19.630  0.00  0.00    +0.000 A 
ATOM      2  C   UNL     1       2.942   4.889  19.346  0.00  0.00    +0.000 A 
ATOM      3  C   UNL     1       3.724   5.157  18.149  0.00  0.00    +0.000 A 
ATOM      4  C   UNL     1       4.112   6.445  17.772  0.00  0.00    +0.000 A 
ATOM      5  C   UNL     1       4.896   6.629  16.624  0.00  0.00    +0.000 A 
ATOM      6  C   UNL     1       5.292   5.539  15.842  0.00  0.00    +0.000 A 
ATOM      7  C   UNL     1       4.908   4.254  16.221  0.00  0.00    +0.000 A 
ATOM      8  C   UNL     1       4.122   4.087  17.359  0.00  0.00    +0.000 A 
ATOM      9  O   UNL     1       3.727   2.773  17.666  0.00  0.00    +0.000 OA
ATOM     10  C   UNL     1       2.879   2.521  18.729  0.00  0.00    +0.000 A 
ATOM     11  O   UNL     1       2.408   1.402  18.927  0.00  0.00    +0.000 OA
ENDROOT
BRANCH   1  13
ATOM     12  O   UNL     1       2.259   3.530  21.990  0.00  0.00    +0.000 OA
ATOM     13  C   UNL     1       1.771   3.424  20.873  0.00  0.00    +0.000 C 
BRANCH  13  14
ATOM     14  O   UNL     1       0.466   3.128  20.694  0.00  0.00    +0.000 OA
ATOM     15  H   UNL     1      -0.031   3.746  20.106  0.00  0.00    +0.000 HD
ENDBRANCH  13  14
ENDBRANCH   1  13
BRANCH   6  16
ATOM     16  O   UNL     1       6.074   5.834  14.757  0.00  0.00    +0.000 OA
BRANCH  16  17
ATOM     17  C   UNL     1       7.089   4.871  14.450  0.00  0.00    +0.000 C 
BRANCH  17  18
ATOM     18  C   UNL     1       7.396   4.918  12.954  0.00  0.00    +0.000 C 
BRANCH  18  19
ATOM     19  C   UNL     1       6.808   3.727  12.238  0.00  0.00    +0.000 A 
ATOM     20  C   UNL     1       5.420   3.555  12.172  0.00  0.00    +0.000 A 
ATOM     21  C   UNL     1       4.874   2.434  11.547  0.00  0.00    +0.000 A 
ATOM     22  C   UNL     1       5.709   1.470  10.986  0.00  0.00    +0.000 A 
ATOM     23  C   UNL     1       7.092   1.628  11.050  0.00  0.00    +0.000 A 
ATOM     24  C   UNL     1       7.641   2.749  11.674  0.00  0.00    +0.000 A 
ENDBRANCH  18  19
ENDBRANCH  17  18
ENDBRANCH  16  17
ENDBRANCH   6  16
TORSDOF 6
ENDMDL
MODEL 6
REMARK VINA RESULT:      -8.1      1.256      1.939
REMARK  Name = 
REMARK  6 active torsions:
REMARK  status: ('A' for Active; 'I' for Inactive)
REMARK    1  A    between atoms: C_2  and  O_3
REMARK    2  A    between atoms: C_2  and  C_4
REMARK    3  A    between atoms: C_9  and  O_10
REMARK    4  A    between atoms: O_10  and  C_11
REMARK    5  A    between atoms: C_11  and  C_12
REMARK    6  A    between atoms: C_12  and  C_13
REMARK                            x       y       z     vdW  Elec       q    Type
REMARK                         _______ _______ _______ _____ _____    ______ ____
ROOT
ATOM      1  C   UNL     1       3.551   3.557  18.501  0.00  0.00    +0.000 A 
ATOM      2  C   UNL     1       4.839   3.672  18.867  0.00  0.00    +0.000 A 
ATOM      3  C   UNL     1       5.608   4.845  18.482  0.00  0.00    +0.000 A 
ATOM      4  C   UNL     1       6.932   5.046  18.881  0.00  0.00    +0.000 A 
ATOM      5  C   UNL     1       7.627   6.182  18.444  0.00  0.00    +0.000 A 
ATOM      6  C   UNL     1       7.011   7.128  17.617  0.00  0.00    +0.000 A 
ATOM      7  C   UNL     1       5.692   6.925  17.216  0.00  0.00    +0.000 A 
ATOM      8  C   UNL     1       5.011   5.795  17.664  0.00  0.00    +0.000 A 
ATOM      9  O   UNL     1       3.669   5.667  17.265  0.00  0.00    +0.000 OA
ATOM     10  C   UNL     1       2.891   4.622  17.729  0.00  0.00    +0.000 A 
ATOM     11  O   UNL     1       1.682   4.570  17.508  0.00  0.00    +0.000 OA
ENDROOT
BRANCH   1  13
ATOM     12  O   UNL     1       1.888   2.343  19.694  0.00  0.00    +0.000 OA
ATOM     13  C   UNL     1       2.826   2.331  18.908  0.00  0.00    +0.000 C 
BRANCH  13  14
ATOM     14  O   UNL     1       3.253   1.189  18.330  0.00  0.00    +0.000 OA
ATOM     15  H   UNL     1       2.707   0.388  18.522  0.00  0.00    +0.000 HD
ENDBRANCH  13  14
ENDBRANCH   1  13
BRANCH   6  16
ATOM     16  O   UNL     1       7.791   8.186  17.235  0.00  0.00    +0.000 OA
BRANCH  16  17
ATOM     17  C   UNL     1       8.214   9.053  18.294  0.00  0.00    +0.000 C 
BRANCH  17  18
ATOM     18  C   UNL     1       8.596  10.414  17.713  0.00  0.00    +0.000 C 
BRANCH  18  19
ATOM     19  C   UNL     1       9.760  11.019  18.458  0.00  0.00    +0.000 A 
ATOM     20  C   UNL     1       9.736  11.108  19.856  0.00  0.00    +0.000 A 
ATOM     21  C   UNL     1      10.791  11.704  20.546  0.00  0.00    +0.000 A 
ATOM     22  C   UNL     1      11.879  12.223  19.847  0.00  0.00    +0.000 A 
ATOM     23  C   UNL     1      11.911  12.144  18.456  0.00  0.00    +0.000 A 
ATOM     24  C   UNL     1      10.857  11.547  17.763  0.00  0.00    +0.000 A 
ENDBRANCH  18  19
ENDBRANCH  17  18
ENDBRANCH  16  17
ENDBRANCH   6  16
TORSDOF 6
ENDMDL
MODEL 7
REMARK VINA RESULT:      -8.0      1.269      1.774
REMARK  Name = 
REMARK  6 active torsions:
REMARK  status: ('A' for Active; 'I' for Inactive)
REMARK    1  A    between atoms: C_2  and  O_3
REMARK    2  A    between atoms: C_2  and  C_4
REMARK    3  A    between atoms: C_9  and  O_10
REMARK    4  A    between atoms: O_10  and  C_11
REMARK    5  A    between atoms: C_11  and  C_12
REMARK    6  A    between atoms: C_12  and  C_13
REMARK                            x       y       z     vdW  Elec       q    Type
REMARK                         _______ _______ _______ _____ _____    ______ ____
ROOT
ATOM      1  C   UNL     1       3.582   3.744  17.961  0.00  0.00    +0.000 A 
ATOM      2  C   UNL     1       3.904   4.822  17.226  0.00  0.00    +0.000 A 
ATOM      3  C   UNL     1       5.119   5.567  17.513  0.00  0.00    +0.000 A 
ATOM      4  C   UNL     1       5.535   6.660  16.749  0.00  0.00    +0.000 A 
ATOM      5  C   UNL     1       6.699   7.358  17.103  0.00  0.00    +0.000 A 
ATOM      6  C   UNL     1       7.459   6.969  18.212  0.00  0.00    +0.000 A 
ATOM      7  C   UNL     1       7.043   5.882  18.976  0.00  0.00    +0.000 A 
ATOM      8  C   UNL     1       5.889   5.193  18.608  0.00  0.00    +0.000 A 
ATOM      9  O   UNL     1       5.543   4.077  19.389  0.00  0.00    +0.000 OA
ATOM     10  C   UNL     1       4.460   3.285  19.049  0.00  0.00    +0.000 A 
ATOM     11  O   UNL     1       4.227   2.227  19.631  0.00  0.00    +0.000 OA
ENDROOT
BRANCH   1  13
ATOM     12  O   UNL     1       2.291   1.866  17.273  0.00  0.00    +0.000 OA
ATOM     13  C   UNL     1       2.323   3.037  17.631  0.00  0.00    +0.000 C 
BRANCH  13  14
ATOM     14  O   UNL     1       1.196   3.765  17.777  0.00  0.00    +0.000 OA
ATOM     15  H   UNL     1       0.831   3.800  18.693  0.00  0.00    +0.000 HD
ENDBRANCH  13  14
ENDBRANCH   1  13
BRANCH   6  16
ATOM     16  O   UNL     1       8.563   7.735  18.477  0.00  0.00    +0.000 OA
BRANCH  16  17
ATOM     17  C   UNL     1       8.427   9.131  18.184  0.00  0.00    +0.000 C 
BRANCH  17  18
ATOM     18  C   UNL     1       9.258   9.940  19.180  0.00  0.00    +0.000 C 
BRANCH  18  19
ATOM     19  C   UNL     1       9.829  11.179  18.535  0.00  0.00    +0.000 A 
ATOM     20  C   UNL     1       8.979  12.198  18.086  0.00  0.00    +0.000 A 
ATOM     21  C   UNL     1       9.500  13.326  17.452  0.00  0.00    +0.000 A 
ATOM     22  C   UNL     1      10.875  13.445  17.256  0.00  0.00    +0.000 A 
ATOM     23  C   UNL     1      11.729  12.436  17.695  0.00  0.00    +0.000 A 
ATOM     24  C   UNL     1      11.210  11.306  18.330  0.00  0.00    +0.000 A 
ENDBRANCH  18  19
ENDBRANCH  17  18
ENDBRANCH  16  17
ENDBRANCH   6  16
TORSDOF 6
ENDMDL
MODEL 8
REMARK VINA RESULT:      -8.0      4.655      7.678
REMARK  Name = 
REMARK  6 active torsions:
REMARK  status: ('A' for Active; 'I' for Inactive)
REMARK    1  A    between atoms: C_2  and  O_3
REMARK    2  A    between atoms: C_2  and  C_4
REMARK    3  A    between atoms: C_9  and  O_10
REMARK    4  A    between atoms: O_10  and  C_11
REMARK    5  A    between atoms: C_11  and  C_12
REMARK    6  A    between atoms: C_12  and  C_13
REMARK                            x       y       z     vdW  Elec       q    Type
REMARK                         _______ _______ _______ _____ _____    ______ ____
ROOT
ATOM      1  C   UNL     1       6.444   5.001  15.772  0.00  0.00    +0.000 A 
ATOM      2  C   UNL     1       5.224   5.565  15.794  0.00  0.00    +0.000 A 
ATOM      3  C   UNL     1       4.520   5.737  17.054  0.00  0.00    +0.000 A 
ATOM      4  C   UNL     1       3.276   6.367  17.146  0.00  0.00    +0.000 A 
ATOM      5  C   UNL     1       2.635   6.468  18.389  0.00  0.00    +0.000 A 
ATOM      6  C   UNL     1       3.228   5.953  19.547  0.00  0.00    +0.000 A 
ATOM      7  C   UNL     1       4.466   5.322  19.455  0.00  0.00    +0.000 A 
ATOM      8  C   UNL     1       5.095   5.235  18.214  0.00  0.00    +0.000 A 
ATOM      9  O   UNL     1       6.363   4.628  18.191  0.00  0.00    +0.000 OA
ATOM     10  C   UNL     1       7.097   4.572  17.019  0.00  0.00    +0.000 A 
ATOM     11  O   UNL     1       8.262   4.177  17.006  0.00  0.00    +0.000 OA
ENDROOT
BRANCH   1  13
ATOM     12  O   UNL     1       7.977   5.590  14.050  0.00  0.00    +0.000 OA
ATOM     13  C   UNL     1       7.102   4.835  14.456  0.00  0.00    +0.000 C 
BRANCH  13  14
ATOM     14  O   UNL     1       6.691   3.772  13.733  0.00  0.00    +0.000 OA
ATOM     15  H   UNL     1       5.877   3.324  14.066  0.00  0.00    +0.000 HD
ENDBRANCH  13  14
ENDBRANCH   1  13
BRANCH   6  16
ATOM     16  O   UNL     1       2.503   6.089  20.701  0.00  0.00    +0.000 OA
BRANCH  16  17
ATOM     17  C   UNL     1       1.274   5.354  20.744  0.00  0.00    +0.000 C 
BRANCH  17  18
ATOM     18  C   UNL     1       1.554   3.926  21.212  0.00  0.00    +0.000 C 
BRANCH  18  19
ATOM     19  C   UNL     1       2.180   3.104  20.114  0.00  0.00    +0.000 A 
ATOM     20  C   UNL     1       3.389   2.432  20.335  0.00  0.00    +0.000 A 
ATOM     21  C   UNL     1       3.993   1.705  19.309  0.00  0.00    +0.000 A 
ATOM     22  C   UNL     1       3.398   1.646  18.050  0.00  0.00    +0.000 A 
ATOM     23  C   UNL     1       2.198   2.315  17.817  0.00  0.00    +0.000 A 
ATOM     24  C   UNL     1       1.591   3.043  18.842  0.00  0.00    +0.000 A 
ENDBRANCH  18  19
ENDBRANCH  17  18
ENDBRANCH  16  17
ENDBRANCH   6  16
TORSDOF 6
ENDMDL
MODEL 9
REMARK VINA RESULT:      -7.9      0.923      1.347
REMARK  Name = 
REMARK  6 active torsions:
REMARK  status: ('A' for Active; 'I' for Inactive)
REMARK    1  A    between atoms: C_2  and  O_3
REMARK    2  A    between atoms: C_2  and  C_4
REMARK    3  A    between atoms: C_9  and  O_10
REMARK    4  A    between atoms: O_10  and  C_11
REMARK    5  A    between atoms: C_11  and  C_12
REMARK    6  A    between atoms: C_12  and  C_13
REMARK                            x       y       z     vdW  Elec       q    Type
REMARK                         _______ _______ _______ _____ _____    ______ ____
ROOT
ATOM      1  C   UNL     1       2.788   3.738  18.984  0.00  0.00    +0.000 A 
ATOM      2  C   UNL     1       2.898   4.797  18.165  0.00  0.00    +0.000 A 
ATOM      3  C   UNL     1       4.188   5.440  17.971  0.00  0.00    +0.000 A 
ATOM      4  C   UNL     1       4.376   6.508  17.090  0.00  0.00    +0.000 A 
ATOM      5  C   UNL     1       5.640   7.106  16.977  0.00  0.00    +0.000 A 
ATOM      6  C   UNL     1       6.723   6.642  17.731  0.00  0.00    +0.000 A 
ATOM      7  C   UNL     1       6.535   5.580  18.613  0.00  0.00    +0.000 A 
ATOM      8  C   UNL     1       5.276   4.991  18.709  0.00  0.00    +0.000 A 
ATOM      9  O   UNL     1       5.157   3.894  19.580  0.00  0.00    +0.000 OA
ATOM     10  C   UNL     1       3.967   3.195  19.678  0.00  0.00    +0.000 A 
ATOM     11  O   UNL     1       3.883   2.151  20.322  0.00  0.00    +0.000 OA
ENDROOT
BRANCH   1  13
ATOM     12  O   UNL     1       0.846   2.576  18.247  0.00  0.00    +0.000 OA
ATOM     13  C   UNL     1       1.444   3.137  19.156  0.00  0.00    +0.000 C 
BRANCH  13  14
ATOM     14  O   UNL     1       0.926   3.226  20.398  0.00  0.00    +0.000 OA
ATOM     15  H   UNL     1       1.473   2.824  21.115  0.00  0.00    +0.000 HD
ENDBRANCH  13  14
ENDBRANCH   1  13
BRANCH   6  16
ATOM     16  O   UNL     1       7.903   7.314  17.557  0.00  0.00    +0.000 OA
BRANCH  16  17
ATOM     17  C   UNL     1       7.835   8.734  17.738  0.00  0.00    +0.000 C 
BRANCH  17  18
ATOM     18  C   UNL     1       8.882   9.164  18.765  0.00  0.00    +0.000 C 
BRANCH  18  19
ATOM     19  C   UNL     1       9.230  10.624  18.612  0.00  0.00    +0.000 A 
ATOM     20  C   UNL     1       8.443  11.458  17.807  0.00  0.00    +0.000 A 
ATOM     21  C   UNL     1       8.786  12.799  17.629  0.00  0.00    +0.000 A 
ATOM     22  C   UNL     1       9.920  13.318  18.249  0.00  0.00    +0.000 A 
ATOM     23  C   UNL     1      10.713  12.497  19.048  0.00  0.00    +0.000 A 
ATOM     24  C   UNL     1      10.373  11.156  19.228  0.00  0.00    +0.000 A 
ENDBRANCH  18  19
ENDBRANCH  17  18
ENDBRANCH  16  17
ENDBRANCH   6  16
TORSDOF 6
ENDMDL
