MODEL 1
REMARK VINA RESULT:      -8.0      0.000      0.000
REMARK  Name = 
REMARK  2 active torsions:
REMARK  status: ('A' for Active; 'I' for Inactive)
REMARK    1  A    between atoms: C_2  and  O_3
REMARK    2  A    between atoms: C_2  and  C_4
REMARK                            x       y       z     vdW  Elec       q    Type
REMARK                         _______ _______ _______ _____ _____    ______ ____
ROOT
ATOM      1  C   UNL     1       6.718   5.274  18.050  0.00  0.00    +0.000 A 
ATOM      2  C   UNL     1       7.154   4.822  16.794  0.00  0.00    +0.000 A 
ATOM      3  C   UNL     1       6.289   4.142  15.937  0.00  0.00    +0.000 A 
ATOM      4  C   UNL     1       4.966   3.877  16.319  0.00  0.00    +0.000 A 
ATOM      5  C   UNL     1       4.512   4.292  17.587  0.00  0.00    +0.000 A 
ATOM      6  C   UNL     1       3.288   4.160  18.299  0.00  0.00    +0.000 A 
ATOM      7  C   UNL     1       3.451   4.767  19.527  0.00  0.00    +0.000 A 
ATOM      8  N   UNL     1       4.726   5.249  19.600  0.00  0.00    +0.000 N 
ATOM      9  C   UNL     1       5.396   4.977  18.424  0.00  0.00    +0.000 A 
ATOM     10  C   UNL     1       2.458   4.820  20.634  0.00  0.00    +0.000 C 
ATOM     11  C   UNL     1       1.096   4.269  20.166  0.00  0.00    +0.000 C 
ATOM     12  C   UNL     1       1.224   3.091  19.182  0.00  0.00    +0.000 C 
ATOM     13  C   UNL     1       2.012   3.487  17.919  0.00  0.00    +0.000 C 
ATOM     14  H   UNL     1       5.157   5.698  20.403  0.00  0.00    +0.000 HD
ENDROOT
BRANCH   1  16
ATOM     15  O   UNL     1       8.229   6.990  18.697  0.00  0.00    +0.000 OA
ATOM     16  C   UNL     1       7.598   5.990  19.002  0.00  0.00    +0.000 C 
BRANCH  16  17
ATOM     17  O   UNL     1       7.687   5.401  20.211  0.00  0.00    +0.000 OA
ATOM     18  H   UNL     1       7.840   6.018  20.950  0.00  0.00    +0.000 HD
ENDBRANCH  16  17
ENDBRANCH   1  16
TORSDOF 2
ENDMDL
MODEL 2
REMARK VINA RESULT:      -7.8      1.896      2.374
REMARK  Name = 
REMARK  2 active torsions:
REMARK  status: ('A' for Active; 'I' for Inactive)
REMARK    1  A    between atoms: C_2  and  O_3
REMARK    2  A    between atoms: C_2  and  C_4
REMARK                            x       y       z     vdW  Elec       q    Type
REMARK                         _______ _______ _______ _____ _____    ______ ____
ROOT
ATOM      1  C   UNL     1       6.066   5.365  17.525  0.00  0.00    +0.000 A 
ATOM      2  C   UNL     1       5.727   6.524  16.808  0.00  0.00    +0.000 A 
ATOM      3  C   UNL     1       4.487   7.139  16.985  0.00  0.00    +0.000 A 
ATOM      4  C   UNL     1       3.544   6.603  17.873  0.00  0.00    +0.000 A 
ATOM      5  C   UNL     1       3.847   5.423  18.582  0.00  0.00    +0.000 A 
ATOM      6  C   UNL     1       3.137   4.604  19.502  0.00  0.00    +0.000 A 
ATOM      7  C   UNL     1       3.962   3.555  19.851  0.00  0.00    +0.000 A 
ATOM      8  N   UNL     1       5.138   3.692  19.172  0.00  0.00    +0.000 N 
ATOM      9  C   UNL     1       5.097   4.830  18.392  0.00  0.00    +0.000 A 
ATOM     10  C   UNL     1       3.622   2.410  20.738  0.00  0.00    +0.000 C 
ATOM     11  C   UNL     1       2.254   2.635  21.412  0.00  0.00    +0.000 C 
ATOM     12  C   UNL     1       1.237   3.346  20.498  0.00  0.00    +0.000 C 
ATOM     13  C   UNL     1       1.750   4.724  20.039  0.00  0.00    +0.000 C 
ATOM     14  H   UNL     1       5.920   3.044  19.182  0.00  0.00    +0.000 HD
ENDROOT
BRANCH   1  16
ATOM     15  O   UNL     1       8.052   4.327  18.314  0.00  0.00    +0.000 OA
ATOM     16  C   UNL     1       7.362   4.666  17.366  0.00  0.00    +0.000 C 
BRANCH  16  17
ATOM     17  O   UNL     1       7.737   4.498  16.083  0.00  0.00    +0.000 OA
ATOM     18  H   UNL     1       7.880   3.569  15.822  0.00  0.00    +0.000 HD
ENDBRANCH  16  17
ENDBRANCH   1  16
TORSDOF 2
ENDMDL
MODEL 3
REMARK VINA RESULT:      -7.5      1.040      1.348
REMARK  Name = 
REMARK  2 active torsions:
REMARK  status: ('A' for Active; 'I' for Inactive)
REMARK    1  A    between atoms: C_2  and  O_3
REMARK    2  A    between atoms: C_2  and  C_4
REMARK                            x       y       z     vdW  Elec       q    Type
REMARK                         _______ _______ _______ _____ _____    ______ ____
ROOT
ATOM      1  C   UNL     1       6.863   5.499  18.070  0.00  0.00    +0.000 A 
ATOM      2  C   UNL     1       7.168   5.784  16.729  0.00  0.00    +0.000 A 
ATOM      3  C   UNL     1       6.304   5.405  15.702  0.00  0.00    +0.000 A 
ATOM      4  C   UNL     1       5.118   4.713  15.984  0.00  0.00    +0.000 A 
ATOM      5  C   UNL     1       4.803   4.386  17.318  0.00  0.00    +0.000 A 
ATOM      6  C   UNL     1       3.742   3.678  17.946  0.00  0.00    +0.000 A 
ATOM      7  C   UNL     1       3.991   3.670  19.303  0.00  0.00    +0.000 A 
ATOM      8  N   UNL     1       5.165   4.329  19.527  0.00  0.00    +0.000 N 
ATOM      9  C   UNL     1       5.681   4.783  18.329  0.00  0.00    +0.000 A 
ATOM     10  C   UNL     1       3.186   2.989  20.353  0.00  0.00    +0.000 C 
ATOM     11  C   UNL     1       1.877   2.434  19.757  0.00  0.00    +0.000 C 
ATOM     12  C   UNL     1       2.042   1.902  18.320  0.00  0.00    +0.000 C 
ATOM     13  C   UNL     1       2.551   2.996  17.362  0.00  0.00    +0.000 C 
ATOM     14  H   UNL     1       5.635   4.439  20.420  0.00  0.00    +0.000 HD
ENDROOT
BRANCH   1  16
ATOM     15  O   UNL     1       7.792   5.235  20.240  0.00  0.00    +0.000 OA
ATOM     16  C   UNL     1       7.750   5.867  19.197  0.00  0.00    +0.000 C 
BRANCH  16  17
ATOM     17  O   UNL     1       8.455   6.998  18.990  0.00  0.00    +0.000 OA
ATOM     18  H   UNL     1       8.793   7.102  18.081  0.00  0.00    +0.000 HD
ENDBRANCH  16  17
ENDBRANCH   1  16
TORSDOF 2
ENDMDL
MODEL 4
REMARK VINA RESULT:      -7.4      2.119      2.682
REMARK  Name = 
REMARK  2 active torsions:
REMARK  status: ('A' for Active; 'I' for Inactive)
REMARK    1  A    between atoms: C_2  and  O_3
REMARK    2  A    between atoms: C_2  and  C_4
REMARK                            x       y       z     vdW  Elec       q    Type
REMARK                         _______ _______ _______ _____ _____    ______ ____
ROOT
ATOM      1  C   UNL     1       6.004   5.430  16.769  0.00  0.00    +0.000 A 
ATOM      2  C   UNL     1       5.795   6.814  16.652  0.00  0.00    +0.000 A 
ATOM      3  C   UNL     1       4.622   7.403  17.124  0.00  0.00    +0.000 A 
ATOM      4  C   UNL     1       3.615   6.623  17.711  0.00  0.00    +0.000 A 
ATOM      5  C   UNL     1       3.786   5.228  17.812  0.00  0.00    +0.000 A 
ATOM      6  C   UNL     1       2.982   4.158  18.294  0.00  0.00    +0.000 A 
ATOM      7  C   UNL     1       3.691   2.988  18.113  0.00  0.00    +0.000 A 
ATOM      8  N   UNL     1       4.885   3.298  17.529  0.00  0.00    +0.000 N 
ATOM      9  C   UNL     1       4.972   4.663  17.338  0.00  0.00    +0.000 A 
ATOM     10  C   UNL     1       3.223   1.608  18.409  0.00  0.00    +0.000 C 
ATOM     11  C   UNL     1       1.875   1.642  19.157  0.00  0.00    +0.000 C 
ATOM     12  C   UNL     1       0.950   2.781  18.687  0.00  0.00    +0.000 C 
ATOM     13  C   UNL     1       1.607   4.162  18.872  0.00  0.00    +0.000 C 
ATOM     14  H   UNL     1       5.597   2.640  17.224  0.00  0.00    +0.000 HD
ENDROOT
BRANCH   1  16
ATOM     15  O   UNL     1       7.528   4.714  15.093  0.00  0.00    +0.000 OA
ATOM     16  C   UNL     1       7.223   4.752  16.275  0.00  0.00    +0.000 C 
BRANCH  16  17
ATOM     17  O   UNL     1       7.930   4.128  17.238  0.00  0.00    +0.000 OA
ATOM     18  H   UNL     1       7.396   3.571  17.835  0.00  0.00    +0.000 HD
ENDBRANCH  16  17
ENDBRANCH   1  16
TORSDOF 2
ENDMDL
MODEL 5
REMARK VINA RESULT:      -7.4      2.997      5.649
REMARK  Name = 
REMARK  2 active torsions:
REMARK  status: ('A' for Active; 'I' for Inactive)
REMARK    1  A    between atoms: C_2  and  O_3
REMARK    2  A    between atoms: C_2  and  C_4
REMARK                            x       y       z     vdW  Elec       q    Type
REMARK                         _______ _______ _______ _____ _____    ______ ____
ROOT
ATOM      1  C   UNL     1       1.933   3.648  18.938  0.00  0.00    +0.000 A 
ATOM      2  C   UNL     1       1.457   4.478  19.965  0.00  0.00    +0.000 A 
ATOM      3  C   UNL     1       2.036   5.725  20.204  0.00  0.00    +0.000 A 
ATOM      4  C   UNL     1       3.119   6.171  19.434  0.00  0.00    +0.000 A 
ATOM      5  C   UNL     1       3.636   5.343  18.417  0.00  0.00    +0.000 A 
ATOM      6  C   UNL     1       4.717   5.451  17.499  0.00  0.00    +0.000 A 
ATOM      7  C   UNL     1       4.742   4.296  16.745  0.00  0.00    +0.000 A 
ATOM      8  N   UNL     1       3.732   3.484  17.174  0.00  0.00    +0.000 N 
ATOM      9  C   UNL     1       3.036   4.103  18.193  0.00  0.00    +0.000 A 
ATOM     10  C   UNL     1       5.740   3.933  15.703  0.00  0.00    +0.000 C 
ATOM     11  C   UNL     1       6.671   5.125  15.406  0.00  0.00    +0.000 C 
ATOM     12  C   UNL     1       7.000   5.964  16.656  0.00  0.00    +0.000 C 
ATOM     13  C   UNL     1       5.727   6.533  17.311  0.00  0.00    +0.000 C 
ATOM     14  H   UNL     1       3.533   2.543  16.846  0.00  0.00    +0.000 HD
ENDROOT
BRANCH   1  16
ATOM     15  O   UNL     1       0.168   2.116  18.514  0.00  0.00    +0.000 OA
ATOM     16  C   UNL     1       1.365   2.312  18.649  0.00  0.00    +0.000 C 
BRANCH  16  17
ATOM     17  O   UNL     1       2.282   1.324  18.614  0.00  0.00    +0.000 OA
ATOM     18  H   UNL     1       2.816   1.298  17.799  0.00  0.00    +0.000 HD
ENDBRANCH  16  17
ENDBRANCH   1  16
TORSDOF 2
ENDMDL
MODEL 6
REMARK VINA RESULT:      -7.2      2.459      5.133
REMARK  Name = 
REMARK  2 active torsions:
REMARK  status: ('A' for Active; 'I' for Inactive)
REMARK    1  A    between atoms: C_2  and  O_3
REMARK    2  A    between atoms: C_2  and  C_4
REMARK                            x       y       z     vdW  Elec       q    Type
REMARK                         _______ _______ _______ _____ _____    ______ ____
ROOT
ATOM      1  C   UNL     1       6.586   5.985  17.535  0.00  0.00    +0.000 A 
ATOM      2  C   UNL     1       5.563   5.577  18.407  0.00  0.00    +0.000 A 
ATOM      3  C   UNL     1       4.623   4.625  18.012  0.00  0.00    +0.000 A 
ATOM      4  C   UNL     1       4.668   4.066  16.727  0.00  0.00    +0.000 A 
ATOM      5  C   UNL     1       5.665   4.481  15.821  0.00  0.00    +0.000 A 
ATOM      6  C   UNL     1       5.975   4.169  14.469  0.00  0.00    +0.000 A 
ATOM      7  C   UNL     1       7.077   4.918  14.110  0.00  0.00    +0.000 A 
ATOM      8  N   UNL     1       7.442   5.682  15.180  0.00  0.00    +0.000 N 
ATOM      9  C   UNL     1       6.598   5.431  16.243  0.00  0.00    +0.000 A 
ATOM     10  C   UNL     1       7.719   4.971  12.769  0.00  0.00    +0.000 C 
ATOM     11  C   UNL     1       7.114   3.903  11.836  0.00  0.00    +0.000 C 
ATOM     12  C   UNL     1       5.604   3.689  12.058  0.00  0.00    +0.000 C 
ATOM     13  C   UNL     1       5.297   3.256  13.504  0.00  0.00    +0.000 C 
ATOM     14  H   UNL     1       8.185   6.375  15.201  0.00  0.00    +0.000 HD
ENDROOT
BRANCH   1  16
ATOM     15  O   UNL     1       7.832   7.982  17.211  0.00  0.00    +0.000 OA
ATOM     16  C   UNL     1       7.601   7.000  17.899  0.00  0.00    +0.000 C 
BRANCH  16  17
ATOM     17  O   UNL     1       8.287   6.708  19.021  0.00  0.00    +0.000 OA
ATOM     18  H   UNL     1       7.895   7.066  19.839  0.00  0.00    +0.000 HD
ENDBRANCH  16  17
ENDBRANCH   1  16
TORSDOF 2
ENDMDL
MODEL 7
REMARK VINA RESULT:      -7.2      2.084      3.072
REMARK  Name = 
REMARK  2 active torsions:
REMARK  status: ('A' for Active; 'I' for Inactive)
REMARK    1  A    between atoms: C_2  and  O_3
REMARK    2  A    between atoms: C_2  and  C_4
REMARK                            x       y       z     vdW  Elec       q    Type
REMARK                         _______ _______ _______ _____ _____    ______ ____
ROOT
ATOM      1  C   UNL     1       6.597   4.849  16.660  0.00  0.00    +0.000 A 
ATOM      2  C   UNL     1       7.548   5.533  17.434  0.00  0.00    +0.000 A 
ATOM      3  C   UNL     1       7.321   5.789  18.786  0.00  0.00    +0.000 A 
ATOM      4  C   UNL     1       6.128   5.384  19.400  0.00  0.00    +0.000 A 
ATOM      5  C   UNL     1       5.142   4.724  18.639  0.00  0.00    +0.000 A 
ATOM      6  C   UNL     1       3.839   4.226  18.913  0.00  0.00    +0.000 A 
ATOM      7  C   UNL     1       3.344   3.684  17.744  0.00  0.00    +0.000 A 
ATOM      8  N   UNL     1       4.283   3.845  16.767  0.00  0.00    +0.000 N 
ATOM      9  C   UNL     1       5.397   4.474  17.288  0.00  0.00    +0.000 A 
ATOM     10  C   UNL     1       1.991   3.104  17.535  0.00  0.00    +0.000 C 
ATOM     11  C   UNL     1       1.237   2.989  18.875  0.00  0.00    +0.000 C 
ATOM     12  C   UNL     1       1.533   4.154  19.839  0.00  0.00    +0.000 C 
ATOM     13  C   UNL     1       3.034   4.254  20.169  0.00  0.00    +0.000 C 
ATOM     14  H   UNL     1       4.184   3.596  15.788  0.00  0.00    +0.000 HD
ENDROOT
BRANCH   1  16
ATOM     15  O   UNL     1       6.172   3.681  14.636  0.00  0.00    +0.000 OA
ATOM     16  C   UNL     1       6.782   4.563  15.219  0.00  0.00    +0.000 C 
BRANCH  16  17
ATOM     17  O   UNL     1       7.730   5.319  14.629  0.00  0.00    +0.000 OA
ATOM     18  H   UNL     1       8.644   5.074  14.861  0.00  0.00    +0.000 HD
ENDBRANCH  16  17
ENDBRANCH   1  16
TORSDOF 2
ENDMDL
MODEL 8
REMARK VINA RESULT:      -7.2      2.592      3.254
REMARK  Name = 
REMARK  2 active torsions:
REMARK  status: ('A' for Active; 'I' for Inactive)
REMARK    1  A    between atoms: C_2  and  O_3
REMARK    2  A    between atoms: C_2  and  C_4
REMARK                            x       y       z     vdW  Elec       q    Type
REMARK                         _______ _______ _______ _____ _____    ______ ____
ROOT
ATOM      1  C   UNL     1       5.007   5.014  16.085  0.00  0.00    +0.000 A 
ATOM      2  C   UNL     1       5.168   6.403  15.956  0.00  0.00    +0.000 A 
ATOM      3  C   UNL     1       4.555   7.281  16.850  0.00  0.00    +0.000 A 
ATOM      4  C   UNL     1       3.750   6.796  17.890  0.00  0.00    +0.000 A 
ATOM      5  C   UNL     1       3.546   5.408  18.023  0.00  0.00    +0.000 A 
ATOM      6  C   UNL     1       2.783   4.593  18.905  0.00  0.00    +0.000 A 
ATOM      7  C   UNL     1       2.971   3.279  18.527  0.00  0.00    +0.000 A 
ATOM      8  N   UNL     1       3.804   3.260  17.446  0.00  0.00    +0.000 N 
ATOM      9  C   UNL     1       4.175   4.549  17.119  0.00  0.00    +0.000 A 
ATOM     10  C   UNL     1       2.320   2.081  19.119  0.00  0.00    +0.000 C 
ATOM     11  C   UNL     1       1.527   2.464  20.385  0.00  0.00    +0.000 C 
ATOM     12  C   UNL     1       0.853   3.846  20.283  0.00  0.00    +0.000 C 
ATOM     13  C   UNL     1       1.883   4.965  20.034  0.00  0.00    +0.000 C 
ATOM     14  H   UNL     1       4.082   2.442  16.913  0.00  0.00    +0.000 HD
ENDROOT
BRANCH   1  16
ATOM     15  O   UNL     1       5.585   4.163  13.944  0.00  0.00    +0.000 OA
ATOM     16  C   UNL     1       5.624   4.039  15.157  0.00  0.00    +0.000 C 
BRANCH  16  17
ATOM     17  O   UNL     1       6.174   2.972  15.772  0.00  0.00    +0.000 OA
ATOM     18  H   UNL     1       5.806   2.780  16.654  0.00  0.00    +0.000 HD
ENDBRANCH  16  17
ENDBRANCH   1  16
TORSDOF 2
ENDMDL
MODEL 9
REMARK VINA RESULT:      -7.2      0.900      1.248
REMARK  Name = 
REMARK  2 active torsions:
REMARK  status: ('A' for Active; 'I' for Inactive)
REMARK    1  A    between atoms: C_2  and  O_3
REMARK    2  A    between atoms: C_2  and  C_4
REMARK                            x       y       z     vdW  Elec       q    Type
REMARK                         _______ _______ _______ _____ _____    ______ ____
ROOT
ATOM      1  C   UNL     1       6.632   5.778  17.048  0.00  0.00    +0.000 A 
ATOM      2  C   UNL     1       6.984   5.231  15.803  0.00  0.00    +0.000 A 
ATOM      3  C   UNL     1       6.125   4.359  15.135  0.00  0.00    +0.000 A 
ATOM      4  C   UNL     1       4.894   3.995  15.700  0.00  0.00    +0.000 A 
ATOM      5  C   UNL     1       4.530   4.505  16.962  0.00  0.00    +0.000 A 
ATOM      6  C   UNL     1       3.415   4.323  17.826  0.00  0.00    +0.000 A 
ATOM      7  C   UNL     1       3.632   5.087  18.955  0.00  0.00    +0.000 A 
ATOM      8  N   UNL     1       4.836   5.715  18.821  0.00  0.00    +0.000 N 
ATOM      9  C   UNL     1       5.405   5.381  17.608  0.00  0.00    +0.000 A 
ATOM     10  C   UNL     1       2.765   5.160  20.161  0.00  0.00    +0.000 C 
ATOM     11  C   UNL     1       1.440   4.408  19.923  0.00  0.00    +0.000 C 
ATOM     12  C   UNL     1       1.609   3.142  19.061  0.00  0.00    +0.000 C 
ATOM     13  C   UNL     1       2.201   3.469  17.677  0.00  0.00    +0.000 C 
ATOM     14  H   UNL     1       5.291   6.303  19.514  0.00  0.00    +0.000 HD
ENDROOT
BRANCH   1  16
ATOM     15  O   UNL     1       7.945   6.435  18.915  0.00  0.00    +0.000 OA
ATOM     16  C   UNL     1       7.511   6.697  17.805  0.00  0.00    +0.000 C 
BRANCH  16  17
ATOM     17  O   UNL     1       7.736   7.873  17.185  0.00  0.00    +0.000 OA
ATOM     18  H   UNL     1       8.629   7.966  16.804  0.00  0.00    +0.000 HD
ENDBRANCH  16  17
ENDBRANCH   1  16
TORSDOF 2
ENDMDL
