MODEL 1
REMARK VINA RESULT:      -7.8      0.000      0.000
REMARK  Name = 
REMARK  8 active torsions:
REMARK  status: ('A' for Active; 'I' for Inactive)
REMARK    1  A    between atoms: C_1  and  O_2
REMARK    2  A    between atoms: O_2  and  C_3
REMARK    3  A    between atoms: C_3  and  C_5
REMARK    4  A    between atoms: C_5  and  C_6
REMARK    5  A    between atoms: C_5  and  N_13
REMARK    6  A    between atoms: C_6  and  C_7
REMARK    7  A    between atoms: C_14  and  C_15
REMARK    8  A    between atoms: C_20  and  O_21
REMARK                            x       y       z     vdW  Elec       q    Type
REMARK                         _______ _______ _______ _____ _____    ______ ____
ROOT
ATOM      1  C   UNL     1       5.720   4.224  16.762  0.00  0.00    +0.000 C 
ENDROOT
BRANCH   1   2
ATOM      2  C   UNL     1       7.016   4.689  17.438  0.00  0.00    +0.000 C 
ATOM      3  O   UNL     1       8.128   4.202  17.247  0.00  0.00    +0.000 OA
BRANCH   2   5
ATOM      4  C   UNL     1       7.695   5.795  19.404  0.00  0.00    +0.000 C 
ATOM      5  O   UNL     1       6.766   5.701  18.321  0.00  0.00    +0.000 OA
ENDBRANCH   2   5
ENDBRANCH   1   2
BRANCH   1   6
ATOM      6  N   UNL     1       4.617   4.316  17.747  0.00  0.00    +0.000 NA
ATOM      7  C   UNL     1       4.271   3.183  18.262  0.00  0.00    +0.000 C 
BRANCH   7   8
ATOM      8  C   UNL     1       3.175   3.087  19.241  0.00  0.00    +0.000 A 
ATOM      9  C   UNL     1       3.467   2.742  20.565  0.00  0.00    +0.000 A 
ATOM     10  C   UNL     1       2.444   2.678  21.509  0.00  0.00    +0.000 A 
ATOM     11  C   UNL     1       1.131   2.955  21.132  0.00  0.00    +0.000 A 
ATOM     12  C   UNL     1       0.833   3.291  19.807  0.00  0.00    +0.000 A 
ATOM     13  C   UNL     1       1.856   3.357  18.862  0.00  0.00    +0.000 A 
BRANCH  13  14
ATOM     14  O   UNL     1       1.567   3.686  17.567  0.00  0.00    +0.000 OA
ATOM     15  H   UNL     1       0.793   4.272  17.554  0.00  0.00    +0.000 HD
ENDBRANCH  13  14
ENDBRANCH   7   8
ENDBRANCH   1   6
BRANCH   1  16
ATOM     16  C   UNL     1       5.391   5.113  15.542  0.00  0.00    +0.000 C 
BRANCH  16  17
ATOM     17  C   UNL     1       6.041   4.626  14.260  0.00  0.00    +0.000 A 
ATOM     18  C   UNL     1       7.237   5.197  13.800  0.00  0.00    +0.000 A 
ATOM     19  C   UNL     1       7.747   4.860  12.543  0.00  0.00    +0.000 A 
ATOM     20  C   UNL     1       7.083   3.930  11.748  0.00  0.00    +0.000 A 
ATOM     21  C   UNL     1       5.933   3.303  12.225  0.00  0.00    +0.000 A 
ATOM     22  C   UNL     1       5.415   3.650  13.475  0.00  0.00    +0.000 A 
ENDBRANCH  16  17
ENDBRANCH   1  16
TORSDOF 7
ENDMDL
MODEL 2
REMARK VINA RESULT:      -7.8      1.407      1.597
REMARK  Name = 
REMARK  8 active torsions:
REMARK  status: ('A' for Active; 'I' for Inactive)
REMARK    1  A    between atoms: C_1  and  O_2
REMARK    2  A    between atoms: O_2  and  C_3
REMARK    3  A    between atoms: C_3  and  C_5
REMARK    4  A    between atoms: C_5  and  C_6
REMARK    5  A    between atoms: C_5  and  N_13
REMARK    6  A    between atoms: C_6  and  C_7
REMARK    7  A    between atoms: C_14  and  C_15
REMARK    8  A    between atoms: C_20  and  O_21
REMARK                            x       y       z     vdW  Elec       q    Type
REMARK                         _______ _______ _______ _____ _____    ______ ____
ROOT
ATOM      1  C   UNL     1       6.309   4.215  16.917  0.00  0.00    +0.000 C 
ENDROOT
BRANCH   1   2
ATOM      2  C   UNL     1       7.442   4.999  17.592  0.00  0.00    +0.000 C 
ATOM      3  O   UNL     1       8.102   4.605  18.550  0.00  0.00    +0.000 OA
BRANCH   2   5
ATOM      4  C   UNL     1       7.754   7.310  17.927  0.00  0.00    +0.000 C 
ATOM      5  O   UNL     1       7.597   6.225  17.009  0.00  0.00    +0.000 OA
ENDBRANCH   2   5
ENDBRANCH   1   2
BRANCH   1   6
ATOM      6  N   UNL     1       5.262   3.938  17.928  0.00  0.00    +0.000 NA
ATOM      7  C   UNL     1       4.065   4.244  17.548  0.00  0.00    +0.000 C 
BRANCH   7   8
ATOM      8  C   UNL     1       2.906   4.056  18.437  0.00  0.00    +0.000 A 
ATOM      9  C   UNL     1       1.954   3.079  18.125  0.00  0.00    +0.000 A 
ATOM     10  C   UNL     1       0.869   2.869  18.972  0.00  0.00    +0.000 A 
ATOM     11  C   UNL     1       0.730   3.636  20.128  0.00  0.00    +0.000 A 
ATOM     12  C   UNL     1       1.674   4.621  20.439  0.00  0.00    +0.000 A 
ATOM     13  C   UNL     1       2.762   4.831  19.592  0.00  0.00    +0.000 A 
BRANCH  13  14
ATOM     14  O   UNL     1       3.685   5.792  19.894  0.00  0.00    +0.000 OA
ATOM     15  H   UNL     1       4.574   5.448  19.706  0.00  0.00    +0.000 HD
ENDBRANCH  13  14
ENDBRANCH   7   8
ENDBRANCH   1   6
BRANCH   1  16
ATOM     16  C   UNL     1       5.695   5.031  15.758  0.00  0.00    +0.000 C 
BRANCH  16  17
ATOM     17  C   UNL     1       6.203   4.599  14.395  0.00  0.00    +0.000 A 
ATOM     18  C   UNL     1       7.335   5.202  13.827  0.00  0.00    +0.000 A 
ATOM     19  C   UNL     1       7.705   4.918  12.509  0.00  0.00    +0.000 A 
ATOM     20  C   UNL     1       6.965   4.008  11.758  0.00  0.00    +0.000 A 
ATOM     21  C   UNL     1       5.881   3.350  12.336  0.00  0.00    +0.000 A 
ATOM     22  C   UNL     1       5.502   3.644  13.648  0.00  0.00    +0.000 A 
ENDBRANCH  16  17
ENDBRANCH   1  16
TORSDOF 7
ENDMDL
MODEL 3
REMARK VINA RESULT:      -7.7      1.266      1.868
REMARK  Name = 
REMARK  8 active torsions:
REMARK  status: ('A' for Active; 'I' for Inactive)
REMARK    1  A    between atoms: C_1  and  O_2
REMARK    2  A    between atoms: O_2  and  C_3
REMARK    3  A    between atoms: C_3  and  C_5
REMARK    4  A    between atoms: C_5  and  C_6
REMARK    5  A    between atoms: C_5  and  N_13
REMARK    6  A    between atoms: C_6  and  C_7
REMARK    7  A    between atoms: C_14  and  C_15
REMARK    8  A    between atoms: C_20  and  O_21
REMARK                            x       y       z     vdW  Elec       q    Type
REMARK                         _______ _______ _______ _____ _____    ______ ____
ROOT
ATOM      1  C   UNL     1       6.168   4.469  16.768  0.00  0.00    +0.000 C 
ENDROOT
BRANCH   1   2
ATOM      2  C   UNL     1       7.273   5.383  17.314  0.00  0.00    +0.000 C 
ATOM      3  O   UNL     1       7.604   6.461  16.826  0.00  0.00    +0.000 OA
BRANCH   2   5
ATOM      4  C   UNL     1       7.965   5.667  19.548  0.00  0.00    +0.000 C 
ATOM      5  O   UNL     1       7.877   4.818  18.401  0.00  0.00    +0.000 OA
ENDBRANCH   2   5
ENDBRANCH   1   2
BRANCH   1   6
ATOM      6  N   UNL     1       5.209   4.186  17.862  0.00  0.00    +0.000 NA
ATOM      7  C   UNL     1       3.971   4.182  17.492  0.00  0.00    +0.000 C 
BRANCH   7   8
ATOM      8  C   UNL     1       2.883   3.940  18.455  0.00  0.00    +0.000 A 
ATOM      9  C   UNL     1       1.909   2.980  18.162  0.00  0.00    +0.000 A 
ATOM     10  C   UNL     1       0.892   2.719  19.077  0.00  0.00    +0.000 A 
ATOM     11  C   UNL     1       0.844   3.418  20.283  0.00  0.00    +0.000 A 
ATOM     12  C   UNL     1       1.810   4.387  20.576  0.00  0.00    +0.000 A 
ATOM     13  C   UNL     1       2.830   4.647  19.660  0.00  0.00    +0.000 A 
BRANCH  13  14
ATOM     14  O   UNL     1       3.775   5.592  19.945  0.00  0.00    +0.000 OA
ATOM     15  H   UNL     1       3.339   6.373  20.324  0.00  0.00    +0.000 HD
ENDBRANCH  13  14
ENDBRANCH   7   8
ENDBRANCH   1   6
BRANCH   1  16
ATOM     16  C   UNL     1       5.422   5.153  15.600  0.00  0.00    +0.000 C 
BRANCH  16  17
ATOM     17  C   UNL     1       5.911   4.699  14.237  0.00  0.00    +0.000 A 
ATOM     18  C   UNL     1       5.183   3.762  13.489  0.00  0.00    +0.000 A 
ATOM     19  C   UNL     1       5.714   3.226  12.312  0.00  0.00    +0.000 A 
ATOM     20  C   UNL     1       6.962   3.643  11.858  0.00  0.00    +0.000 A 
ATOM     21  C   UNL     1       7.662   4.626  12.556  0.00  0.00    +0.000 A 
ATOM     22  C   UNL     1       7.139   5.151  13.739  0.00  0.00    +0.000 A 
ENDBRANCH  16  17
ENDBRANCH   1  16
TORSDOF 7
ENDMDL
MODEL 4
REMARK VINA RESULT:      -7.6      0.370      1.115
REMARK  Name = 
REMARK  8 active torsions:
REMARK  status: ('A' for Active; 'I' for Inactive)
REMARK    1  A    between atoms: C_1  and  O_2
REMARK    2  A    between atoms: O_2  and  C_3
REMARK    3  A    between atoms: C_3  and  C_5
REMARK    4  A    between atoms: C_5  and  C_6
REMARK    5  A    between atoms: C_5  and  N_13
REMARK    6  A    between atoms: C_6  and  C_7
REMARK    7  A    between atoms: C_14  and  C_15
REMARK    8  A    between atoms: C_20  and  O_21
REMARK                            x       y       z     vdW  Elec       q    Type
REMARK                         _______ _______ _______ _____ _____    ______ ____
ROOT
ATOM      1  C   UNL     1       5.906   4.257  16.784  0.00  0.00    +0.000 C 
ENDROOT
BRANCH   1   2
ATOM      2  C   UNL     1       7.258   4.795  17.269  0.00  0.00    +0.000 C 
ATOM      3  O   UNL     1       8.277   4.123  17.408  0.00  0.00    +0.000 OA
BRANCH   2   5
ATOM      4  C   UNL     1       7.900   6.525  18.734  0.00  0.00    +0.000 C 
ATOM      5  O   UNL     1       7.171   6.124  17.571  0.00  0.00    +0.000 OA
ENDBRANCH   2   5
ENDBRANCH   1   2
BRANCH   1   6
ATOM      6  N   UNL     1       4.951   4.292  17.917  0.00  0.00    +0.000 NA
ATOM      7  C   UNL     1       4.156   3.274  17.969  0.00  0.00    +0.000 C 
BRANCH   7   8
ATOM      8  C   UNL     1       3.128   3.157  19.018  0.00  0.00    +0.000 A 
ATOM      9  C   UNL     1       3.507   2.776  20.310  0.00  0.00    +0.000 A 
ATOM     10  C   UNL     1       2.551   2.691  21.319  0.00  0.00    +0.000 A 
ATOM     11  C   UNL     1       1.216   2.983  21.039  0.00  0.00    +0.000 A 
ATOM     12  C   UNL     1       0.831   3.355  19.747  0.00  0.00    +0.000 A 
ATOM     13  C   UNL     1       1.789   3.442  18.736  0.00  0.00    +0.000 A 
BRANCH  13  14
ATOM     14  O   UNL     1       1.415   3.806  17.473  0.00  0.00    +0.000 OA
ATOM     15  H   UNL     1       2.153   3.641  16.864  0.00  0.00    +0.000 HD
ENDBRANCH  13  14
ENDBRANCH   7   8
ENDBRANCH   1   6
BRANCH   1  16
ATOM     16  C   UNL     1       5.356   5.125  15.629  0.00  0.00    +0.000 C 
BRANCH  16  17
ATOM     17  C   UNL     1       5.891   4.710  14.270  0.00  0.00    +0.000 A 
ATOM     18  C   UNL     1       5.205   3.770  13.486  0.00  0.00    +0.000 A 
ATOM     19  C   UNL     1       5.779   3.271  12.313  0.00  0.00    +0.000 A 
ATOM     20  C   UNL     1       7.027   3.728  11.899  0.00  0.00    +0.000 A 
ATOM     21  C   UNL     1       7.685   4.714  12.632  0.00  0.00    +0.000 A 
ATOM     22  C   UNL     1       7.119   5.202  13.812  0.00  0.00    +0.000 A 
ENDBRANCH  16  17
ENDBRANCH   1  16
TORSDOF 7
ENDMDL
MODEL 5
REMARK VINA RESULT:      -7.6      1.097      1.656
REMARK  Name = 
REMARK  8 active torsions:
REMARK  status: ('A' for Active; 'I' for Inactive)
REMARK    1  A    between atoms: C_1  and  O_2
REMARK    2  A    between atoms: O_2  and  C_3
REMARK    3  A    between atoms: C_3  and  C_5
REMARK    4  A    between atoms: C_5  and  C_6
REMARK    5  A    between atoms: C_5  and  N_13
REMARK    6  A    between atoms: C_6  and  C_7
REMARK    7  A    between atoms: C_14  and  C_15
REMARK    8  A    between atoms: C_20  and  O_21
REMARK                            x       y       z     vdW  Elec       q    Type
REMARK                         _______ _______ _______ _____ _____    ______ ____
ROOT
ATOM      1  C   UNL     1       6.203   4.312  16.696  0.00  0.00    +0.000 C 
ENDROOT
BRANCH   1   2
ATOM      2  C   UNL     1       7.245   5.267  17.293  0.00  0.00    +0.000 C 
ATOM      3  O   UNL     1       7.580   6.343  16.804  0.00  0.00    +0.000 OA
BRANCH   2   5
ATOM      4  C   UNL     1       7.854   5.644  19.537  0.00  0.00    +0.000 C 
ATOM      5  O   UNL     1       7.789   4.741  18.430  0.00  0.00    +0.000 OA
ENDBRANCH   2   5
ENDBRANCH   1   2
BRANCH   1   6
ATOM      6  N   UNL     1       5.265   3.908  17.770  0.00  0.00    +0.000 NA
ATOM      7  C   UNL     1       4.040   4.260  17.562  0.00  0.00    +0.000 C 
BRANCH   7   8
ATOM      8  C   UNL     1       2.979   3.960  18.539  0.00  0.00    +0.000 A 
ATOM      9  C   UNL     1       2.511   4.978  19.377  0.00  0.00    +0.000 A 
ATOM     10  C   UNL     1       1.487   4.717  20.285  0.00  0.00    +0.000 A 
ATOM     11  C   UNL     1       0.933   3.440  20.360  0.00  0.00    +0.000 A 
ATOM     12  C   UNL     1       1.405   2.416  19.531  0.00  0.00    +0.000 A 
ATOM     13  C   UNL     1       2.429   2.678  18.621  0.00  0.00    +0.000 A 
BRANCH  13  14
ATOM     14  O   UNL     1       2.891   1.679  17.810  0.00  0.00    +0.000 OA
ATOM     15  H   UNL     1       2.882   0.841  18.302  0.00  0.00    +0.000 HD
ENDBRANCH  13  14
ENDBRANCH   7   8
ENDBRANCH   1   6
BRANCH   1  16
ATOM     16  C   UNL     1       5.412   5.006  15.564  0.00  0.00    +0.000 C 
BRANCH  16  17
ATOM     17  C   UNL     1       5.886   4.606  14.178  0.00  0.00    +0.000 A 
ATOM     18  C   UNL     1       5.160   3.683  13.411  0.00  0.00    +0.000 A 
ATOM     19  C   UNL     1       5.680   3.196  12.208  0.00  0.00    +0.000 A 
ATOM     20  C   UNL     1       6.914   3.648  11.748  0.00  0.00    +0.000 A 
ATOM     21  C   UNL     1       7.610   4.619  12.467  0.00  0.00    +0.000 A 
ATOM     22  C   UNL     1       7.098   5.095  13.676  0.00  0.00    +0.000 A 
ENDBRANCH  16  17
ENDBRANCH   1  16
TORSDOF 7
ENDMDL
MODEL 6
REMARK VINA RESULT:      -7.6      1.194      1.318
REMARK  Name = 
REMARK  8 active torsions:
REMARK  status: ('A' for Active; 'I' for Inactive)
REMARK    1  A    between atoms: C_1  and  O_2
REMARK    2  A    between atoms: O_2  and  C_3
REMARK    3  A    between atoms: C_3  and  C_5
REMARK    4  A    between atoms: C_5  and  C_6
REMARK    5  A    between atoms: C_5  and  N_13
REMARK    6  A    between atoms: C_6  and  C_7
REMARK    7  A    between atoms: C_14  and  C_15
REMARK    8  A    between atoms: C_20  and  O_21
REMARK                            x       y       z     vdW  Elec       q    Type
REMARK                         _______ _______ _______ _____ _____    ______ ____
ROOT
ATOM      1  C   UNL     1       6.148   4.725  16.971  0.00  0.00    +0.000 C 
ENDROOT
BRANCH   1   2
ATOM      2  C   UNL     1       7.374   5.425  17.573  0.00  0.00    +0.000 C 
ATOM      3  O   UNL     1       8.014   5.023  18.540  0.00  0.00    +0.000 OA
BRANCH   2   5
ATOM      4  C   UNL     1       7.762   7.742  17.749  0.00  0.00    +0.000 C 
ATOM      5  O   UNL     1       7.640   6.590  16.911  0.00  0.00    +0.000 OA
ENDBRANCH   2   5
ENDBRANCH   1   2
BRANCH   1   6
ATOM      6  N   UNL     1       5.063   4.727  17.980  0.00  0.00    +0.000 NA
ATOM      7  C   UNL     1       4.104   3.898  17.726  0.00  0.00    +0.000 C 
BRANCH   7   8
ATOM      8  C   UNL     1       2.933   3.786  18.612  0.00  0.00    +0.000 A 
ATOM      9  C   UNL     1       2.656   4.818  19.516  0.00  0.00    +0.000 A 
ATOM     10  C   UNL     1       1.535   4.740  20.339  0.00  0.00    +0.000 A 
ATOM     11  C   UNL     1       0.691   3.632  20.262  0.00  0.00    +0.000 A 
ATOM     12  C   UNL     1       0.969   2.594  19.366  0.00  0.00    +0.000 A 
ATOM     13  C   UNL     1       2.091   2.672  18.541  0.00  0.00    +0.000 A 
BRANCH  13  14
ATOM     14  O   UNL     1       2.364   1.660  17.665  0.00  0.00    +0.000 OA
ATOM     15  H   UNL     1       2.773   2.032  16.867  0.00  0.00    +0.000 HD
ENDBRANCH  13  14
ENDBRANCH   7   8
ENDBRANCH   1   6
BRANCH   1  16
ATOM     16  C   UNL     1       5.666   5.463  15.702  0.00  0.00    +0.000 C 
BRANCH  16  17
ATOM     17  C   UNL     1       6.143   4.809  14.418  0.00  0.00    +0.000 A 
ATOM     18  C   UNL     1       7.342   5.210  13.811  0.00  0.00    +0.000 A 
ATOM     19  C   UNL     1       7.697   4.722  12.550  0.00  0.00    +0.000 A 
ATOM     20  C   UNL     1       6.872   3.808  11.899  0.00  0.00    +0.000 A 
ATOM     21  C   UNL     1       5.715   3.349  12.525  0.00  0.00    +0.000 A 
ATOM     22  C   UNL     1       5.352   3.847  13.778  0.00  0.00    +0.000 A 
ENDBRANCH  16  17
ENDBRANCH   1  16
TORSDOF 7
ENDMDL
MODEL 7
REMARK VINA RESULT:      -7.6      1.326      1.938
REMARK  Name = 
REMARK  8 active torsions:
REMARK  status: ('A' for Active; 'I' for Inactive)
REMARK    1  A    between atoms: C_1  and  O_2
REMARK    2  A    between atoms: O_2  and  C_3
REMARK    3  A    between atoms: C_3  and  C_5
REMARK    4  A    between atoms: C_5  and  C_6
REMARK    5  A    between atoms: C_5  and  N_13
REMARK    6  A    between atoms: C_6  and  C_7
REMARK    7  A    between atoms: C_14  and  C_15
REMARK    8  A    between atoms: C_20  and  O_21
REMARK                            x       y       z     vdW  Elec       q    Type
REMARK                         _______ _______ _______ _____ _____    ______ ____
ROOT
ATOM      1  C   UNL     1       6.503   4.754  16.880  0.00  0.00    +0.000 C 
ENDROOT
BRANCH   1   2
ATOM      2  C   UNL     1       7.332   5.776  17.669  0.00  0.00    +0.000 C 
ATOM      3  O   UNL     1       7.648   5.668  18.851  0.00  0.00    +0.000 OA
BRANCH   2   5
ATOM      4  C   UNL     1       7.780   8.088  17.599  0.00  0.00    +0.000 C 
ATOM      5  O   UNL     1       7.642   6.854  16.889  0.00  0.00    +0.000 OA
ENDBRANCH   2   5
ENDBRANCH   1   2
BRANCH   1   6
ATOM      6  N   UNL     1       5.536   4.117  17.805  0.00  0.00    +0.000 NA
ATOM      7  C   UNL     1       4.300   4.398  17.552  0.00  0.00    +0.000 C 
BRANCH   7   8
ATOM      8  C   UNL     1       3.208   3.869  18.387  0.00  0.00    +0.000 A 
ATOM      9  C   UNL     1       2.346   4.761  19.033  0.00  0.00    +0.000 A 
ATOM     10  C   UNL     1       1.289   4.276  19.801  0.00  0.00    +0.000 A 
ATOM     11  C   UNL     1       1.095   2.901  19.926  0.00  0.00    +0.000 A 
ATOM     12  C   UNL     1       1.960   2.004  19.290  0.00  0.00    +0.000 A 
ATOM     13  C   UNL     1       3.017   2.490  18.520  0.00  0.00    +0.000 A 
BRANCH  13  14
ATOM     14  O   UNL     1       3.863   1.617  17.896  0.00  0.00    +0.000 OA
ATOM     15  H   UNL     1       3.396   0.780  17.738  0.00  0.00    +0.000 HD
ENDBRANCH  13  14
ENDBRANCH   7   8
ENDBRANCH   1   6
BRANCH   1  16
ATOM     16  C   UNL     1       5.733   5.445  15.732  0.00  0.00    +0.000 C 
BRANCH  16  17
ATOM     17  C   UNL     1       6.116   4.921  14.361  0.00  0.00    +0.000 A 
ATOM     18  C   UNL     1       5.328   3.955  13.716  0.00  0.00    +0.000 A 
ATOM     19  C   UNL     1       5.766   3.358  12.531  0.00  0.00    +0.000 A 
ATOM     20  C   UNL     1       6.980   3.741  11.964  0.00  0.00    +0.000 A 
ATOM     21  C   UNL     1       7.735   4.751  12.558  0.00  0.00    +0.000 A 
ATOM     22  C   UNL     1       7.305   5.337  13.750  0.00  0.00    +0.000 A 
ENDBRANCH  16  17
ENDBRANCH   1  16
TORSDOF 7
ENDMDL
MODEL 8
REMARK VINA RESULT:      -7.6      1.378      6.977
REMARK  Name = 
REMARK  8 active torsions:
REMARK  status: ('A' for Active; 'I' for Inactive)
REMARK    1  A    between atoms: C_1  and  O_2
REMARK    2  A    between atoms: O_2  and  C_3
REMARK    3  A    between atoms: C_3  and  C_5
REMARK    4  A    between atoms: C_5  and  C_6
REMARK    5  A    between atoms: C_5  and  N_13
REMARK    6  A    between atoms: C_6  and  C_7
REMARK    7  A    between atoms: C_14  and  C_15
REMARK    8  A    between atoms: C_20  and  O_21
REMARK                            x       y       z     vdW  Elec       q    Type
REMARK                         _______ _______ _______ _____ _____    ______ ____
ROOT
ATOM      1  C   UNL     1       4.239   5.104  17.500  0.00  0.00    +0.000 C 
ENDROOT
BRANCH   1   2
ATOM      2  C   UNL     1       5.210   5.570  18.592  0.00  0.00    +0.000 C 
ATOM      3  O   UNL     1       4.981   5.547  19.799  0.00  0.00    +0.000 OA
BRANCH   2   5
ATOM      4  C   UNL     1       7.558   5.700  18.739  0.00  0.00    +0.000 C 
ATOM      5  O   UNL     1       6.362   6.056  18.041  0.00  0.00    +0.000 OA
ENDBRANCH   2   5
ENDBRANCH   1   2
BRANCH   1   6
ATOM      6  N   UNL     1       4.888   5.294  16.181  0.00  0.00    +0.000 NA
ATOM      7  C   UNL     1       5.298   4.198  15.632  0.00  0.00    +0.000 C 
BRANCH   7   8
ATOM      8  C   UNL     1       5.987   4.204  14.330  0.00  0.00    +0.000 A 
ATOM      9  C   UNL     1       5.477   3.430  13.282  0.00  0.00    +0.000 A 
ATOM     10  C   UNL     1       6.100   3.449  12.036  0.00  0.00    +0.000 A 
ATOM     11  C   UNL     1       7.233   4.238  11.836  0.00  0.00    +0.000 A 
ATOM     12  C   UNL     1       7.751   5.006  12.884  0.00  0.00    +0.000 A 
ATOM     13  C   UNL     1       7.127   4.988  14.132  0.00  0.00    +0.000 A 
BRANCH  13  14
ATOM     14  O   UNL     1       7.632   5.738  15.157  0.00  0.00    +0.000 OA
ATOM     15  H   UNL     1       8.292   6.356  14.802  0.00  0.00    +0.000 HD
ENDBRANCH  13  14
ENDBRANCH   7   8
ENDBRANCH   1   6
BRANCH   1  16
ATOM     16  C   UNL     1       3.884   3.611  17.685  0.00  0.00    +0.000 C 
BRANCH  16  17
ATOM     17  C   UNL     1       2.946   3.365  18.851  0.00  0.00    +0.000 A 
ATOM     18  C   UNL     1       1.669   3.946  18.880  0.00  0.00    +0.000 A 
ATOM     19  C   UNL     1       0.871   3.849  20.024  0.00  0.00    +0.000 A 
ATOM     20  C   UNL     1       1.330   3.148  21.137  0.00  0.00    +0.000 A 
ATOM     21  C   UNL     1       2.566   2.506  21.092  0.00  0.00    +0.000 A 
ATOM     22  C   UNL     1       3.370   2.614  19.955  0.00  0.00    +0.000 A 
ENDBRANCH  16  17
ENDBRANCH   1  16
TORSDOF 7
ENDMDL
MODEL 9
REMARK VINA RESULT:      -7.5      1.495      6.991
REMARK  Name = 
REMARK  8 active torsions:
REMARK  status: ('A' for Active; 'I' for Inactive)
REMARK    1  A    between atoms: C_1  and  O_2
REMARK    2  A    between atoms: O_2  and  C_3
REMARK    3  A    between atoms: C_3  and  C_5
REMARK    4  A    between atoms: C_5  and  C_6
REMARK    5  A    between atoms: C_5  and  N_13
REMARK    6  A    between atoms: C_6  and  C_7
REMARK    7  A    between atoms: C_14  and  C_15
REMARK    8  A    between atoms: C_20  and  O_21
REMARK                            x       y       z     vdW  Elec       q    Type
REMARK                         _______ _______ _______ _____ _____    ______ ____
ROOT
ATOM      1  C   UNL     1       4.452   5.071  17.529  0.00  0.00    +0.000 C 
ENDROOT
BRANCH   1   2
ATOM      2  C   UNL     1       5.597   4.872  18.530  0.00  0.00    +0.000 C 
ATOM      3  O   UNL     1       5.795   3.851  19.185  0.00  0.00    +0.000 OA
BRANCH   2   5
ATOM      4  C   UNL     1       7.747   5.776  18.865  0.00  0.00    +0.000 C 
ATOM      5  O   UNL     1       6.354   6.004  18.632  0.00  0.00    +0.000 OA
ENDBRANCH   2   5
ENDBRANCH   1   2
BRANCH   1   6
ATOM      6  N   UNL     1       5.035   5.272  16.181  0.00  0.00    +0.000 NA
ATOM      7  C   UNL     1       5.472   4.189  15.627  0.00  0.00    +0.000 C 
BRANCH   7   8
ATOM      8  C   UNL     1       6.104   4.209  14.297  0.00  0.00    +0.000 A 
ATOM      9  C   UNL     1       5.559   3.434  13.268  0.00  0.00    +0.000 A 
ATOM     10  C   UNL     1       6.127   3.466  11.996  0.00  0.00    +0.000 A 
ATOM     11  C   UNL     1       7.241   4.269  11.752  0.00  0.00    +0.000 A 
ATOM     12  C   UNL     1       7.796   5.038  12.781  0.00  0.00    +0.000 A 
ATOM     13  C   UNL     1       7.226   5.007  14.054  0.00  0.00    +0.000 A 
BRANCH  13  14
ATOM     14  O   UNL     1       7.765   5.758  15.060  0.00  0.00    +0.000 OA
ATOM     15  H   UNL     1       7.062   6.281  15.478  0.00  0.00    +0.000 HD
ENDBRANCH  13  14
ENDBRANCH   7   8
ENDBRANCH   1   6
BRANCH   1  16
ATOM     16  C   UNL     1       3.527   3.833  17.504  0.00  0.00    +0.000 C 
BRANCH  16  17
ATOM     17  C   UNL     1       2.720   3.671  18.780  0.00  0.00    +0.000 A 
ATOM     18  C   UNL     1       2.604   2.418  19.401  0.00  0.00    +0.000 A 
ATOM     19  C   UNL     1       1.733   2.239  20.479  0.00  0.00    +0.000 A 
ATOM     20  C   UNL     1       0.994   3.315  20.965  0.00  0.00    +0.000 A 
ATOM     21  C   UNL     1       1.156   4.579  20.401  0.00  0.00    +0.000 A 
ATOM     22  C   UNL     1       2.014   4.756  19.314  0.00  0.00    +0.000 A 
ENDBRANCH  16  17
ENDBRANCH   1  16
TORSDOF 7
ENDMDL
