MODEL 1
REMARK VINA RESULT:      -8.5      0.000      0.000
REMARK  Name = 
REMARK  8 active torsions:
REMARK  status: ('A' for Active; 'I' for Inactive)
REMARK    1  A    between atoms: C_1  and  O_2
REMARK    2  A    between atoms: O_2  and  C_3
REMARK    3  A    between atoms: C_3  and  C_5
REMARK    4  A    between atoms: C_11  and  C_12
REMARK    5  A    between atoms: C_13  and  C_14
REMARK    6  A    between atoms: C_17  and  O_18
REMARK    7  A    between atoms: C_19  and  O_20
REMARK    8  A    between atoms: C_24  and  O_25
REMARK                            x       y       z     vdW  Elec       q    Type
REMARK                         _______ _______ _______ _____ _____    ______ ____
ROOT
ATOM      1  C   UNL     1       6.225   4.169  13.931  0.00  0.00    +0.000 A 
ATOM      2  C   UNL     1       5.127   3.669  14.645  0.00  0.00    +0.000 A 
ATOM      3  C   UNL     1       4.882   4.096  15.950  0.00  0.00    +0.000 A 
ATOM      4  C   UNL     1       5.729   5.041  16.550  0.00  0.00    +0.000 A 
ATOM      5  C   UNL     1       5.505   5.514  17.845  0.00  0.00    +0.000 A 
ATOM      6  C   UNL     1       6.361   6.465  18.387  0.00  0.00    +0.000 A 
ATOM      7  C   UNL     1       7.430   6.918  17.623  0.00  0.00    +0.000 A 
ATOM      8  N   UNL     1       7.674   6.471  16.368  0.00  0.00    +0.000 NA
ATOM      9  C   UNL     1       6.835   5.554  15.842  0.00  0.00    +0.000 A 
ATOM     10  C   UNL     1       7.061   5.109  14.541  0.00  0.00    +0.000 A 
ENDROOT
BRANCH   1  11
ATOM     11  C   UNL     1       6.394   3.692  12.540  0.00  0.00    +0.000 C 
ATOM     12  O   UNL     1       7.267   4.122  11.801  0.00  0.00    +0.000 OA
BRANCH  11  14
ATOM     13  C   UNL     1       5.855   1.730  11.403  0.00  0.00    +0.000 C 
ATOM     14  O   UNL     1       5.409   2.831  12.193  0.00  0.00    +0.000 OA
ENDBRANCH  11  14
ENDBRANCH   1  11
BRANCH   7  15
ATOM     15  C   UNL     1       8.346   7.921  18.182  0.00  0.00    +0.000 C 
ATOM     16  C   UNL     1       8.241   9.248  17.994  0.00  0.00    +0.000 C 
BRANCH  16  17
ATOM     17  C   UNL     1       9.182  10.227  18.564  0.00  0.00    +0.000 A 
ATOM     18  C   UNL     1       9.152  10.585  19.925  0.00  0.00    +0.000 A 
ATOM     19  C   UNL     1      10.056  11.517  20.448  0.00  0.00    +0.000 A 
ATOM     20  C   UNL     1      11.007  12.077  19.610  0.00  0.00    +0.000 A 
ATOM     21  C   UNL     1      11.066  11.707  18.269  0.00  0.00    +0.000 A 
ATOM     22  C   UNL     1      10.168  10.786  17.740  0.00  0.00    +0.000 A 
BRANCH  20  23
ATOM     23  O   UNL     1      11.915  12.994  20.061  0.00  0.00    +0.000 OA
ATOM     24  H   UNL     1      11.756  13.132  21.010  0.00  0.00    +0.000 HD
ENDBRANCH  20  23
BRANCH  21  25
ATOM     25  O   UNL     1      12.017  12.254  17.455  0.00  0.00    +0.000 OA
ATOM     26  H   UNL     1      12.520  12.858  18.037  0.00  0.00    +0.000 HD
ENDBRANCH  21  25
ENDBRANCH  16  17
ENDBRANCH   7  15
BRANCH  10  27
ATOM     27  O   UNL     1       8.124   5.667  13.865  0.00  0.00    +0.000 OA
ATOM     28  H   UNL     1       8.225   5.112  13.062  0.00  0.00    +0.000 HD
ENDBRANCH  10  27
TORSDOF 7
ENDMDL
MODEL 2
REMARK VINA RESULT:      -8.1      6.184      7.293
REMARK  Name = 
REMARK  8 active torsions:
REMARK  status: ('A' for Active; 'I' for Inactive)
REMARK    1  A    between atoms: C_1  and  O_2
REMARK    2  A    between atoms: O_2  and  C_3
REMARK    3  A    between atoms: C_3  and  C_5
REMARK    4  A    between atoms: C_11  and  C_12
REMARK    5  A    between atoms: C_13  and  C_14
REMARK    6  A    between atoms: C_17  and  O_18
REMARK    7  A    between atoms: C_19  and  O_20
REMARK    8  A    between atoms: C_24  and  O_25
REMARK                            x       y       z     vdW  Elec       q    Type
REMARK                         _______ _______ _______ _____ _____    ______ ____
ROOT
ATOM      1  C   UNL     1       5.894   5.020  16.178  0.00  0.00    +0.000 A 
ATOM      2  C   UNL     1       5.899   4.046  17.185  0.00  0.00    +0.000 A 
ATOM      3  C   UNL     1       5.089   4.194  18.311  0.00  0.00    +0.000 A 
ATOM      4  C   UNL     1       4.255   5.315  18.433  0.00  0.00    +0.000 A 
ATOM      5  C   UNL     1       3.410   5.489  19.533  0.00  0.00    +0.000 A 
ATOM      6  C   UNL     1       2.588   6.607  19.597  0.00  0.00    +0.000 A 
ATOM      7  C   UNL     1       2.632   7.534  18.562  0.00  0.00    +0.000 A 
ATOM      8  N   UNL     1       3.447   7.393  17.490  0.00  0.00    +0.000 NA
ATOM      9  C   UNL     1       4.238   6.302  17.426  0.00  0.00    +0.000 A 
ATOM     10  C   UNL     1       5.059   6.134  16.313  0.00  0.00    +0.000 A 
ENDROOT
BRANCH   1  11
ATOM     11  C   UNL     1       6.754   4.771  14.999  0.00  0.00    +0.000 C 
ATOM     12  O   UNL     1       7.609   5.564  14.632  0.00  0.00    +0.000 OA
BRANCH  11  14
ATOM     13  C   UNL     1       6.322   3.774  12.937  0.00  0.00    +0.000 C 
ATOM     14  O   UNL     1       6.389   3.638  14.356  0.00  0.00    +0.000 OA
ENDBRANCH  11  14
ENDBRANCH   1  11
BRANCH   7  15
ATOM     15  C   UNL     1       1.771   8.722  18.617  0.00  0.00    +0.000 C 
ATOM     16  C   UNL     1       1.077   9.120  19.696  0.00  0.00    +0.000 C 
BRANCH  16  17
ATOM     17  C   UNL     1       0.216  10.315  19.716  0.00  0.00    +0.000 A 
ATOM     18  C   UNL     1      -0.225  10.896  20.918  0.00  0.00    +0.000 A 
ATOM     19  C   UNL     1      -1.042  12.033  20.915  0.00  0.00    +0.000 A 
ATOM     20  C   UNL     1      -1.400  12.603  19.703  0.00  0.00    +0.000 A 
ATOM     21  C   UNL     1      -0.944  12.053  18.508  0.00  0.00    +0.000 A 
ATOM     22  C   UNL     1      -0.138  10.921  18.502  0.00  0.00    +0.000 A 
BRANCH  20  23
ATOM     23  O   UNL     1      -2.198  13.711  19.636  0.00  0.00    +0.000 OA
ATOM     24  H   UNL     1      -1.632  14.494  19.745  0.00  0.00    +0.000 HD
ENDBRANCH  20  23
BRANCH  21  25
ATOM     25  O   UNL     1      -1.292  12.632  17.320  0.00  0.00    +0.000 OA
ATOM     26  H   UNL     1      -0.501  13.142  17.055  0.00  0.00    +0.000 HD
ENDBRANCH  21  25
ENDBRANCH  16  17
ENDBRANCH   7  15
BRANCH  10  27
ATOM     27  O   UNL     1       4.981   7.094  15.329  0.00  0.00    +0.000 OA
ATOM     28  H   UNL     1       4.255   6.790  14.743  0.00  0.00    +0.000 HD
ENDBRANCH  10  27
TORSDOF 7
ENDMDL
MODEL 3
REMARK VINA RESULT:      -8.0      3.325      4.631
REMARK  Name = 
REMARK  8 active torsions:
REMARK  status: ('A' for Active; 'I' for Inactive)
REMARK    1  A    between atoms: C_1  and  O_2
REMARK    2  A    between atoms: O_2  and  C_3
REMARK    3  A    between atoms: C_3  and  C_5
REMARK    4  A    between atoms: C_11  and  C_12
REMARK    5  A    between atoms: C_13  and  C_14
REMARK    6  A    between atoms: C_17  and  O_18
REMARK    7  A    between atoms: C_19  and  O_20
REMARK    8  A    between atoms: C_24  and  O_25
REMARK                            x       y       z     vdW  Elec       q    Type
REMARK                         _______ _______ _______ _____ _____    ______ ____
ROOT
ATOM      1  C   UNL     1       3.387   3.998  18.466  0.00  0.00    +0.000 A 
ATOM      2  C   UNL     1       3.543   3.417  17.201  0.00  0.00    +0.000 A 
ATOM      3  C   UNL     1       4.581   3.824  16.363  0.00  0.00    +0.000 A 
ATOM      4  C   UNL     1       5.483   4.810  16.791  0.00  0.00    +0.000 A 
ATOM      5  C   UNL     1       6.551   5.228  15.993  0.00  0.00    +0.000 A 
ATOM      6  C   UNL     1       7.428   6.194  16.470  0.00  0.00    +0.000 A 
ATOM      7  C   UNL     1       7.215   6.728  17.736  0.00  0.00    +0.000 A 
ATOM      8  N   UNL     1       6.184   6.345  18.526  0.00  0.00    +0.000 NA
ATOM      9  C   UNL     1       5.339   5.401  18.063  0.00  0.00    +0.000 A 
ATOM     10  C   UNL     1       4.292   4.981  18.880  0.00  0.00    +0.000 A 
ENDROOT
BRANCH   1  11
ATOM     11  C   UNL     1       2.283   3.485  19.308  0.00  0.00    +0.000 C 
ATOM     12  O   UNL     1       1.120   3.821  19.142  0.00  0.00    +0.000 OA
BRANCH  11  14
ATOM     13  C   UNL     1       2.231   3.052  21.598  0.00  0.00    +0.000 C 
ATOM     14  O   UNL     1       2.752   2.711  20.315  0.00  0.00    +0.000 OA
ENDBRANCH  11  14
ENDBRANCH   1  11
BRANCH   7  15
ATOM     15  C   UNL     1       8.132   7.751  18.254  0.00  0.00    +0.000 C 
ATOM     16  C   UNL     1       8.092   9.055  17.931  0.00  0.00    +0.000 C 
BRANCH  16  17
ATOM     17  C   UNL     1       9.032  10.055  18.464  0.00  0.00    +0.000 A 
ATOM     18  C   UNL     1       9.884  10.798  17.627  0.00  0.00    +0.000 A 
ATOM     19  C   UNL     1      10.769  11.746  18.153  0.00  0.00    +0.000 A 
ATOM     20  C   UNL     1      10.786  11.966  19.522  0.00  0.00    +0.000 A 
ATOM     21  C   UNL     1       9.925  11.259  20.356  0.00  0.00    +0.000 A 
ATOM     22  C   UNL     1       9.047  10.311  19.842  0.00  0.00    +0.000 A 
BRANCH  20  23
ATOM     23  O   UNL     1      11.630  12.876  20.095  0.00  0.00    +0.000 OA
ATOM     24  H   UNL     1      11.680  12.681  21.046  0.00  0.00    +0.000 HD
ENDBRANCH  20  23
BRANCH  21  25
ATOM     25  O   UNL     1       9.940  11.495  21.702  0.00  0.00    +0.000 OA
ATOM     26  H   UNL     1       9.679  12.433  21.790  0.00  0.00    +0.000 HD
ENDBRANCH  21  25
ENDBRANCH  16  17
ENDBRANCH   7  15
BRANCH  10  27
ATOM     27  O   UNL     1       4.211   5.547  20.133  0.00  0.00    +0.000 OA
ATOM     28  H   UNL     1       5.143   5.725  20.385  0.00  0.00    +0.000 HD
ENDBRANCH  10  27
TORSDOF 7
ENDMDL
MODEL 4
REMARK VINA RESULT:      -7.9      6.040      7.126
REMARK  Name = 
REMARK  8 active torsions:
REMARK  status: ('A' for Active; 'I' for Inactive)
REMARK    1  A    between atoms: C_1  and  O_2
REMARK    2  A    between atoms: O_2  and  C_3
REMARK    3  A    between atoms: C_3  and  C_5
REMARK    4  A    between atoms: C_11  and  C_12
REMARK    5  A    between atoms: C_13  and  C_14
REMARK    6  A    between atoms: C_17  and  O_18
REMARK    7  A    between atoms: C_19  and  O_20
REMARK    8  A    between atoms: C_24  and  O_25
REMARK                            x       y       z     vdW  Elec       q    Type
REMARK                         _______ _______ _______ _____ _____    ______ ____
ROOT
ATOM      1  C   UNL     1       5.714   4.715  15.790  0.00  0.00    +0.000 A 
ATOM      2  C   UNL     1       5.367   3.571  16.522  0.00  0.00    +0.000 A 
ATOM      3  C   UNL     1       4.444   3.657  17.565  0.00  0.00    +0.000 A 
ATOM      4  C   UNL     1       3.850   4.889  17.876  0.00  0.00    +0.000 A 
ATOM      5  C   UNL     1       2.902   5.013  18.896  0.00  0.00    +0.000 A 
ATOM      6  C   UNL     1       2.328   6.252  19.153  0.00  0.00    +0.000 A 
ATOM      7  C   UNL     1       2.718   7.344  18.388  0.00  0.00    +0.000 A 
ATOM      8  N   UNL     1       3.639   7.253  17.399  0.00  0.00    +0.000 NA
ATOM      9  C   UNL     1       4.188   6.047  17.147  0.00  0.00    +0.000 A 
ATOM     10  C   UNL     1       5.116   5.937  16.112  0.00  0.00    +0.000 A 
ENDROOT
BRANCH   1  11
ATOM     11  C   UNL     1       6.673   4.533  14.677  0.00  0.00    +0.000 C 
ATOM     12  O   UNL     1       7.558   5.340  14.435  0.00  0.00    +0.000 OA
BRANCH  11  14
ATOM     13  C   UNL     1       6.333   3.692  12.529  0.00  0.00    +0.000 C 
ATOM     14  O   UNL     1       6.362   3.445  13.934  0.00  0.00    +0.000 OA
ENDBRANCH  11  14
ENDBRANCH   1  11
BRANCH   7  15
ATOM     15  C   UNL     1       2.122   8.661  18.648  0.00  0.00    +0.000 C 
ATOM     16  C   UNL     1       1.008   9.131  18.061  0.00  0.00    +0.000 C 
BRANCH  16  17
ATOM     17  C   UNL     1       0.440  10.460  18.340  0.00  0.00    +0.000 A 
ATOM     18  C   UNL     1       1.208  11.496  18.902  0.00  0.00    +0.000 A 
ATOM     19  C   UNL     1       0.650  12.754  19.158  0.00  0.00    +0.000 A 
ATOM     20  C   UNL     1      -0.678  12.982  18.829  0.00  0.00    +0.000 A 
ATOM     21  C   UNL     1      -1.438  11.973  18.244  0.00  0.00    +0.000 A 
ATOM     22  C   UNL     1      -0.893  10.720  17.992  0.00  0.00    +0.000 A 
BRANCH  20  23
ATOM     23  O   UNL     1      -1.280  14.188  19.058  0.00  0.00    +0.000 OA
ATOM     24  H   UNL     1      -1.956  14.320  18.371  0.00  0.00    +0.000 HD
ENDBRANCH  20  23
BRANCH  21  25
ATOM     25  O   UNL     1      -2.742  12.214  17.911  0.00  0.00    +0.000 OA
ATOM     26  H   UNL     1      -2.704  12.991  17.318  0.00  0.00    +0.000 HD
ENDBRANCH  21  25
ENDBRANCH  16  17
ENDBRANCH   7  15
BRANCH  10  27
ATOM     27  O   UNL     1       5.387   7.079  15.392  0.00  0.00    +0.000 OA
ATOM     28  H   UNL     1       5.029   7.809  15.942  0.00  0.00    +0.000 HD
ENDBRANCH  10  27
TORSDOF 7
ENDMDL
MODEL 5
REMARK VINA RESULT:      -7.8      0.711      1.420
REMARK  Name = 
REMARK  8 active torsions:
REMARK  status: ('A' for Active; 'I' for Inactive)
REMARK    1  A    between atoms: C_1  and  O_2
REMARK    2  A    between atoms: O_2  and  C_3
REMARK    3  A    between atoms: C_3  and  C_5
REMARK    4  A    between atoms: C_11  and  C_12
REMARK    5  A    between atoms: C_13  and  C_14
REMARK    6  A    between atoms: C_17  and  O_18
REMARK    7  A    between atoms: C_19  and  O_20
REMARK    8  A    between atoms: C_24  and  O_25
REMARK                            x       y       z     vdW  Elec       q    Type
REMARK                         _______ _______ _______ _____ _____    ______ ____
ROOT
ATOM      1  C   UNL     1       5.991   4.091  14.073  0.00  0.00    +0.000 A 
ATOM      2  C   UNL     1       4.993   3.584  14.916  0.00  0.00    +0.000 A 
ATOM      3  C   UNL     1       4.886   4.036  16.231  0.00  0.00    +0.000 A 
ATOM      4  C   UNL     1       5.772   5.012  16.712  0.00  0.00    +0.000 A 
ATOM      5  C   UNL     1       5.684   5.510  18.015  0.00  0.00    +0.000 A 
ATOM      6  C   UNL     1       6.573   6.491  18.437  0.00  0.00    +0.000 A 
ATOM      7  C   UNL     1       7.538   6.950  17.548  0.00  0.00    +0.000 A 
ATOM      8  N   UNL     1       7.650   6.479  16.283  0.00  0.00    +0.000 NA
ATOM      9  C   UNL     1       6.779   5.533  15.874  0.00  0.00    +0.000 A 
ATOM     10  C   UNL     1       6.869   5.063  14.565  0.00  0.00    +0.000 A 
ENDROOT
BRANCH   1  11
ATOM     11  C   UNL     1       6.014   3.587  12.682  0.00  0.00    +0.000 C 
ATOM     12  O   UNL     1       7.051   3.275  12.114  0.00  0.00    +0.000 OA
BRANCH  11  14
ATOM     13  C   UNL     1       4.507   2.538  11.246  0.00  0.00    +0.000 C 
ATOM     14  O   UNL     1       4.782   3.629  12.124  0.00  0.00    +0.000 OA
ENDBRANCH  11  14
ENDBRANCH   1  11
BRANCH   7  15
ATOM     15  C   UNL     1       8.486   7.985  17.980  0.00  0.00    +0.000 C 
ATOM     16  C   UNL     1       8.168   9.270  18.215  0.00  0.00    +0.000 C 
BRANCH  16  17
ATOM     17  C   UNL     1       9.146  10.285  18.641  0.00  0.00    +0.000 A 
ATOM     18  C   UNL     1      10.002  10.925  17.726  0.00  0.00    +0.000 A 
ATOM     19  C   UNL     1      10.924  11.889  18.150  0.00  0.00    +0.000 A 
ATOM     20  C   UNL     1      10.973  12.229  19.493  0.00  0.00    +0.000 A 
ATOM     21  C   UNL     1      10.110  11.625  20.402  0.00  0.00    +0.000 A 
ATOM     22  C   UNL     1       9.195  10.662  19.990  0.00  0.00    +0.000 A 
BRANCH  20  23
ATOM     23  O   UNL     1      11.854  13.161  19.969  0.00  0.00    +0.000 OA
ATOM     24  H   UNL     1      11.674  13.287  20.916  0.00  0.00    +0.000 HD
ENDBRANCH  20  23
BRANCH  21  25
ATOM     25  O   UNL     1      10.157  11.978  21.722  0.00  0.00    +0.000 OA
ATOM     26  H   UNL     1      10.221  11.128  22.201  0.00  0.00    +0.000 HD
ENDBRANCH  21  25
ENDBRANCH  16  17
ENDBRANCH   7  15
BRANCH  10  27
ATOM     27  O   UNL     1       7.834   5.628  13.762  0.00  0.00    +0.000 OA
ATOM     28  H   UNL     1       8.412   4.878  13.505  0.00  0.00    +0.000 HD
ENDBRANCH  10  27
TORSDOF 7
ENDMDL
MODEL 6
REMARK VINA RESULT:      -7.8      3.457      4.577
REMARK  Name = 
REMARK  8 active torsions:
REMARK  status: ('A' for Active; 'I' for Inactive)
REMARK    1  A    between atoms: C_1  and  O_2
REMARK    2  A    between atoms: O_2  and  C_3
REMARK    3  A    between atoms: C_3  and  C_5
REMARK    4  A    between atoms: C_11  and  C_12
REMARK    5  A    between atoms: C_13  and  C_14
REMARK    6  A    between atoms: C_17  and  O_18
REMARK    7  A    between atoms: C_19  and  O_20
REMARK    8  A    between atoms: C_24  and  O_25
REMARK                            x       y       z     vdW  Elec       q    Type
REMARK                         _______ _______ _______ _____ _____    ______ ____
ROOT
ATOM      1  C   UNL     1       3.152   4.069  18.502  0.00  0.00    +0.000 A 
ATOM      2  C   UNL     1       3.405   3.265  17.383  0.00  0.00    +0.000 A 
ATOM      3  C   UNL     1       4.517   3.511  16.577  0.00  0.00    +0.000 A 
ATOM      4  C   UNL     1       5.394   4.560  16.891  0.00  0.00    +0.000 A 
ATOM      5  C   UNL     1       6.532   4.824  16.125  0.00  0.00    +0.000 A 
ATOM      6  C   UNL     1       7.380   5.863  16.490  0.00  0.00    +0.000 A 
ATOM      7  C   UNL     1       7.068   6.621  17.612  0.00  0.00    +0.000 A 
ATOM      8  N   UNL     1       5.969   6.390  18.368  0.00  0.00    +0.000 NA
ATOM      9  C   UNL     1       5.152   5.376  18.016  0.00  0.00    +0.000 A 
ATOM     10  C   UNL     1       4.033   5.112  18.803  0.00  0.00    +0.000 A 
ENDROOT
BRANCH   1  11
ATOM     11  C   UNL     1       1.973   3.719  19.326  0.00  0.00    +0.000 C 
ATOM     12  O   UNL     1       0.889   3.442  18.836  0.00  0.00    +0.000 OA
BRANCH  11  14
ATOM     13  C   UNL     1       1.831   2.744  21.438  0.00  0.00    +0.000 C 
ATOM     14  O   UNL     1       2.239   3.858  20.646  0.00  0.00    +0.000 OA
ENDBRANCH  11  14
ENDBRANCH   1  11
BRANCH   7  15
ATOM     15  C   UNL     1       7.953   7.723  18.010  0.00  0.00    +0.000 C 
ATOM     16  C   UNL     1       7.670   9.029  17.863  0.00  0.00    +0.000 C 
BRANCH  16  17
ATOM     17  C   UNL     1       8.584  10.111  18.266  0.00  0.00    +0.000 A 
ATOM     18  C   UNL     1       9.451   9.982  19.367  0.00  0.00    +0.000 A 
ATOM     19  C   UNL     1      10.314  11.022  19.733  0.00  0.00    +0.000 A 
ATOM     20  C   UNL     1      10.323  12.186  18.981  0.00  0.00    +0.000 A 
ATOM     21  C   UNL     1       9.491  12.312  17.872  0.00  0.00    +0.000 A 
ATOM     22  C   UNL     1       8.627  11.287  17.505  0.00  0.00    +0.000 A 
BRANCH  20  23
ATOM     23  O   UNL     1      11.141  13.238  19.291  0.00  0.00    +0.000 OA
ATOM     24  H   UNL     1      12.044  13.006  19.016  0.00  0.00    +0.000 HD
ENDBRANCH  20  23
BRANCH  21  25
ATOM     25  O   UNL     1       9.520  13.459  17.129  0.00  0.00    +0.000 OA
ATOM     26  H   UNL     1       8.676  13.907  17.339  0.00  0.00    +0.000 HD
ENDBRANCH  21  25
ENDBRANCH  16  17
ENDBRANCH   7  15
BRANCH  10  27
ATOM     27  O   UNL     1       3.855   5.900  19.919  0.00  0.00    +0.000 OA
ATOM     28  H   UNL     1       2.896   5.834  20.118  0.00  0.00    +0.000 HD
ENDBRANCH  10  27
TORSDOF 7
ENDMDL
MODEL 7
REMARK VINA RESULT:      -7.7      8.678     11.758
REMARK  Name = 
REMARK  8 active torsions:
REMARK  status: ('A' for Active; 'I' for Inactive)
REMARK    1  A    between atoms: C_1  and  O_2
REMARK    2  A    between atoms: O_2  and  C_3
REMARK    3  A    between atoms: C_3  and  C_5
REMARK    4  A    between atoms: C_11  and  C_12
REMARK    5  A    between atoms: C_13  and  C_14
REMARK    6  A    between atoms: C_17  and  O_18
REMARK    7  A    between atoms: C_19  and  O_20
REMARK    8  A    between atoms: C_24  and  O_25
REMARK                            x       y       z     vdW  Elec       q    Type
REMARK                         _______ _______ _______ _____ _____    ______ ____
ROOT
ATOM      1  C   UNL     1      -1.622  11.912  22.256  0.00  0.00    +0.000 A 
ATOM      2  C   UNL     1      -1.612  12.670  21.078  0.00  0.00    +0.000 A 
ATOM      3  C   UNL     1      -0.871  12.246  19.974  0.00  0.00    +0.000 A 
ATOM      4  C   UNL     1      -0.141  11.050  20.037  0.00  0.00    +0.000 A 
ATOM      5  C   UNL     1       0.594  10.577  18.947  0.00  0.00    +0.000 A 
ATOM      6  C   UNL     1       1.285   9.376  19.053  0.00  0.00    +0.000 A 
ATOM      7  C   UNL     1       1.231   8.675  20.252  0.00  0.00    +0.000 A 
ATOM      8  N   UNL     1       0.533   9.114  21.325  0.00  0.00    +0.000 NA
ATOM      9  C   UNL     1      -0.144  10.277  21.216  0.00  0.00    +0.000 A 
ATOM     10  C   UNL     1      -0.888  10.722  22.306  0.00  0.00    +0.000 A 
ENDROOT
BRANCH   1  11
ATOM     11  C   UNL     1      -2.462  12.411  23.368  0.00  0.00    +0.000 C 
ATOM     12  O   UNL     1      -3.447  11.808  23.767  0.00  0.00    +0.000 OA
BRANCH  11  14
ATOM     13  C   UNL     1      -3.102  14.440  24.322  0.00  0.00    +0.000 C 
ATOM     14  O   UNL     1      -2.056  13.635  23.779  0.00  0.00    +0.000 OA
ENDBRANCH  11  14
ENDBRANCH   1  11
BRANCH   7  15
ATOM     15  C   UNL     1       1.958   7.405  20.380  0.00  0.00    +0.000 C 
ATOM     16  C   UNL     1       2.251   6.579  19.361  0.00  0.00    +0.000 C 
BRANCH  16  17
ATOM     17  C   UNL     1       2.976   5.308  19.526  0.00  0.00    +0.000 A 
ATOM     18  C   UNL     1       2.385   4.187  20.136  0.00  0.00    +0.000 A 
ATOM     19  C   UNL     1       3.090   2.987  20.282  0.00  0.00    +0.000 A 
ATOM     20  C   UNL     1       4.385   2.902  19.794  0.00  0.00    +0.000 A 
ATOM     21  C   UNL     1       4.968   3.996  19.160  0.00  0.00    +0.000 A 
ATOM     22  C   UNL     1       4.277   5.194  19.017  0.00  0.00    +0.000 A 
BRANCH  20  23
ATOM     23  O   UNL     1       5.125   1.759  19.909  0.00  0.00    +0.000 OA
ATOM     24  H   UNL     1       5.499   1.554  19.035  0.00  0.00    +0.000 HD
ENDBRANCH  20  23
BRANCH  21  25
ATOM     25  O   UNL     1       6.240   3.897  18.670  0.00  0.00    +0.000 OA
ATOM     26  H   UNL     1       6.783   4.426  19.289  0.00  0.00    +0.000 HD
ENDBRANCH  21  25
ENDBRANCH  16  17
ENDBRANCH   7  15
BRANCH  10  27
ATOM     27  O   UNL     1      -0.905   9.917  23.423  0.00  0.00    +0.000 OA
ATOM     28  H   UNL     1      -0.684   9.023  23.086  0.00  0.00    +0.000 HD
ENDBRANCH  10  27
TORSDOF 7
ENDMDL
MODEL 8
REMARK VINA RESULT:      -7.7      6.313      7.514
REMARK  Name = 
REMARK  8 active torsions:
REMARK  status: ('A' for Active; 'I' for Inactive)
REMARK    1  A    between atoms: C_1  and  O_2
REMARK    2  A    between atoms: O_2  and  C_3
REMARK    3  A    between atoms: C_3  and  C_5
REMARK    4  A    between atoms: C_11  and  C_12
REMARK    5  A    between atoms: C_13  and  C_14
REMARK    6  A    between atoms: C_17  and  O_18
REMARK    7  A    between atoms: C_19  and  O_20
REMARK    8  A    between atoms: C_24  and  O_25
REMARK                            x       y       z     vdW  Elec       q    Type
REMARK                         _______ _______ _______ _____ _____    ______ ____
ROOT
ATOM      1  C   UNL     1       4.771   4.787  16.709  0.00  0.00    +0.000 A 
ATOM      2  C   UNL     1       4.556   3.441  17.033  0.00  0.00    +0.000 A 
ATOM      3  C   UNL     1       3.732   3.098  18.106  0.00  0.00    +0.000 A 
ATOM      4  C   UNL     1       3.104   4.102  18.857  0.00  0.00    +0.000 A 
ATOM      5  C   UNL     1       2.252   3.801  19.923  0.00  0.00    +0.000 A 
ATOM      6  C   UNL     1       1.638   4.832  20.624  0.00  0.00    +0.000 A 
ATOM      7  C   UNL     1       1.895   6.145  20.248  0.00  0.00    +0.000 A 
ATOM      8  N   UNL     1       2.722   6.464  19.224  0.00  0.00    +0.000 NA
ATOM      9  C   UNL     1       3.310   5.460  18.541  0.00  0.00    +0.000 A 
ATOM     10  C   UNL     1       4.140   5.778  17.468  0.00  0.00    +0.000 A 
ENDROOT
BRANCH   1  11
ATOM     11  C   UNL     1       5.629   5.065  15.536  0.00  0.00    +0.000 C 
ATOM     12  O   UNL     1       6.348   6.052  15.468  0.00  0.00    +0.000 OA
BRANCH  11  14
ATOM     13  C   UNL     1       6.435   4.155  13.547  0.00  0.00    +0.000 C 
ATOM     14  O   UNL     1       5.420   4.163  14.549  0.00  0.00    +0.000 OA
ENDBRANCH  11  14
ENDBRANCH   1  11
BRANCH   7  15
ATOM     15  C   UNL     1       1.256   7.246  20.980  0.00  0.00    +0.000 C 
ATOM     16  C   UNL     1       1.105   8.497  20.512  0.00  0.00    +0.000 C 
BRANCH  16  17
ATOM     17  C   UNL     1       0.465   9.581  21.276  0.00  0.00    +0.000 A 
ATOM     18  C   UNL     1      -0.293   9.329  22.434  0.00  0.00    +0.000 A 
ATOM     19  C   UNL     1      -0.892  10.374  23.148  0.00  0.00    +0.000 A 
ATOM     20  C   UNL     1      -0.714  11.677  22.711  0.00  0.00    +0.000 A 
ATOM     21  C   UNL     1       0.059  11.940  21.584  0.00  0.00    +0.000 A 
ATOM     22  C   UNL     1       0.653  10.908  20.866  0.00  0.00    +0.000 A 
BRANCH  20  23
ATOM     23  O   UNL     1      -1.277  12.739  23.363  0.00  0.00    +0.000 OA
ATOM     24  H   UNL     1      -0.956  12.731  24.281  0.00  0.00    +0.000 HD
ENDBRANCH  20  23
BRANCH  21  25
ATOM     25  O   UNL     1       0.240  13.230  21.171  0.00  0.00    +0.000 OA
ATOM     26  H   UNL     1       0.278  13.749  21.999  0.00  0.00    +0.000 HD
ENDBRANCH  21  25
ENDBRANCH  16  17
ENDBRANCH   7  15
BRANCH  10  27
ATOM     27  O   UNL     1       4.280   7.113  17.159  0.00  0.00    +0.000 OA
ATOM     28  H   UNL     1       5.217   7.206  16.882  0.00  0.00    +0.000 HD
ENDBRANCH  10  27
TORSDOF 7
ENDMDL
MODEL 9
REMARK VINA RESULT:      -7.6      5.776      6.992
REMARK  Name = 
REMARK  8 active torsions:
REMARK  status: ('A' for Active; 'I' for Inactive)
REMARK    1  A    between atoms: C_1  and  O_2
REMARK    2  A    between atoms: O_2  and  C_3
REMARK    3  A    between atoms: C_3  and  C_5
REMARK    4  A    between atoms: C_11  and  C_12
REMARK    5  A    between atoms: C_13  and  C_14
REMARK    6  A    between atoms: C_17  and  O_18
REMARK    7  A    between atoms: C_19  and  O_20
REMARK    8  A    between atoms: C_24  and  O_25
REMARK                            x       y       z     vdW  Elec       q    Type
REMARK                         _______ _______ _______ _____ _____    ______ ____
ROOT
ATOM      1  C   UNL     1       5.880   4.684  15.349  0.00  0.00    +0.000 A 
ATOM      2  C   UNL     1       5.668   3.414  15.901  0.00  0.00    +0.000 A 
ATOM      3  C   UNL     1       4.829   3.257  17.004  0.00  0.00    +0.000 A 
ATOM      4  C   UNL     1       4.182   4.372  17.559  0.00  0.00    +0.000 A 
ATOM      5  C   UNL     1       3.314   4.255  18.647  0.00  0.00    +0.000 A 
ATOM      6  C   UNL     1       2.682   5.387  19.147  0.00  0.00    +0.000 A 
ATOM      7  C   UNL     1       2.937   6.616  18.551  0.00  0.00    +0.000 A 
ATOM      8  N   UNL     1       3.779   6.758  17.500  0.00  0.00    +0.000 NA
ATOM      9  C   UNL     1       4.384   5.656  17.012  0.00  0.00    +0.000 A 
ATOM     10  C   UNL     1       5.230   5.788  15.912  0.00  0.00    +0.000 A 
ENDROOT
BRANCH   1  11
ATOM     11  C   UNL     1       6.755   4.761  14.158  0.00  0.00    +0.000 C 
ATOM     12  O   UNL     1       7.752   5.467  14.121  0.00  0.00    +0.000 OA
BRANCH  11  14
ATOM     13  C   UNL     1       7.150   3.871  12.040  0.00  0.00    +0.000 C 
ATOM     14  O   UNL     1       6.243   4.051  13.126  0.00  0.00    +0.000 OA
ENDBRANCH  11  14
ENDBRANCH   1  11
BRANCH   7  15
ATOM     15  C   UNL     1       2.279   7.823  19.069  0.00  0.00    +0.000 C 
ATOM     16  C   UNL     1       1.603   7.893  20.229  0.00  0.00    +0.000 C 
BRANCH  16  17
ATOM     17  C   UNL     1       0.948   9.118  20.716  0.00  0.00    +0.000 A 
ATOM     18  C   UNL     1       0.885  10.289  19.939  0.00  0.00    +0.000 A 
ATOM     19  C   UNL     1       0.256  11.443  20.420  0.00  0.00    +0.000 A 
ATOM     20  C   UNL     1      -0.332  11.417  21.676  0.00  0.00    +0.000 A 
ATOM     21  C   UNL     1      -0.302  10.254  22.440  0.00  0.00    +0.000 A 
ATOM     22  C   UNL     1       0.326   9.105  21.972  0.00  0.00    +0.000 A 
BRANCH  20  23
ATOM     23  O   UNL     1      -0.958  12.513  22.201  0.00  0.00    +0.000 OA
ATOM     24  H   UNL     1      -1.675  12.768  21.596  0.00  0.00    +0.000 HD
ENDBRANCH  20  23
BRANCH  21  25
ATOM     25  O   UNL     1      -0.897  10.236  23.670  0.00  0.00    +0.000 OA
ATOM     26  H   UNL     1      -0.877   9.295  23.938  0.00  0.00    +0.000 HD
ENDBRANCH  21  25
ENDBRANCH  16  17
ENDBRANCH   7  15
BRANCH  10  27
ATOM     27  O   UNL     1       5.366   7.049  15.376  0.00  0.00    +0.000 OA
ATOM     28  H   UNL     1       6.199   7.394  15.764  0.00  0.00    +0.000 HD
ENDBRANCH  10  27
TORSDOF 7
ENDMDL
