MODEL 1
REMARK VINA RESULT:      -7.3      0.000      0.000
REMARK  Name = 
REMARK  3 active torsions:
REMARK  status: ('A' for Active; 'I' for Inactive)
REMARK    1  A    between atoms: C_1  and  C_2
REMARK    2  A    between atoms: C_3  and  C_4
REMARK    3  A    between atoms: C_9  and  C_10
REMARK                            x       y       z     vdW  Elec       q    Type
REMARK                         _______ _______ _______ _____ _____    ______ ____
ROOT
ATOM      1  C   UNL     1       1.326   5.089  20.638  0.00  0.00    +0.000 C 
ATOM      2  C   UNL     1       2.219   4.633  19.517  0.00  0.00    +0.000 C 
ATOM      3  C   UNL     1       2.437   3.357  19.135  0.00  0.00    +0.000 C 
ATOM      4  C   UNL     1       1.821   2.140  19.769  0.00  0.00    +0.000 C 
ATOM      5  C   UNL     1       3.357   3.046  17.994  0.00  0.00    +0.000 C 
ATOM      6  O   UNL     1       3.558   1.889  17.642  0.00  0.00    +0.000 OA
ATOM      7  C   UNL     1       4.022   4.162  17.296  0.00  0.00    +0.000 A 
ATOM      8  C   UNL     1       4.891   3.907  16.222  0.00  0.00    +0.000 A 
ATOM      9  C   UNL     1       5.528   4.965  15.553  0.00  0.00    +0.000 A 
ATOM     10  C   UNL     1       6.461   4.716  14.404  0.00  0.00    +0.000 C 
ATOM     11  C   UNL     1       5.286   6.278  15.968  0.00  0.00    +0.000 A 
ATOM     12  C   UNL     1       4.424   6.532  17.033  0.00  0.00    +0.000 A 
ATOM     13  C   UNL     1       3.792   5.473  17.697  0.00  0.00    +0.000 A 
ATOM     14  C   UNL     1       2.887   5.767  18.815  0.00  0.00    +0.000 C 
ATOM     15  O   UNL     1       2.692   6.929  19.158  0.00  0.00    +0.000 OA
ENDROOT
TORSDOF 0
ENDMDL
MODEL 2
REMARK VINA RESULT:      -6.8      1.069      4.496
REMARK  Name = 
REMARK  3 active torsions:
REMARK  status: ('A' for Active; 'I' for Inactive)
REMARK    1  A    between atoms: C_1  and  C_2
REMARK    2  A    between atoms: C_3  and  C_4
REMARK    3  A    between atoms: C_9  and  C_10
REMARK                            x       y       z     vdW  Elec       q    Type
REMARK                         _______ _______ _______ _____ _____    ______ ____
ROOT
ATOM      1  C   UNL     1       5.195   6.716  15.772  0.00  0.00    +0.000 C 
ATOM      2  C   UNL     1       4.619   5.673  16.690  0.00  0.00    +0.000 C 
ATOM      3  C   UNL     1       4.811   4.341  16.609  0.00  0.00    +0.000 C 
ATOM      4  C   UNL     1       5.647   3.641  15.572  0.00  0.00    +0.000 C 
ATOM      5  C   UNL     1       4.172   3.413  17.598  0.00  0.00    +0.000 C 
ATOM      6  O   UNL     1       4.344   2.202  17.531  0.00  0.00    +0.000 OA
ATOM      7  C   UNL     1       3.325   3.986  18.661  0.00  0.00    +0.000 A 
ATOM      8  C   UNL     1       2.710   3.147  19.605  0.00  0.00    +0.000 A 
ATOM      9  C   UNL     1       1.904   3.685  20.620  0.00  0.00    +0.000 A 
ATOM     10  C   UNL     1       1.236   2.808  21.638  0.00  0.00    +0.000 C 
ATOM     11  C   UNL     1       1.719   5.070  20.682  0.00  0.00    +0.000 A 
ATOM     12  C   UNL     1       2.329   5.904  19.747  0.00  0.00    +0.000 A 
ATOM     13  C   UNL     1       3.132   5.361  18.736  0.00  0.00    +0.000 A 
ATOM     14  C   UNL     1       3.765   6.260  17.763  0.00  0.00    +0.000 C 
ATOM     15  O   UNL     1       3.587   7.472  17.841  0.00  0.00    +0.000 OA
ENDROOT
TORSDOF 0
ENDMDL
MODEL 3
REMARK VINA RESULT:      -6.7      1.355      1.724
REMARK  Name = 
REMARK  3 active torsions:
REMARK  status: ('A' for Active; 'I' for Inactive)
REMARK    1  A    between atoms: C_1  and  C_2
REMARK    2  A    between atoms: C_3  and  C_4
REMARK    3  A    between atoms: C_9  and  C_10
REMARK                            x       y       z     vdW  Elec       q    Type
REMARK                         _______ _______ _______ _____ _____    ______ ____
ROOT
ATOM      1  C   UNL     1       1.624   7.827  20.187  0.00  0.00    +0.000 C 
ATOM      2  C   UNL     1       2.383   6.774  19.427  0.00  0.00    +0.000 C 
ATOM      3  C   UNL     1       2.454   5.462  19.731  0.00  0.00    +0.000 C 
ATOM      4  C   UNL     1       1.779   4.800  20.901  0.00  0.00    +0.000 C 
ATOM      5  C   UNL     1       3.252   4.521  18.880  0.00  0.00    +0.000 C 
ATOM      6  O   UNL     1       3.318   3.327  19.150  0.00  0.00    +0.000 OA
ATOM      7  C   UNL     1       3.961   5.058  17.704  0.00  0.00    +0.000 A 
ATOM      8  C   UNL     1       4.718   4.204  16.884  0.00  0.00    +0.000 A 
ATOM      9  C   UNL     1       5.396   4.708  15.763  0.00  0.00    +0.000 A 
ATOM     10  C   UNL     1       6.211   3.816  14.874  0.00  0.00    +0.000 C 
ATOM     11  C   UNL     1       5.307   6.073  15.469  0.00  0.00    +0.000 A 
ATOM     12  C   UNL     1       4.556   6.920  16.281  0.00  0.00    +0.000 A 
ATOM     13  C   UNL     1       3.883   6.412  17.399  0.00  0.00    +0.000 A 
ATOM     14  C   UNL     1       3.097   7.325  18.238  0.00  0.00    +0.000 C 
ATOM     15  O   UNL     1       3.035   8.518  17.957  0.00  0.00    +0.000 OA
ENDROOT
TORSDOF 0
ENDMDL
MODEL 4
REMARK VINA RESULT:      -6.6      2.173      3.676
REMARK  Name = 
REMARK  3 active torsions:
REMARK  status: ('A' for Active; 'I' for Inactive)
REMARK    1  A    between atoms: C_1  and  C_2
REMARK    2  A    between atoms: C_3  and  C_4
REMARK    3  A    between atoms: C_9  and  C_10
REMARK                            x       y       z     vdW  Elec       q    Type
REMARK                         _______ _______ _______ _____ _____    ______ ____
ROOT
ATOM      1  C   UNL     1       4.688   1.856  20.255  0.00  0.00    +0.000 C 
ATOM      2  C   UNL     1       3.905   3.115  20.008  0.00  0.00    +0.000 C 
ATOM      3  C   UNL     1       2.709   3.433  20.546  0.00  0.00    +0.000 C 
ATOM      4  C   UNL     1       1.928   2.574  21.503  0.00  0.00    +0.000 C 
ATOM      5  C   UNL     1       2.039   4.731  20.211  0.00  0.00    +0.000 C 
ATOM      6  O   UNL     1       0.953   5.025  20.698  0.00  0.00    +0.000 OA
ATOM      7  C   UNL     1       2.711   5.654  19.279  0.00  0.00    +0.000 A 
ATOM      8  C   UNL     1       2.112   6.880  18.942  0.00  0.00    +0.000 A 
ATOM      9  C   UNL     1       2.746   7.764  18.055  0.00  0.00    +0.000 A 
ATOM     10  C   UNL     1       2.124   9.078  17.680  0.00  0.00    +0.000 C 
ATOM     11  C   UNL     1       3.985   7.412  17.510  0.00  0.00    +0.000 A 
ATOM     12  C   UNL     1       4.581   6.197  17.844  0.00  0.00    +0.000 A 
ATOM     13  C   UNL     1       3.943   5.319  18.728  0.00  0.00    +0.000 A 
ATOM     14  C   UNL     1       4.591   4.045  19.065  0.00  0.00    +0.000 C 
ATOM     15  O   UNL     1       5.679   3.761  18.573  0.00  0.00    +0.000 OA
ENDROOT
TORSDOF 0
ENDMDL
MODEL 5
REMARK VINA RESULT:      -6.4      1.473      5.178
REMARK  Name = 
REMARK  3 active torsions:
REMARK  status: ('A' for Active; 'I' for Inactive)
REMARK    1  A    between atoms: C_1  and  C_2
REMARK    2  A    between atoms: C_3  and  C_4
REMARK    3  A    between atoms: C_9  and  C_10
REMARK                            x       y       z     vdW  Elec       q    Type
REMARK                         _______ _______ _______ _____ _____    ______ ____
ROOT
ATOM      1  C   UNL     1       4.990   6.663  15.963  0.00  0.00    +0.000 C 
ATOM      2  C   UNL     1       4.187   6.235  17.161  0.00  0.00    +0.000 C 
ATOM      3  C   UNL     1       3.368   7.015  17.896  0.00  0.00    +0.000 C 
ATOM      4  C   UNL     1       3.105   8.476  17.653  0.00  0.00    +0.000 C 
ATOM      5  C   UNL     1       2.624   6.452  19.070  0.00  0.00    +0.000 C 
ATOM      6  O   UNL     1       1.878   7.156  19.741  0.00  0.00    +0.000 OA
ATOM      7  C   UNL     1       2.806   5.029  19.406  0.00  0.00    +0.000 A 
ATOM      8  C   UNL     1       2.125   4.468  20.500  0.00  0.00    +0.000 A 
ATOM      9  C   UNL     1       2.293   3.113  20.826  0.00  0.00    +0.000 A 
ATOM     10  C   UNL     1       1.576   2.493  21.990  0.00  0.00    +0.000 C 
ATOM     11  C   UNL     1       3.148   2.325  20.049  0.00  0.00    +0.000 A 
ATOM     12  C   UNL     1       3.823   2.880  18.964  0.00  0.00    +0.000 A 
ATOM     13  C   UNL     1       3.652   4.232  18.643  0.00  0.00    +0.000 A 
ATOM     14  C   UNL     1       4.375   4.793  17.495  0.00  0.00    +0.000 C 
ATOM     15  O   UNL     1       5.118   4.079  16.828  0.00  0.00    +0.000 OA
ENDROOT
TORSDOF 0
ENDMDL
MODEL 6
REMARK VINA RESULT:      -6.4      2.031      5.091
REMARK  Name = 
REMARK  3 active torsions:
REMARK  status: ('A' for Active; 'I' for Inactive)
REMARK    1  A    between atoms: C_1  and  C_2
REMARK    2  A    between atoms: C_3  and  C_4
REMARK    3  A    between atoms: C_9  and  C_10
REMARK                            x       y       z     vdW  Elec       q    Type
REMARK                         _______ _______ _______ _____ _____    ______ ____
ROOT
ATOM      1  C   UNL     1       7.036   4.923  15.300  0.00  0.00    +0.000 C 
ATOM      2  C   UNL     1       6.203   4.749  16.541  0.00  0.00    +0.000 C 
ATOM      3  C   UNL     1       6.570   5.057  17.801  0.00  0.00    +0.000 C 
ATOM      4  C   UNL     1       7.898   5.638  18.206  0.00  0.00    +0.000 C 
ATOM      5  C   UNL     1       5.633   4.830  18.949  0.00  0.00    +0.000 C 
ATOM      6  O   UNL     1       5.961   5.109  20.097  0.00  0.00    +0.000 OA
ATOM      7  C   UNL     1       4.302   4.260  18.674  0.00  0.00    +0.000 A 
ATOM      8  C   UNL     1       3.398   4.034  19.726  0.00  0.00    +0.000 A 
ATOM      9  C   UNL     1       2.128   3.491  19.471  0.00  0.00    +0.000 A 
ATOM     10  C   UNL     1       1.148   3.240  20.579  0.00  0.00    +0.000 C 
ATOM     11  C   UNL     1       1.772   3.179  18.155  0.00  0.00    +0.000 A 
ATOM     12  C   UNL     1       2.666   3.404  17.111  0.00  0.00    +0.000 A 
ATOM     13  C   UNL     1       3.932   3.944  17.371  0.00  0.00    +0.000 A 
ATOM     14  C   UNL     1       4.857   4.173  16.254  0.00  0.00    +0.000 C 
ATOM     15  O   UNL     1       4.518   3.891  15.109  0.00  0.00    +0.000 OA
ENDROOT
TORSDOF 0
ENDMDL
MODEL 7
REMARK VINA RESULT:      -6.4      1.201      3.029
REMARK  Name = 
REMARK  3 active torsions:
REMARK  status: ('A' for Active; 'I' for Inactive)
REMARK    1  A    between atoms: C_1  and  C_2
REMARK    2  A    between atoms: C_3  and  C_4
REMARK    3  A    between atoms: C_9  and  C_10
REMARK                            x       y       z     vdW  Elec       q    Type
REMARK                         _______ _______ _______ _____ _____    ______ ____
ROOT
ATOM      1  C   UNL     1       1.498   4.818  20.656  0.00  0.00    +0.000 C 
ATOM      2  C   UNL     1       2.380   5.261  19.521  0.00  0.00    +0.000 C 
ATOM      3  C   UNL     1       2.573   6.530  19.106  0.00  0.00    +0.000 C 
ATOM      4  C   UNL     1       1.934   7.752  19.708  0.00  0.00    +0.000 C 
ATOM      5  C   UNL     1       3.486   6.829  17.955  0.00  0.00    +0.000 C 
ATOM      6  O   UNL     1       3.668   7.980  17.575  0.00  0.00    +0.000 OA
ATOM      7  C   UNL     1       4.168   5.707  17.283  0.00  0.00    +0.000 A 
ATOM      8  C   UNL     1       5.031   5.950  16.201  0.00  0.00    +0.000 A 
ATOM      9  C   UNL     1       5.683   4.887  15.556  0.00  0.00    +0.000 A 
ATOM     10  C   UNL     1       6.608   5.123  14.398  0.00  0.00    +0.000 C 
ATOM     11  C   UNL     1       5.465   3.581  16.005  0.00  0.00    +0.000 A 
ATOM     12  C   UNL     1       4.610   3.338  17.078  0.00  0.00    +0.000 A 
ATOM     13  C   UNL     1       3.962   4.403  17.717  0.00  0.00    +0.000 A 
ATOM     14  C   UNL     1       3.067   4.122  18.846  0.00  0.00    +0.000 C 
ATOM     15  O   UNL     1       2.894   2.966  19.220  0.00  0.00    +0.000 OA
ENDROOT
TORSDOF 0
ENDMDL
MODEL 8
REMARK VINA RESULT:      -6.3      1.077      2.998
REMARK  Name = 
REMARK  3 active torsions:
REMARK  status: ('A' for Active; 'I' for Inactive)
REMARK    1  A    between atoms: C_1  and  C_2
REMARK    2  A    between atoms: C_3  and  C_4
REMARK    3  A    between atoms: C_9  and  C_10
REMARK                            x       y       z     vdW  Elec       q    Type
REMARK                         _______ _______ _______ _____ _____    ______ ____
ROOT
ATOM      1  C   UNL     1       1.534   3.535  21.464  0.00  0.00    +0.000 C 
ATOM      2  C   UNL     1       2.201   4.292  20.348  0.00  0.00    +0.000 C 
ATOM      3  C   UNL     1       2.140   5.622  20.136  0.00  0.00    +0.000 C 
ATOM      4  C   UNL     1       1.384   6.608  20.984  0.00  0.00    +0.000 C 
ATOM      5  C   UNL     1       2.859   6.246  18.977  0.00  0.00    +0.000 C 
ATOM      6  O   UNL     1       2.809   7.455  18.780  0.00  0.00    +0.000 OA
ATOM      7  C   UNL     1       3.633   5.376  18.073  0.00  0.00    +0.000 A 
ATOM      8  C   UNL     1       4.320   5.926  16.978  0.00  0.00    +0.000 A 
ATOM      9  C   UNL     1       5.059   5.104  16.113  0.00  0.00    +0.000 A 
ATOM     10  C   UNL     1       5.799   5.670  14.936  0.00  0.00    +0.000 C 
ATOM     11  C   UNL     1       5.105   3.727  16.355  0.00  0.00    +0.000 A 
ATOM     12  C   UNL     1       4.426   3.180  17.441  0.00  0.00    +0.000 A 
ATOM     13  C   UNL     1       3.689   4.005  18.300  0.00  0.00    +0.000 A 
ATOM     14  C   UNL     1       2.983   3.405  19.439  0.00  0.00    +0.000 C 
ATOM     15  O   UNL     1       3.041   2.194  19.629  0.00  0.00    +0.000 OA
ENDROOT
TORSDOF 0
ENDMDL
MODEL 9
REMARK VINA RESULT:      -6.3      1.024      2.996
REMARK  Name = 
REMARK  3 active torsions:
REMARK  status: ('A' for Active; 'I' for Inactive)
REMARK    1  A    between atoms: C_1  and  C_2
REMARK    2  A    between atoms: C_3  and  C_4
REMARK    3  A    between atoms: C_9  and  C_10
REMARK                            x       y       z     vdW  Elec       q    Type
REMARK                         _______ _______ _______ _____ _____    ______ ____
ROOT
ATOM      1  C   UNL     1       0.753   2.269  18.838  0.00  0.00    +0.000 C 
ATOM      2  C   UNL     1       1.808   3.337  18.744  0.00  0.00    +0.000 C 
ATOM      3  C   UNL     1       1.860   4.476  19.465  0.00  0.00    +0.000 C 
ATOM      4  C   UNL     1       0.860   4.895  20.507  0.00  0.00    +0.000 C 
ATOM      5  C   UNL     1       2.976   5.457  19.266  0.00  0.00    +0.000 C 
ATOM      6  O   UNL     1       3.030   6.493  19.919  0.00  0.00    +0.000 OA
ATOM      7  C   UNL     1       4.016   5.153  18.266  0.00  0.00    +0.000 A 
ATOM      8  C   UNL     1       5.077   6.050  18.054  0.00  0.00    +0.000 A 
ATOM      9  C   UNL     1       6.070   5.767  17.104  0.00  0.00    +0.000 A 
ATOM     10  C   UNL     1       7.211   6.710  16.860  0.00  0.00    +0.000 C 
ATOM     11  C   UNL     1       5.993   4.579  16.369  0.00  0.00    +0.000 A 
ATOM     12  C   UNL     1       4.942   3.689  16.579  0.00  0.00    +0.000 A 
ATOM     13  C   UNL     1       3.953   3.977  17.528  0.00  0.00    +0.000 A 
ATOM     14  C   UNL     1       2.856   3.022  17.731  0.00  0.00    +0.000 C 
ATOM     15  O   UNL     1       2.813   1.987  17.074  0.00  0.00    +0.000 OA
ENDROOT
TORSDOF 0
ENDMDL
