MODEL 1
REMARK VINA RESULT:      -7.2      0.000      0.000
REMARK  Name = 
REMARK  10 active torsions:
REMARK  status: ('A' for Active; 'I' for Inactive)
REMARK    1  A    between atoms: C_1  and  C_2
REMARK    2  A    between atoms: C_2  and  C_3
REMARK    3  A    between atoms: C_3  and  C_4
REMARK    4  A    between atoms: C_4  and  C_5
REMARK    5  A    between atoms: C_6  and  C_7
REMARK    6  A    between atoms: N_14  and  CA_15
REMARK    7  A    between atoms: CA_15  and  C_16
REMARK    8  A    between atoms: CA_15  and  C_18
REMARK    9  A    between atoms: C_16  and  C_17
REMARK   10  A    between atoms: C_18  and  O_19
REMARK                            x       y       z     vdW  Elec       q    Type
REMARK                         _______ _______ _______ _____ _____    ______ ____
ROOT
ATOM      1  C   UNL     1       6.049   4.327  14.128  0.00  0.00    +0.000 A 
ATOM      2  C   UNL     1       7.242   4.967  13.823  0.00  0.00    +0.000 A 
ATOM      3  N   UNL     1       7.867   5.449  14.938  0.00  0.00    +0.000 NA
ATOM      4  C   UNL     1       7.073   5.116  15.930  0.00  0.00    +0.000 A 
ATOM      5  C   UNL     1       7.263   5.252  17.320  0.00  0.00    +0.000 A 
ATOM      6  C   UNL     1       6.321   4.791  18.151  0.00  0.00    +0.000 A 
ATOM      7  C   UNL     1       5.039   4.254  17.579  0.00  0.00    +0.000 A 
ATOM      8  N   UNL     1       4.022   3.986  18.478  0.00  0.00    +0.000 N 
ATOM      9  N   UNL     1       4.874   4.049  16.298  0.00  0.00    +0.000 NA
ATOM     10  N   UNL     1       5.925   4.470  15.507  0.00  0.00    +0.000 N 
ATOM     11  H   UNL     1       4.172   4.234  19.450  0.00  0.00    +0.000 HD
ENDROOT
BRANCH   1  13
ATOM     12  C   UNL     1       5.268   3.463  12.037  0.00  0.00    +0.000 C 
ATOM     13  C   UNL     1       5.097   3.623  13.362  0.00  0.00    +0.000 C 
BRANCH  12  14
ATOM     14  C   UNL     1       4.355   2.650  11.167  0.00  0.00    +0.000 C 
BRANCH  14  15
ATOM     15  C   UNL     1       3.132   3.469  10.756  0.00  0.00    +0.000 C 
BRANCH  15  17
ATOM     16  C   UNL     1       2.187   5.018   9.015  0.00  0.00    +0.000 C 
ATOM     17  C   UNL     1       3.279   4.013   9.336  0.00  0.00    +0.000 C 
ENDBRANCH  15  17
ENDBRANCH  14  15
ENDBRANCH  12  14
ENDBRANCH   1  13
BRANCH   8  18
ATOM     18  CA  UNL     1       2.909   3.068  18.228  0.00  0.00    +0.000 C 
BRANCH  18  19
ATOM     19  C   UNL     1       2.726   2.092  19.408  0.00  0.00    +0.000 C 
ATOM     20  C   UNL     1       2.634   2.722  20.786  0.00  0.00    +0.000 C 
ENDBRANCH  18  19
BRANCH  18  21
ATOM     21  C   UNL     1       1.592   3.873  18.073  0.00  0.00    +0.000 C 
BRANCH  21  22
ATOM     22  O   UNL     1       0.431   3.049  18.138  0.00  0.00    +0.000 OA
ATOM     23  H   UNL     1       0.246   2.751  17.231  0.00  0.00    +0.000 HD
ENDBRANCH  21  22
ENDBRANCH  18  21
ENDBRANCH   8  18
TORSDOF 8
ENDMDL
MODEL 2
REMARK VINA RESULT:      -6.9      1.154      1.407
REMARK  Name = 
REMARK  10 active torsions:
REMARK  status: ('A' for Active; 'I' for Inactive)
REMARK    1  A    between atoms: C_1  and  C_2
REMARK    2  A    between atoms: C_2  and  C_3
REMARK    3  A    between atoms: C_3  and  C_4
REMARK    4  A    between atoms: C_4  and  C_5
REMARK    5  A    between atoms: C_6  and  C_7
REMARK    6  A    between atoms: N_14  and  CA_15
REMARK    7  A    between atoms: CA_15  and  C_16
REMARK    8  A    between atoms: CA_15  and  C_18
REMARK    9  A    between atoms: C_16  and  C_17
REMARK   10  A    between atoms: C_18  and  O_19
REMARK                            x       y       z     vdW  Elec       q    Type
REMARK                         _______ _______ _______ _____ _____    ______ ____
ROOT
ATOM      1  C   UNL     1       6.205   4.616  15.421  0.00  0.00    +0.000 A 
ATOM      2  C   UNL     1       7.422   5.281  15.469  0.00  0.00    +0.000 A 
ATOM      3  N   UNL     1       7.752   5.658  16.739  0.00  0.00    +0.000 NA
ATOM      4  C   UNL     1       6.752   5.234  17.479  0.00  0.00    +0.000 A 
ATOM      5  C   UNL     1       6.602   5.241  18.881  0.00  0.00    +0.000 A 
ATOM      6  C   UNL     1       5.500   4.704  19.417  0.00  0.00    +0.000 A 
ATOM      7  C   UNL     1       4.404   4.222  18.509  0.00  0.00    +0.000 A 
ATOM      8  N   UNL     1       3.208   3.872  19.110  0.00  0.00    +0.000 N 
ATOM      9  N   UNL     1       4.554   4.136  17.213  0.00  0.00    +0.000 NA
ATOM     10  N   UNL     1       5.753   4.630  16.737  0.00  0.00    +0.000 N 
ATOM     11  H   UNL     1       3.118   4.028  20.108  0.00  0.00    +0.000 HD
ENDROOT
BRANCH   1  13
ATOM     12  C   UNL     1       6.061   3.721  13.204  0.00  0.00    +0.000 C 
ATOM     13  C   UNL     1       5.479   3.985  14.389  0.00  0.00    +0.000 C 
BRANCH  12  14
ATOM     14  C   UNL     1       5.392   2.971  12.091  0.00  0.00    +0.000 C 
BRANCH  14  15
ATOM     15  C   UNL     1       4.055   3.619  11.734  0.00  0.00    +0.000 C 
BRANCH  15  17
ATOM     16  C   UNL     1       2.894   4.181   9.574  0.00  0.00    +0.000 C 
ATOM     17  C   UNL     1       3.509   3.075  10.415  0.00  0.00    +0.000 C 
ENDBRANCH  15  17
ENDBRANCH  14  15
ENDBRANCH  12  14
ENDBRANCH   1  13
BRANCH   8  18
ATOM     18  CA  UNL     1       2.208   2.980  18.520  0.00  0.00    +0.000 C 
BRANCH  18  19
ATOM     19  C   UNL     1       1.399   2.259  19.617  0.00  0.00    +0.000 C 
ATOM     20  C   UNL     1       1.429   2.897  20.994  0.00  0.00    +0.000 C 
ENDBRANCH  18  19
BRANCH  18  21
ATOM     21  C   UNL     1       1.212   3.806  17.664  0.00  0.00    +0.000 C 
BRANCH  21  22
ATOM     22  O   UNL     1       1.499   5.202  17.677  0.00  0.00    +0.000 OA
ATOM     23  H   UNL     1       0.908   5.605  18.335  0.00  0.00    +0.000 HD
ENDBRANCH  21  22
ENDBRANCH  18  21
ENDBRANCH   8  18
TORSDOF 8
ENDMDL
MODEL 3
REMARK VINA RESULT:      -6.9      3.581      7.277
REMARK  Name = 
REMARK  10 active torsions:
REMARK  status: ('A' for Active; 'I' for Inactive)
REMARK    1  A    between atoms: C_1  and  C_2
REMARK    2  A    between atoms: C_2  and  C_3
REMARK    3  A    between atoms: C_3  and  C_4
REMARK    4  A    between atoms: C_4  and  C_5
REMARK    5  A    between atoms: C_6  and  C_7
REMARK    6  A    between atoms: N_14  and  CA_15
REMARK    7  A    between atoms: CA_15  and  C_16
REMARK    8  A    between atoms: CA_15  and  C_18
REMARK    9  A    between atoms: C_16  and  C_17
REMARK   10  A    between atoms: C_18  and  O_19
REMARK                            x       y       z     vdW  Elec       q    Type
REMARK                         _______ _______ _______ _____ _____    ______ ____
ROOT
ATOM      1  C   UNL     1       2.054   5.253  19.607  0.00  0.00    +0.000 A 
ATOM      2  C   UNL     1       1.088   4.560  20.323  0.00  0.00    +0.000 A 
ATOM      3  N   UNL     1       1.199   3.209  20.162  0.00  0.00    +0.000 NA
ATOM      4  C   UNL     1       2.223   3.057  19.354  0.00  0.00    +0.000 A 
ATOM      5  C   UNL     1       2.869   1.877  18.931  0.00  0.00    +0.000 A 
ATOM      6  C   UNL     1       3.937   1.975  18.130  0.00  0.00    +0.000 A 
ATOM      7  C   UNL     1       4.341   3.326  17.610  0.00  0.00    +0.000 A 
ATOM      8  N   UNL     1       5.314   3.347  16.627  0.00  0.00    +0.000 N 
ATOM      9  N   UNL     1       3.806   4.435  18.048  0.00  0.00    +0.000 NA
ATOM     10  N   UNL     1       2.765   4.260  18.939  0.00  0.00    +0.000 N 
ATOM     11  H   UNL     1       5.643   2.457  16.267  0.00  0.00    +0.000 HD
ENDROOT
BRANCH   1  13
ATOM     12  C   UNL     1       2.216   7.278  18.340  0.00  0.00    +0.000 C 
ATOM     13  C   UNL     1       2.397   6.617  19.499  0.00  0.00    +0.000 C 
BRANCH  12  14
ATOM     14  C   UNL     1       2.464   8.748  18.167  0.00  0.00    +0.000 C 
BRANCH  14  15
ATOM     15  C   UNL     1       1.148   9.493  17.947  0.00  0.00    +0.000 C 
BRANCH  15  17
ATOM     16  C   UNL     1       0.204   9.770  20.262  0.00  0.00    +0.000 C 
ATOM     17  C   UNL     1       0.865  10.470  19.087  0.00  0.00    +0.000 C 
ENDBRANCH  15  17
ENDBRANCH  14  15
ENDBRANCH  12  14
ENDBRANCH   1  13
BRANCH   8  18
ATOM     18  CA  UNL     1       6.160   4.501  16.316  0.00  0.00    +0.000 C 
BRANCH  18  19
ATOM     19  C   UNL     1       7.392   4.546  17.243  0.00  0.00    +0.000 C 
ATOM     20  C   UNL     1       7.434   5.690  18.239  0.00  0.00    +0.000 C 
ENDBRANCH  18  19
BRANCH  18  21
ATOM     21  C   UNL     1       6.671   4.396  14.855  0.00  0.00    +0.000 C 
BRANCH  21  22
ATOM     22  O   UNL     1       7.644   5.389  14.539  0.00  0.00    +0.000 OA
ATOM     23  H   UNL     1       7.699   5.431  13.570  0.00  0.00    +0.000 HD
ENDBRANCH  21  22
ENDBRANCH  18  21
ENDBRANCH   8  18
TORSDOF 8
ENDMDL
MODEL 4
REMARK VINA RESULT:      -6.9      2.541      6.829
REMARK  Name = 
REMARK  10 active torsions:
REMARK  status: ('A' for Active; 'I' for Inactive)
REMARK    1  A    between atoms: C_1  and  C_2
REMARK    2  A    between atoms: C_2  and  C_3
REMARK    3  A    between atoms: C_3  and  C_4
REMARK    4  A    between atoms: C_4  and  C_5
REMARK    5  A    between atoms: C_6  and  C_7
REMARK    6  A    between atoms: N_14  and  CA_15
REMARK    7  A    between atoms: CA_15  and  C_16
REMARK    8  A    between atoms: CA_15  and  C_18
REMARK    9  A    between atoms: C_16  and  C_17
REMARK   10  A    between atoms: C_18  and  O_19
REMARK                            x       y       z     vdW  Elec       q    Type
REMARK                         _______ _______ _______ _____ _____    ______ ____
ROOT
ATOM      1  C   UNL     1       4.603   4.297  17.328  0.00  0.00    +0.000 A 
ATOM      2  C   UNL     1       5.198   5.070  18.314  0.00  0.00    +0.000 A 
ATOM      3  N   UNL     1       6.356   5.651  17.884  0.00  0.00    +0.000 NA
ATOM      4  C   UNL     1       6.486   5.245  16.641  0.00  0.00    +0.000 A 
ATOM      5  C   UNL     1       7.433   5.619  15.666  0.00  0.00    +0.000 A 
ATOM      6  C   UNL     1       7.336   5.100  14.437  0.00  0.00    +0.000 A 
ATOM      7  C   UNL     1       6.299   4.046  14.166  0.00  0.00    +0.000 A 
ATOM      8  N   UNL     1       6.377   3.396  12.947  0.00  0.00    +0.000 N 
ATOM      9  N   UNL     1       5.366   3.742  15.030  0.00  0.00    +0.000 NA
ATOM     10  N   UNL     1       5.479   4.382  16.249  0.00  0.00    +0.000 N 
ATOM     11  H   UNL     1       7.163   3.614  12.345  0.00  0.00    +0.000 HD
ENDROOT
BRANCH   1  13
ATOM     12  C   UNL     1       3.016   2.771  18.268  0.00  0.00    +0.000 C 
ATOM     13  C   UNL     1       3.396   3.570  17.254  0.00  0.00    +0.000 C 
BRANCH  12  14
ATOM     14  C   UNL     1       1.707   2.039  18.311  0.00  0.00    +0.000 C 
BRANCH  14  15
ATOM     15  C   UNL     1       0.689   2.807  19.154  0.00  0.00    +0.000 C 
BRANCH  15  17
ATOM     16  C   UNL     1       1.419   2.708  21.560  0.00  0.00    +0.000 C 
ATOM     17  C   UNL     1       1.369   3.555  20.300  0.00  0.00    +0.000 C 
ENDBRANCH  15  17
ENDBRANCH  14  15
ENDBRANCH  12  14
ENDBRANCH   1  13
BRANCH   8  18
ATOM     18  CA  UNL     1       5.262   2.702  12.300  0.00  0.00    +0.000 C 
BRANCH  18  19
ATOM     19  C   UNL     1       4.371   3.695  11.526  0.00  0.00    +0.000 C 
ATOM     20  C   UNL     1       3.358   3.081  10.577  0.00  0.00    +0.000 C 
ENDBRANCH  18  19
BRANCH  18  21
ATOM     21  C   UNL     1       5.810   1.666  11.283  0.00  0.00    +0.000 C 
BRANCH  21  22
ATOM     22  O   UNL     1       7.211   1.447  11.422  0.00  0.00    +0.000 OA
ATOM     23  H   UNL     1       7.590   1.474  10.527  0.00  0.00    +0.000 HD
ENDBRANCH  21  22
ENDBRANCH  18  21
ENDBRANCH   8  18
TORSDOF 8
ENDMDL
MODEL 5
REMARK VINA RESULT:      -6.7      1.479      1.894
REMARK  Name = 
REMARK  10 active torsions:
REMARK  status: ('A' for Active; 'I' for Inactive)
REMARK    1  A    between atoms: C_1  and  C_2
REMARK    2  A    between atoms: C_2  and  C_3
REMARK    3  A    between atoms: C_3  and  C_4
REMARK    4  A    between atoms: C_4  and  C_5
REMARK    5  A    between atoms: C_6  and  C_7
REMARK    6  A    between atoms: N_14  and  CA_15
REMARK    7  A    between atoms: CA_15  and  C_16
REMARK    8  A    between atoms: CA_15  and  C_18
REMARK    9  A    between atoms: C_16  and  C_17
REMARK   10  A    between atoms: C_18  and  O_19
REMARK                            x       y       z     vdW  Elec       q    Type
REMARK                         _______ _______ _______ _____ _____    ______ ____
ROOT
ATOM      1  C   UNL     1       6.276   4.668  15.127  0.00  0.00    +0.000 A 
ATOM      2  C   UNL     1       7.311   5.573  14.940  0.00  0.00    +0.000 A 
ATOM      3  N   UNL     1       7.677   6.183  16.105  0.00  0.00    +0.000 NA
ATOM      4  C   UNL     1       6.879   5.668  17.012  0.00  0.00    +0.000 A 
ATOM      5  C   UNL     1       6.876   5.838  18.412  0.00  0.00    +0.000 A 
ATOM      6  C   UNL     1       5.983   5.163  19.145  0.00  0.00    +0.000 A 
ATOM      7  C   UNL     1       4.936   4.341  18.448  0.00  0.00    +0.000 A 
ATOM      8  N   UNL     1       3.916   3.836  19.237  0.00  0.00    +0.000 N 
ATOM      9  N   UNL     1       4.967   4.109  17.162  0.00  0.00    +0.000 NA
ATOM     10  N   UNL     1       5.969   4.771  16.481  0.00  0.00    +0.000 N 
ATOM     11  H   UNL     1       3.896   4.108  20.213  0.00  0.00    +0.000 HD
ENDROOT
BRANCH   1  13
ATOM     12  C   UNL     1       5.649   3.920  12.941  0.00  0.00    +0.000 C 
ATOM     13  C   UNL     1       5.607   3.763  14.278  0.00  0.00    +0.000 C 
BRANCH  12  14
ATOM     14  C   UNL     1       5.047   2.952  11.965  0.00  0.00    +0.000 C 
BRANCH  14  15
ATOM     15  C   UNL     1       3.660   3.421  11.528  0.00  0.00    +0.000 C 
BRANCH  15  17
ATOM     16  C   UNL     1       2.738   4.467   9.434  0.00  0.00    +0.000 C 
ATOM     17  C   UNL     1       3.473   3.273  10.019  0.00  0.00    +0.000 C 
ENDBRANCH  15  17
ENDBRANCH  14  15
ENDBRANCH  12  14
ENDBRANCH   1  13
BRANCH   8  18
ATOM     18  CA  UNL     1       3.086   2.683  18.887  0.00  0.00    +0.000 C 
BRANCH  18  19
ATOM     19  C   UNL     1       2.298   2.946  17.587  0.00  0.00    +0.000 C 
ATOM     20  C   UNL     1       1.374   4.151  17.602  0.00  0.00    +0.000 C 
ENDBRANCH  18  19
BRANCH  18  21
ATOM     21  C   UNL     1       3.987   1.442  18.649  0.00  0.00    +0.000 C 
BRANCH  21  22
ATOM     22  O   UNL     1       4.989   1.289  19.651  0.00  0.00    +0.000 OA
ATOM     23  H   UNL     1       5.770   1.781  19.346  0.00  0.00    +0.000 HD
ENDBRANCH  21  22
ENDBRANCH  18  21
ENDBRANCH   8  18
TORSDOF 8
ENDMDL
MODEL 6
REMARK VINA RESULT:      -6.7      3.674      7.553
REMARK  Name = 
REMARK  10 active torsions:
REMARK  status: ('A' for Active; 'I' for Inactive)
REMARK    1  A    between atoms: C_1  and  C_2
REMARK    2  A    between atoms: C_2  and  C_3
REMARK    3  A    between atoms: C_3  and  C_4
REMARK    4  A    between atoms: C_4  and  C_5
REMARK    5  A    between atoms: C_6  and  C_7
REMARK    6  A    between atoms: N_14  and  CA_15
REMARK    7  A    between atoms: CA_15  and  C_16
REMARK    8  A    between atoms: CA_15  and  C_18
REMARK    9  A    between atoms: C_16  and  C_17
REMARK   10  A    between atoms: C_18  and  O_19
REMARK                            x       y       z     vdW  Elec       q    Type
REMARK                         _______ _______ _______ _____ _____    ______ ____
ROOT
ATOM      1  C   UNL     1       1.940   4.929  19.820  0.00  0.00    +0.000 A 
ATOM      2  C   UNL     1       0.973   4.146  20.434  0.00  0.00    +0.000 A 
ATOM      3  N   UNL     1       1.115   2.822  20.132  0.00  0.00    +0.000 NA
ATOM      4  C   UNL     1       2.160   2.776  19.337  0.00  0.00    +0.000 A 
ATOM      5  C   UNL     1       2.840   1.661  18.805  0.00  0.00    +0.000 A 
ATOM      6  C   UNL     1       3.923   1.864  18.046  0.00  0.00    +0.000 A 
ATOM      7  C   UNL     1       4.311   3.270  17.684  0.00  0.00    +0.000 A 
ATOM      8  N   UNL     1       5.305   3.415  16.733  0.00  0.00    +0.000 N 
ATOM      9  N   UNL     1       3.743   4.316  18.226  0.00  0.00    +0.000 NA
ATOM     10  N   UNL     1       2.686   4.027  19.067  0.00  0.00    +0.000 N 
ATOM     11  H   UNL     1       5.660   2.575  16.289  0.00  0.00    +0.000 HD
ENDROOT
BRANCH   1  13
ATOM     12  C   UNL     1       1.460   7.167  20.523  0.00  0.00    +0.000 C 
ATOM     13  C   UNL     1       2.257   6.303  19.868  0.00  0.00    +0.000 C 
BRANCH  12  14
ATOM     14  C   UNL     1       1.772   8.623  20.703  0.00  0.00    +0.000 C 
BRANCH  14  15
ATOM     15  C   UNL     1       0.554   9.480  20.362  0.00  0.00    +0.000 C 
BRANCH  15  17
ATOM     16  C   UNL     1       1.577   9.525  18.064  0.00  0.00    +0.000 C 
ATOM     17  C   UNL     1       0.794  10.310  19.102  0.00  0.00    +0.000 C 
ENDBRANCH  15  17
ENDBRANCH  14  15
ENDBRANCH  12  14
ENDBRANCH   1  13
BRANCH   8  18
ATOM     18  CA  UNL     1       6.134   4.611  16.569  0.00  0.00    +0.000 C 
BRANCH  18  19
ATOM     19  C   UNL     1       7.354   4.567  17.511  0.00  0.00    +0.000 C 
ATOM     20  C   UNL     1       7.534   5.767  18.423  0.00  0.00    +0.000 C 
ENDBRANCH  18  19
BRANCH  18  21
ATOM     21  C   UNL     1       6.663   4.684  15.113  0.00  0.00    +0.000 C 
BRANCH  21  22
ATOM     22  O   UNL     1       7.646   5.700  14.935  0.00  0.00    +0.000 OA
ATOM     23  H   UNL     1       7.618   6.262  15.728  0.00  0.00    +0.000 HD
ENDBRANCH  21  22
ENDBRANCH  18  21
ENDBRANCH   8  18
TORSDOF 8
ENDMDL
MODEL 7
REMARK VINA RESULT:      -6.6      1.226      1.568
REMARK  Name = 
REMARK  10 active torsions:
REMARK  status: ('A' for Active; 'I' for Inactive)
REMARK    1  A    between atoms: C_1  and  C_2
REMARK    2  A    between atoms: C_2  and  C_3
REMARK    3  A    between atoms: C_3  and  C_4
REMARK    4  A    between atoms: C_4  and  C_5
REMARK    5  A    between atoms: C_6  and  C_7
REMARK    6  A    between atoms: N_14  and  CA_15
REMARK    7  A    between atoms: CA_15  and  C_16
REMARK    8  A    between atoms: CA_15  and  C_18
REMARK    9  A    between atoms: C_16  and  C_17
REMARK   10  A    between atoms: C_18  and  O_19
REMARK                            x       y       z     vdW  Elec       q    Type
REMARK                         _______ _______ _______ _____ _____    ______ ____
ROOT
ATOM      1  C   UNL     1       6.153   5.008  15.345  0.00  0.00    +0.000 A 
ATOM      2  C   UNL     1       7.361   5.692  15.332  0.00  0.00    +0.000 A 
ATOM      3  N   UNL     1       7.738   6.092  16.582  0.00  0.00    +0.000 NA
ATOM      4  C   UNL     1       6.777   5.665  17.369  0.00  0.00    +0.000 A 
ATOM      5  C   UNL     1       6.687   5.690  18.775  0.00  0.00    +0.000 A 
ATOM      6  C   UNL     1       5.617   5.145  19.365  0.00  0.00    +0.000 A 
ATOM      7  C   UNL     1       4.491   4.633  18.511  0.00  0.00    +0.000 A 
ATOM      8  N   UNL     1       3.327   4.275  19.168  0.00  0.00    +0.000 N 
ATOM      9  N   UNL     1       4.587   4.531  17.212  0.00  0.00    +0.000 NA
ATOM     10  N   UNL     1       5.757   5.035  16.679  0.00  0.00    +0.000 N 
ATOM     11  H   UNL     1       3.276   4.444  20.166  0.00  0.00    +0.000 HD
ENDROOT
BRANCH   1  13
ATOM     12  C   UNL     1       5.996   3.800  13.283  0.00  0.00    +0.000 C 
ATOM     13  C   UNL     1       5.394   4.352  14.354  0.00  0.00    +0.000 C 
BRANCH  12  14
ATOM     14  C   UNL     1       5.276   3.005  12.235  0.00  0.00    +0.000 C 
BRANCH  14  15
ATOM     15  C   UNL     1       4.402   3.916  11.374  0.00  0.00    +0.000 C 
BRANCH  15  17
ATOM     16  C   UNL     1       2.765   3.956   9.465  0.00  0.00    +0.000 C 
ATOM     17  C   UNL     1       3.392   3.110  10.559  0.00  0.00    +0.000 C 
ENDBRANCH  15  17
ENDBRANCH  14  15
ENDBRANCH  12  14
ENDBRANCH   1  13
BRANCH   8  18
ATOM     18  CA  UNL     1       2.316   3.360  18.633  0.00  0.00    +0.000 C 
BRANCH  18  19
ATOM     19  C   UNL     1       2.607   1.908  19.063  0.00  0.00    +0.000 C 
ATOM     20  C   UNL     1       3.706   1.194  18.296  0.00  0.00    +0.000 C 
ENDBRANCH  18  19
BRANCH  18  21
ATOM     21  C   UNL     1       0.918   3.745  19.185  0.00  0.00    +0.000 C 
BRANCH  21  22
ATOM     22  O   UNL     1       0.920   3.951  20.595  0.00  0.00    +0.000 OA
ATOM     23  H   UNL     1      -0.010   3.985  20.876  0.00  0.00    +0.000 HD
ENDBRANCH  21  22
ENDBRANCH  18  21
ENDBRANCH   8  18
TORSDOF 8
ENDMDL
MODEL 8
REMARK VINA RESULT:      -6.6      3.822      8.196
REMARK  Name = 
REMARK  10 active torsions:
REMARK  status: ('A' for Active; 'I' for Inactive)
REMARK    1  A    between atoms: C_1  and  C_2
REMARK    2  A    between atoms: C_2  and  C_3
REMARK    3  A    between atoms: C_3  and  C_4
REMARK    4  A    between atoms: C_4  and  C_5
REMARK    5  A    between atoms: C_6  and  C_7
REMARK    6  A    between atoms: N_14  and  CA_15
REMARK    7  A    between atoms: CA_15  and  C_16
REMARK    8  A    between atoms: CA_15  and  C_18
REMARK    9  A    between atoms: C_16  and  C_17
REMARK   10  A    between atoms: C_18  and  O_19
REMARK                            x       y       z     vdW  Elec       q    Type
REMARK                         _______ _______ _______ _____ _____    ______ ____
ROOT
ATOM      1  C   UNL     1       1.876   4.975  19.991  0.00  0.00    +0.000 A 
ATOM      2  C   UNL     1       0.874   4.166  20.510  0.00  0.00    +0.000 A 
ATOM      3  N   UNL     1       0.981   2.875  20.080  0.00  0.00    +0.000 NA
ATOM      4  C   UNL     1       2.037   2.874  19.300  0.00  0.00    +0.000 A 
ATOM      5  C   UNL     1       2.691   1.795  18.670  0.00  0.00    +0.000 A 
ATOM      6  C   UNL     1       3.793   2.037  17.951  0.00  0.00    +0.000 A 
ATOM      7  C   UNL     1       4.231   3.458  17.736  0.00  0.00    +0.000 A 
ATOM      8  N   UNL     1       5.247   3.664  16.819  0.00  0.00    +0.000 N 
ATOM      9  N   UNL     1       3.686   4.463  18.370  0.00  0.00    +0.000 NA
ATOM     10  N   UNL     1       2.607   4.127  19.163  0.00  0.00    +0.000 N 
ATOM     11  H   UNL     1       5.583   2.861  16.298  0.00  0.00    +0.000 HD
ENDROOT
BRANCH   1  13
ATOM     12  C   UNL     1       1.317   7.228  20.578  0.00  0.00    +0.000 C 
ATOM     13  C   UNL     1       2.234   6.325  20.180  0.00  0.00    +0.000 C 
BRANCH  12  14
ATOM     14  C   UNL     1       1.634   8.660  20.892  0.00  0.00    +0.000 C 
BRANCH  14  15
ATOM     15  C   UNL     1       0.351   9.455  21.129  0.00  0.00    +0.000 C 
BRANCH  15  17
ATOM     16  C   UNL     1      -0.892  10.366  23.117  0.00  0.00    +0.000 C 
ATOM     17  C   UNL     1      -0.258   9.135  22.493  0.00  0.00    +0.000 C 
ENDBRANCH  15  17
ENDBRANCH  14  15
ENDBRANCH  12  14
ENDBRANCH   1  13
BRANCH   8  18
ATOM     18  CA  UNL     1       6.114   4.843  16.787  0.00  0.00    +0.000 C 
BRANCH  18  19
ATOM     19  C   UNL     1       7.378   4.618  17.642  0.00  0.00    +0.000 C 
ATOM     20  C   UNL     1       7.651   5.660  18.712  0.00  0.00    +0.000 C 
ENDBRANCH  18  19
BRANCH  18  21
ATOM     21  C   UNL     1       6.572   5.115  15.330  0.00  0.00    +0.000 C 
BRANCH  21  22
ATOM     22  O   UNL     1       5.700   4.538  14.361  0.00  0.00    +0.000 OA
ATOM     23  H   UNL     1       5.273   3.775  14.785  0.00  0.00    +0.000 HD
ENDBRANCH  21  22
ENDBRANCH  18  21
ENDBRANCH   8  18
TORSDOF 8
ENDMDL
MODEL 9
REMARK VINA RESULT:      -6.6      3.910      7.335
REMARK  Name = 
REMARK  10 active torsions:
REMARK  status: ('A' for Active; 'I' for Inactive)
REMARK    1  A    between atoms: C_1  and  C_2
REMARK    2  A    between atoms: C_2  and  C_3
REMARK    3  A    between atoms: C_3  and  C_4
REMARK    4  A    between atoms: C_4  and  C_5
REMARK    5  A    between atoms: C_6  and  C_7
REMARK    6  A    between atoms: N_14  and  CA_15
REMARK    7  A    between atoms: CA_15  and  C_16
REMARK    8  A    between atoms: CA_15  and  C_18
REMARK    9  A    between atoms: C_16  and  C_17
REMARK   10  A    between atoms: C_18  and  O_19
REMARK                            x       y       z     vdW  Elec       q    Type
REMARK                         _______ _______ _______ _____ _____    ______ ____
ROOT
ATOM      1  C   UNL     1       2.274   6.107  19.875  0.00  0.00    +0.000 A 
ATOM      2  C   UNL     1       1.447   5.529  20.828  0.00  0.00    +0.000 A 
ATOM      3  N   UNL     1       1.695   4.195  20.982  0.00  0.00    +0.000 NA
ATOM      4  C   UNL     1       2.666   3.940  20.135  0.00  0.00    +0.000 A 
ATOM      5  C   UNL     1       3.405   2.756  19.941  0.00  0.00    +0.000 A 
ATOM      6  C   UNL     1       4.392   2.749  19.038  0.00  0.00    +0.000 A 
ATOM      7  C   UNL     1       4.604   3.960  18.174  0.00  0.00    +0.000 A 
ATOM      8  N   UNL     1       5.492   3.826  17.122  0.00  0.00    +0.000 N 
ATOM      9  N   UNL     1       3.983   5.091  18.388  0.00  0.00    +0.000 NA
ATOM     10  N   UNL     1       3.038   5.048  19.395  0.00  0.00    +0.000 N 
ATOM     11  H   UNL     1       5.889   2.908  16.953  0.00  0.00    +0.000 HD
ENDROOT
BRANCH   1  13
ATOM     12  C   UNL     1       1.964   7.807  18.218  0.00  0.00    +0.000 C 
ATOM     13  C   UNL     1       2.454   7.428  19.413  0.00  0.00    +0.000 C 
BRANCH  12  14
ATOM     14  C   UNL     1       2.028   9.212  17.695  0.00  0.00    +0.000 C 
BRANCH  14  15
ATOM     15  C   UNL     1       1.349  10.178  18.665  0.00  0.00    +0.000 C 
BRANCH  15  17
ATOM     16  C   UNL     1      -0.855  11.355  18.372  0.00  0.00    +0.000 C 
ATOM     17  C   UNL     1      -0.171  10.024  18.631  0.00  0.00    +0.000 C 
ENDBRANCH  15  17
ENDBRANCH  14  15
ENDBRANCH  12  14
ENDBRANCH   1  13
BRANCH   8  18
ATOM     18  CA  UNL     1       6.179   4.939  16.464  0.00  0.00    +0.000 C 
BRANCH  18  19
ATOM     19  C   UNL     1       7.366   5.433  17.315  0.00  0.00    +0.000 C 
ATOM     20  C   UNL     1       7.380   6.916  17.641  0.00  0.00    +0.000 C 
ENDBRANCH  18  19
BRANCH  18  21
ATOM     21  C   UNL     1       6.741   4.471  15.096  0.00  0.00    +0.000 C 
BRANCH  21  22
ATOM     22  O   UNL     1       7.681   5.389  14.543  0.00  0.00    +0.000 OA
ATOM     23  H   UNL     1       8.561   5.101  14.838  0.00  0.00    +0.000 HD
ENDBRANCH  21  22
ENDBRANCH  18  21
ENDBRANCH   8  18
TORSDOF 8
ENDMDL
