MODEL 1
REMARK VINA RESULT:      -8.8      0.000      0.000
REMARK  Name = 
REMARK  12 active torsions:
REMARK  status: ('A' for Active; 'I' for Inactive)
REMARK    1  A    between atoms: C_1  and  O_2
REMARK    2  A    between atoms: O_2  and  C_3
REMARK    3  A    between atoms: C_6  and  O_7
REMARK    4  A    between atoms: O_7  and  C_8
REMARK    5  A    between atoms: C_9  and  C_10
REMARK    6  A    between atoms: C_10  and  C_11
REMARK    7  A    between atoms: C_11  and  C_12
REMARK    8  A    between atoms: C_15  and  O_16
REMARK    9  A    between atoms: C_17  and  C_18
REMARK   10  A    between atoms: N_20  and  C_21
REMARK   11  A    between atoms: C_21  and  C_22
REMARK   12  A    between atoms: C_22  and  C_23
REMARK                            x       y       z     vdW  Elec       q    Type
REMARK                         _______ _______ _______ _____ _____    ______ ____
ROOT
ATOM      1  C   UNL     1       4.750   3.642  16.966  0.00  0.00    +0.000 A 
ATOM      2  C   UNL     1       4.956   3.516  15.577  0.00  0.00    +0.000 A 
ATOM      3  C   UNL     1       5.975   4.212  14.938  0.00  0.00    +0.000 A 
ATOM      4  C   UNL     1       6.784   5.086  15.655  0.00  0.00    +0.000 A 
ATOM      5  C   UNL     1       6.572   5.285  17.029  0.00  0.00    +0.000 A 
ATOM      6  C   UNL     1       5.542   4.560  17.670  0.00  0.00    +0.000 A 
ENDROOT
BRANCH   5   7
ATOM      7  C   UNL     1       7.394   6.207  17.868  0.00  0.00    +0.000 C 
ATOM      8  O   UNL     1       7.879   5.817  18.927  0.00  0.00    +0.000 OA
ATOM      9  N   UNL     1       7.585   7.492  17.399  0.00  0.00    +0.000 N 
ATOM     10  H   UNL     1       7.164   7.732  16.509  0.00  0.00    +0.000 HD
BRANCH   9  11
ATOM     11  C   UNL     1       8.394   8.445  18.116  0.00  0.00    +0.000 C 
BRANCH  11  12
ATOM     12  C   UNL     1       8.184   9.884  17.649  0.00  0.00    +0.000 C 
BRANCH  12  13
ATOM     13  C   UNL     1       9.073  10.840  18.406  0.00  0.00    +0.000 A 
ATOM     14  C   UNL     1       9.617  11.965  17.768  0.00  0.00    +0.000 A 
ATOM     15  C   UNL     1      10.502  12.803  18.449  0.00  0.00    +0.000 A 
ATOM     16  C   UNL     1      10.838  12.518  19.767  0.00  0.00    +0.000 A 
ATOM     17  F   UNL     1      11.700  13.314  20.414  0.00  0.00    +0.000 F 
ATOM     18  C   UNL     1      10.301  11.416  20.420  0.00  0.00    +0.000 A 
ATOM     19  C   UNL     1       9.422  10.573  19.739  0.00  0.00    +0.000 A 
ENDBRANCH  12  13
ENDBRANCH  11  12
ENDBRANCH   9  11
ENDBRANCH   5   7
BRANCH   4  20
ATOM     20  O   UNL     1       7.786   5.738  14.980  0.00  0.00    +0.000 OA
ATOM     21  H   UNL     1       7.431   6.579  14.641  0.00  0.00    +0.000 HD
ENDBRANCH   4  20
BRANCH   1  22
ATOM     22  C   UNL     1       3.709   2.791  17.690  0.00  0.00    +0.000 C 
BRANCH  22  23
ATOM     23  C   UNL     1       2.322   3.452  17.645  0.00  0.00    +0.000 C 
BRANCH  23  28
ATOM     24  C   UNL     1       2.181   7.037  18.846  0.00  0.00    +0.000 A 
ATOM     25  C   UNL     1       1.841   6.886  20.183  0.00  0.00    +0.000 A 
ATOM     26  C   UNL     1       1.606   5.619  20.718  0.00  0.00    +0.000 A 
ATOM     27  C   UNL     1       1.732   4.470  19.929  0.00  0.00    +0.000 A 
ATOM     28  C   UNL     1       2.034   4.614  18.563  0.00  0.00    +0.000 A 
ATOM     29  C   UNL     1       2.260   5.905  18.040  0.00  0.00    +0.000 A 
BRANCH  24  31
ATOM     30  C   UNL     1       1.559   9.326  18.944  0.00  0.00    +0.000 C 
ATOM     31  O   UNL     1       2.438   8.321  18.453  0.00  0.00    +0.000 OA
ENDBRANCH  24  31
BRANCH  27  32
ATOM     32  O   UNL     1       1.592   3.200  20.429  0.00  0.00    +0.000 OA
ATOM     33  C   UNL     1       2.408   2.888  21.559  0.00  0.00    +0.000 C 
ENDBRANCH  27  32
ENDBRANCH  23  28
ENDBRANCH  22  23
ENDBRANCH   1  22
TORSDOF 10
ENDMDL
MODEL 2
REMARK VINA RESULT:      -7.8      5.413      9.513
REMARK  Name = 
REMARK  12 active torsions:
REMARK  status: ('A' for Active; 'I' for Inactive)
REMARK    1  A    between atoms: C_1  and  O_2
REMARK    2  A    between atoms: O_2  and  C_3
REMARK    3  A    between atoms: C_6  and  O_7
REMARK    4  A    between atoms: O_7  and  C_8
REMARK    5  A    between atoms: C_9  and  C_10
REMARK    6  A    between atoms: C_10  and  C_11
REMARK    7  A    between atoms: C_11  and  C_12
REMARK    8  A    between atoms: C_15  and  O_16
REMARK    9  A    between atoms: C_17  and  C_18
REMARK   10  A    between atoms: N_20  and  C_21
REMARK   11  A    between atoms: C_21  and  C_22
REMARK   12  A    between atoms: C_22  and  C_23
REMARK                            x       y       z     vdW  Elec       q    Type
REMARK                         _______ _______ _______ _____ _____    ______ ____
ROOT
ATOM      1  C   UNL     1       2.116   7.230  18.884  0.00  0.00    +0.000 A 
ATOM      2  C   UNL     1       2.051   8.077  17.759  0.00  0.00    +0.000 A 
ATOM      3  C   UNL     1       1.643   9.400  17.881  0.00  0.00    +0.000 A 
ATOM      4  C   UNL     1       1.247   9.901  19.116  0.00  0.00    +0.000 A 
ATOM      5  C   UNL     1       1.241   9.073  20.250  0.00  0.00    +0.000 A 
ATOM      6  C   UNL     1       1.672   7.733  20.115  0.00  0.00    +0.000 A 
ENDROOT
BRANCH   5   7
ATOM      7  C   UNL     1       0.828   9.532  21.610  0.00  0.00    +0.000 C 
ATOM      8  O   UNL     1       1.573   9.373  22.573  0.00  0.00    +0.000 OA
ATOM      9  N   UNL     1      -0.406  10.141  21.726  0.00  0.00    +0.000 N 
ATOM     10  H   UNL     1      -0.956  10.247  20.881  0.00  0.00    +0.000 HD
BRANCH   9  11
ATOM     11  C   UNL     1      -0.879  10.653  22.986  0.00  0.00    +0.000 C 
BRANCH  11  12
ATOM     12  C   UNL     1      -1.184  12.151  22.951  0.00  0.00    +0.000 C 
BRANCH  12  13
ATOM     13  C   UNL     1      -2.660  12.403  22.763  0.00  0.00    +0.000 A 
ATOM     14  C   UNL     1      -3.192  12.601  21.480  0.00  0.00    +0.000 A 
ATOM     15  C   UNL     1      -4.543  12.912  21.318  0.00  0.00    +0.000 A 
ATOM     16  C   UNL     1      -5.361  13.021  22.437  0.00  0.00    +0.000 A 
ATOM     17  F   UNL     1      -6.654  13.335  22.280  0.00  0.00    +0.000 F 
ATOM     18  C   UNL     1      -4.856  12.818  23.715  0.00  0.00    +0.000 A 
ATOM     19  C   UNL     1      -3.504  12.513  23.880  0.00  0.00    +0.000 A 
ENDBRANCH  12  13
ENDBRANCH  11  12
ENDBRANCH   9  11
ENDBRANCH   5   7
BRANCH   4  20
ATOM     20  O   UNL     1       0.868  11.218  19.187  0.00  0.00    +0.000 OA
ATOM     21  H   UNL     1       0.461  11.374  20.057  0.00  0.00    +0.000 HD
ENDBRANCH   4  20
BRANCH   1  22
ATOM     22  C   UNL     1       2.674   5.813  18.774  0.00  0.00    +0.000 C 
BRANCH  22  23
ATOM     23  C   UNL     1       4.153   5.765  19.192  0.00  0.00    +0.000 C 
BRANCH  23  28
ATOM     24  C   UNL     1       5.585   4.819  15.820  0.00  0.00    +0.000 A 
ATOM     25  C   UNL     1       6.901   4.509  16.136  0.00  0.00    +0.000 A 
ATOM     26  C   UNL     1       7.368   4.640  17.444  0.00  0.00    +0.000 A 
ATOM     27  C   UNL     1       6.518   5.063  18.473  0.00  0.00    +0.000 A 
ATOM     28  C   UNL     1       5.195   5.421  18.157  0.00  0.00    +0.000 A 
ATOM     29  C   UNL     1       4.745   5.287  16.825  0.00  0.00    +0.000 A 
BRANCH  24  31
ATOM     30  C   UNL     1       6.178   3.906  13.711  0.00  0.00    +0.000 C 
ATOM     31  O   UNL     1       5.233   4.598  14.518  0.00  0.00    +0.000 OA
ENDBRANCH  24  31
BRANCH  27  32
ATOM     32  O   UNL     1       6.908   5.129  19.786  0.00  0.00    +0.000 OA
ATOM     33  C   UNL     1       8.213   5.662  20.016  0.00  0.00    +0.000 C 
ENDBRANCH  27  32
ENDBRANCH  23  28
ENDBRANCH  22  23
ENDBRANCH   1  22
TORSDOF 10
ENDMDL
MODEL 3
REMARK VINA RESULT:      -7.7      3.232      5.854
REMARK  Name = 
REMARK  12 active torsions:
REMARK  status: ('A' for Active; 'I' for Inactive)
REMARK    1  A    between atoms: C_1  and  O_2
REMARK    2  A    between atoms: O_2  and  C_3
REMARK    3  A    between atoms: C_6  and  O_7
REMARK    4  A    between atoms: O_7  and  C_8
REMARK    5  A    between atoms: C_9  and  C_10
REMARK    6  A    between atoms: C_10  and  C_11
REMARK    7  A    between atoms: C_11  and  C_12
REMARK    8  A    between atoms: C_15  and  O_16
REMARK    9  A    between atoms: C_17  and  C_18
REMARK   10  A    between atoms: N_20  and  C_21
REMARK   11  A    between atoms: C_21  and  C_22
REMARK   12  A    between atoms: C_22  and  C_23
REMARK                            x       y       z     vdW  Elec       q    Type
REMARK                         _______ _______ _______ _____ _____    ______ ____
ROOT
ATOM      1  C   UNL     1       2.036   5.807  20.059  0.00  0.00    +0.000 A 
ATOM      2  C   UNL     1       1.092   4.949  20.656  0.00  0.00    +0.000 A 
ATOM      3  C   UNL     1       1.005   3.611  20.290  0.00  0.00    +0.000 A 
ATOM      4  C   UNL     1       1.825   3.105  19.288  0.00  0.00    +0.000 A 
ATOM      5  C   UNL     1       2.739   3.941  18.627  0.00  0.00    +0.000 A 
ATOM      6  C   UNL     1       2.826   5.297  19.020  0.00  0.00    +0.000 A 
ENDROOT
BRANCH   5   7
ATOM      7  C   UNL     1       3.651   3.476  17.539  0.00  0.00    +0.000 C 
ATOM      8  O   UNL     1       3.821   2.276  17.342  0.00  0.00    +0.000 OA
ATOM      9  N   UNL     1       4.275   4.444  16.777  0.00  0.00    +0.000 N 
ATOM     10  H   UNL     1       4.072   5.412  16.994  0.00  0.00    +0.000 HD
BRANCH   9  11
ATOM     11  C   UNL     1       5.143   4.097  15.681  0.00  0.00    +0.000 C 
BRANCH  11  12
ATOM     12  C   UNL     1       6.605   3.937  16.098  0.00  0.00    +0.000 C 
BRANCH  12  13
ATOM     13  C   UNL     1       7.070   5.113  16.921  0.00  0.00    +0.000 A 
ATOM     14  C   UNL     1       7.025   6.414  16.396  0.00  0.00    +0.000 A 
ATOM     15  C   UNL     1       7.528   7.489  17.130  0.00  0.00    +0.000 A 
ATOM     16  C   UNL     1       8.072   7.264  18.389  0.00  0.00    +0.000 A 
ATOM     17  F   UNL     1       8.569   8.294  19.086  0.00  0.00    +0.000 F 
ATOM     18  C   UNL     1       8.115   5.986  18.932  0.00  0.00    +0.000 A 
ATOM     19  C   UNL     1       7.618   4.909  18.198  0.00  0.00    +0.000 A 
ENDBRANCH  12  13
ENDBRANCH  11  12
ENDBRANCH   9  11
ENDBRANCH   5   7
BRANCH   4  20
ATOM     20  O   UNL     1       1.712   1.773  18.973  0.00  0.00    +0.000 OA
ATOM     21  H   UNL     1       2.376   1.279  19.487  0.00  0.00    +0.000 HD
ENDBRANCH   4  20
BRANCH   1  22
ATOM     22  C   UNL     1       2.213   7.245  20.541  0.00  0.00    +0.000 C 
BRANCH  22  23
ATOM     23  C   UNL     1       0.855   7.904  20.835  0.00  0.00    +0.000 C 
BRANCH  23  28
ATOM     24  C   UNL     1       1.374  11.177  19.010  0.00  0.00    +0.000 A 
ATOM     25  C   UNL     1       0.635  12.064  19.781  0.00  0.00    +0.000 A 
ATOM     26  C   UNL     1      -0.085  11.614  20.889  0.00  0.00    +0.000 A 
ATOM     27  C   UNL     1      -0.060  10.265  21.264  0.00  0.00    +0.000 A 
ATOM     28  C   UNL     1       0.649   9.351  20.464  0.00  0.00    +0.000 A 
ATOM     29  C   UNL     1       1.365   9.826  19.344  0.00  0.00    +0.000 A 
BRANCH  24  31
ATOM     30  C   UNL     1       2.631  13.033  18.228  0.00  0.00    +0.000 C 
ATOM     31  O   UNL     1       2.078  11.745  17.985  0.00  0.00    +0.000 OA
ENDBRANCH  24  31
BRANCH  27  32
ATOM     32  O   UNL     1      -0.684   9.791  22.389  0.00  0.00    +0.000 OA
ATOM     33  C   UNL     1      -1.280  10.781  23.229  0.00  0.00    +0.000 C 
ENDBRANCH  27  32
ENDBRANCH  23  28
ENDBRANCH  22  23
ENDBRANCH   1  22
TORSDOF 10
ENDMDL
MODEL 4
REMARK VINA RESULT:      -7.6      4.490      6.979
REMARK  Name = 
REMARK  12 active torsions:
REMARK  status: ('A' for Active; 'I' for Inactive)
REMARK    1  A    between atoms: C_1  and  O_2
REMARK    2  A    between atoms: O_2  and  C_3
REMARK    3  A    between atoms: C_6  and  O_7
REMARK    4  A    between atoms: O_7  and  C_8
REMARK    5  A    between atoms: C_9  and  C_10
REMARK    6  A    between atoms: C_10  and  C_11
REMARK    7  A    between atoms: C_11  and  C_12
REMARK    8  A    between atoms: C_15  and  O_16
REMARK    9  A    between atoms: C_17  and  C_18
REMARK   10  A    between atoms: N_20  and  C_21
REMARK   11  A    between atoms: C_21  and  C_22
REMARK   12  A    between atoms: C_22  and  C_23
REMARK                            x       y       z     vdW  Elec       q    Type
REMARK                         _______ _______ _______ _____ _____    ______ ____
ROOT
ATOM      1  C   UNL     1       2.205   5.280  20.432  0.00  0.00    +0.000 A 
ATOM      2  C   UNL     1       1.945   3.946  20.808  0.00  0.00    +0.000 A 
ATOM      3  C   UNL     1       2.862   2.936  20.546  0.00  0.00    +0.000 A 
ATOM      4  C   UNL     1       4.039   3.218  19.863  0.00  0.00    +0.000 A 
ATOM      5  C   UNL     1       4.309   4.523  19.419  0.00  0.00    +0.000 A 
ATOM      6  C   UNL     1       3.373   5.544  19.705  0.00  0.00    +0.000 A 
ENDROOT
BRANCH   5   7
ATOM      7  C   UNL     1       5.547   4.907  18.677  0.00  0.00    +0.000 C 
ATOM      8  O   UNL     1       6.627   4.397  18.966  0.00  0.00    +0.000 OA
ATOM      9  N   UNL     1       5.418   5.838  17.666  0.00  0.00    +0.000 N 
ATOM     10  H   UNL     1       4.490   6.201  17.481  0.00  0.00    +0.000 HD
BRANCH   9  11
ATOM     11  C   UNL     1       6.546   6.245  16.867  0.00  0.00    +0.000 C 
BRANCH  11  12
ATOM     12  C   UNL     1       7.334   5.067  16.295  0.00  0.00    +0.000 C 
BRANCH  12  13
ATOM     13  C   UNL     1       6.797   4.655  14.946  0.00  0.00    +0.000 A 
ATOM     14  C   UNL     1       5.551   4.019  14.838  0.00  0.00    +0.000 A 
ATOM     15  C   UNL     1       5.095   3.569  13.598  0.00  0.00    +0.000 A 
ATOM     16  C   UNL     1       5.881   3.759  12.468  0.00  0.00    +0.000 A 
ATOM     17  F   UNL     1       5.448   3.313  11.281  0.00  0.00    +0.000 F 
ATOM     18  C   UNL     1       7.112   4.397  12.552  0.00  0.00    +0.000 A 
ATOM     19  C   UNL     1       7.573   4.842  13.791  0.00  0.00    +0.000 A 
ENDBRANCH  12  13
ENDBRANCH  11  12
ENDBRANCH   9  11
ENDBRANCH   5   7
BRANCH   4  20
ATOM     20  O   UNL     1       4.920   2.188  19.643  0.00  0.00    +0.000 OA
ATOM     21  H   UNL     1       4.550   1.611  18.951  0.00  0.00    +0.000 HD
ENDBRANCH   4  20
BRANCH   1  22
ATOM     22  C   UNL     1       1.254   6.409  20.822  0.00  0.00    +0.000 C 
BRANCH  22  23
ATOM     23  C   UNL     1       1.840   7.781  20.449  0.00  0.00    +0.000 C 
BRANCH  23  28
ATOM     24  C   UNL     1      -0.394  10.318  22.150  0.00  0.00    +0.000 A 
ATOM     25  C   UNL     1      -0.851  11.072  21.078  0.00  0.00    +0.000 A 
ATOM     26  C   UNL     1      -0.413  10.803  19.780  0.00  0.00    +0.000 A 
ATOM     27  C   UNL     1       0.477   9.754  19.525  0.00  0.00    +0.000 A 
ATOM     28  C   UNL     1       0.981   9.011  20.608  0.00  0.00    +0.000 A 
ATOM     29  C   UNL     1       0.530   9.304  21.913  0.00  0.00    +0.000 A 
BRANCH  24  31
ATOM     30  C   UNL     1      -1.847  11.734  23.381  0.00  0.00    +0.000 C 
ATOM     31  O   UNL     1      -0.936  10.642  23.361  0.00  0.00    +0.000 OA
ENDBRANCH  24  31
BRANCH  27  32
ATOM     32  O   UNL     1       0.873   9.400  18.260  0.00  0.00    +0.000 OA
ATOM     33  C   UNL     1       2.057  10.039  17.782  0.00  0.00    +0.000 C 
ENDBRANCH  27  32
ENDBRANCH  23  28
ENDBRANCH  22  23
ENDBRANCH   1  22
TORSDOF 10
ENDMDL
MODEL 5
REMARK VINA RESULT:      -7.6      4.537      8.518
REMARK  Name = 
REMARK  12 active torsions:
REMARK  status: ('A' for Active; 'I' for Inactive)
REMARK    1  A    between atoms: C_1  and  O_2
REMARK    2  A    between atoms: O_2  and  C_3
REMARK    3  A    between atoms: C_6  and  O_7
REMARK    4  A    between atoms: O_7  and  C_8
REMARK    5  A    between atoms: C_9  and  C_10
REMARK    6  A    between atoms: C_10  and  C_11
REMARK    7  A    between atoms: C_11  and  C_12
REMARK    8  A    between atoms: C_15  and  O_16
REMARK    9  A    between atoms: C_17  and  C_18
REMARK   10  A    between atoms: N_20  and  C_21
REMARK   11  A    between atoms: C_21  and  C_22
REMARK   12  A    between atoms: C_22  and  C_23
REMARK                            x       y       z     vdW  Elec       q    Type
REMARK                         _______ _______ _______ _____ _____    ______ ____
ROOT
ATOM      1  C   UNL     1       2.584   4.505  18.594  0.00  0.00    +0.000 A 
ATOM      2  C   UNL     1       2.445   4.282  19.978  0.00  0.00    +0.000 A 
ATOM      3  C   UNL     1       2.142   5.325  20.846  0.00  0.00    +0.000 A 
ATOM      4  C   UNL     1       2.016   6.623  20.364  0.00  0.00    +0.000 A 
ATOM      5  C   UNL     1       2.205   6.896  18.999  0.00  0.00    +0.000 A 
ATOM      6  C   UNL     1       2.498   5.824  18.126  0.00  0.00    +0.000 A 
ENDROOT
BRANCH   5   7
ATOM      7  C   UNL     1       2.090   8.261  18.404  0.00  0.00    +0.000 C 
ATOM      8  O   UNL     1       2.768   8.572  17.428  0.00  0.00    +0.000 OA
ATOM      9  N   UNL     1       1.195   9.135  18.989  0.00  0.00    +0.000 N 
ATOM     10  H   UNL     1       0.663   8.797  19.782  0.00  0.00    +0.000 HD
BRANCH   9  11
ATOM     11  C   UNL     1       0.983  10.461  18.465  0.00  0.00    +0.000 C 
BRANCH  11  12
ATOM     12  C   UNL     1      -0.039  11.267  19.266  0.00  0.00    +0.000 C 
BRANCH  12  13
ATOM     13  C   UNL     1      -1.412  11.179  18.647  0.00  0.00    +0.000 A 
ATOM     14  C   UNL     1      -2.463  11.974  19.127  0.00  0.00    +0.000 A 
ATOM     15  C   UNL     1      -3.750  11.832  18.604  0.00  0.00    +0.000 A 
ATOM     16  C   UNL     1      -3.983  10.900  17.599  0.00  0.00    +0.000 A 
ATOM     17  F   UNL     1      -5.221  10.754  17.109  0.00  0.00    +0.000 F 
ATOM     18  C   UNL     1      -2.953  10.112  17.102  0.00  0.00    +0.000 A 
ATOM     19  C   UNL     1      -1.667  10.247  17.627  0.00  0.00    +0.000 A 
ENDBRANCH  12  13
ENDBRANCH  11  12
ENDBRANCH   9  11
ENDBRANCH   5   7
BRANCH   4  20
ATOM     20  O   UNL     1       1.701   7.615  21.258  0.00  0.00    +0.000 OA
ATOM     21  H   UNL     1       2.267   8.386  21.074  0.00  0.00    +0.000 HD
ENDBRANCH   4  20
BRANCH   1  22
ATOM     22  C   UNL     1       2.799   3.345  17.625  0.00  0.00    +0.000 C 
BRANCH  22  23
ATOM     23  C   UNL     1       3.480   3.820  16.331  0.00  0.00    +0.000 C 
BRANCH  23  28
ATOM     24  C   UNL     1       6.921   4.584  17.704  0.00  0.00    +0.000 A 
ATOM     25  C   UNL     1       7.663   4.779  16.547  0.00  0.00    +0.000 A 
ATOM     26  C   UNL     1       7.075   4.625  15.291  0.00  0.00    +0.000 A 
ATOM     27  C   UNL     1       5.720   4.296  15.166  0.00  0.00    +0.000 A 
ATOM     28  C   UNL     1       4.970   4.054  16.331  0.00  0.00    +0.000 A 
ATOM     29  C   UNL     1       5.586   4.208  17.592  0.00  0.00    +0.000 A 
BRANCH  24  31
ATOM     30  C   UNL     1       7.988   6.159  19.123  0.00  0.00    +0.000 C 
ATOM     31  O   UNL     1       7.594   4.816  18.871  0.00  0.00    +0.000 OA
ENDBRANCH  24  31
BRANCH  27  32
ATOM     32  O   UNL     1       5.078   4.214  13.957  0.00  0.00    +0.000 OA
ATOM     33  C   UNL     1       5.827   3.610  12.900  0.00  0.00    +0.000 C 
ENDBRANCH  27  32
ENDBRANCH  23  28
ENDBRANCH  22  23
ENDBRANCH   1  22
TORSDOF 10
ENDMDL
MODEL 6
REMARK VINA RESULT:      -7.5      2.488      4.189
REMARK  Name = 
REMARK  12 active torsions:
REMARK  status: ('A' for Active; 'I' for Inactive)
REMARK    1  A    between atoms: C_1  and  O_2
REMARK    2  A    between atoms: O_2  and  C_3
REMARK    3  A    between atoms: C_6  and  O_7
REMARK    4  A    between atoms: O_7  and  C_8
REMARK    5  A    between atoms: C_9  and  C_10
REMARK    6  A    between atoms: C_10  and  C_11
REMARK    7  A    between atoms: C_11  and  C_12
REMARK    8  A    between atoms: C_15  and  O_16
REMARK    9  A    between atoms: C_17  and  C_18
REMARK   10  A    between atoms: N_20  and  C_21
REMARK   11  A    between atoms: C_21  and  C_22
REMARK   12  A    between atoms: C_22  and  C_23
REMARK                            x       y       z     vdW  Elec       q    Type
REMARK                         _______ _______ _______ _____ _____    ______ ____
ROOT
ATOM      1  C   UNL     1       2.834   7.109  17.786  0.00  0.00    +0.000 A 
ATOM      2  C   UNL     1       2.467   5.761  17.971  0.00  0.00    +0.000 A 
ATOM      3  C   UNL     1       3.426   4.758  18.031  0.00  0.00    +0.000 A 
ATOM      4  C   UNL     1       4.772   5.064  17.864  0.00  0.00    +0.000 A 
ATOM      5  C   UNL     1       5.175   6.387  17.619  0.00  0.00    +0.000 A 
ATOM      6  C   UNL     1       4.189   7.400  17.574  0.00  0.00    +0.000 A 
ENDROOT
BRANCH   5   7
ATOM      7  C   UNL     1       6.598   6.798  17.426  0.00  0.00    +0.000 C 
ATOM      8  O   UNL     1       7.424   5.994  17.002  0.00  0.00    +0.000 OA
ATOM      9  N   UNL     1       6.929   8.103  17.733  0.00  0.00    +0.000 N 
ATOM     10  H   UNL     1       6.186   8.708  18.063  0.00  0.00    +0.000 HD
BRANCH   9  11
ATOM     11  C   UNL     1       8.266   8.606  17.544  0.00  0.00    +0.000 C 
BRANCH  11  12
ATOM     12  C   UNL     1       8.790   9.387  18.748  0.00  0.00    +0.000 C 
BRANCH  12  13
ATOM     13  C   UNL     1       9.317  10.739  18.335  0.00  0.00    +0.000 A 
ATOM     14  C   UNL     1       8.440  11.744  17.899  0.00  0.00    +0.000 A 
ATOM     15  C   UNL     1       8.938  12.966  17.444  0.00  0.00    +0.000 A 
ATOM     16  C   UNL     1      10.311  13.184  17.429  0.00  0.00    +0.000 A 
ATOM     17  F   UNL     1      10.788  14.351  16.977  0.00  0.00    +0.000 F 
ATOM     18  C   UNL     1      11.195  12.206  17.868  0.00  0.00    +0.000 A 
ATOM     19  C   UNL     1      10.700  10.982  18.317  0.00  0.00    +0.000 A 
ENDBRANCH  12  13
ENDBRANCH  11  12
ENDBRANCH   9  11
ENDBRANCH   5   7
BRANCH   4  20
ATOM     20  O   UNL     1       5.682   4.040  17.948  0.00  0.00    +0.000 OA
ATOM     21  H   UNL     1       6.533   4.356  17.597  0.00  0.00    +0.000 HD
ENDBRANCH   4  20
BRANCH   1  22
ATOM     22  C   UNL     1       1.794   8.225  17.837  0.00  0.00    +0.000 C 
BRANCH  22  23
ATOM     23  C   UNL     1       1.601   8.740  19.273  0.00  0.00    +0.000 C 
BRANCH  23  28
ATOM     24  C   UNL     1      -1.216  11.161  18.554  0.00  0.00    +0.000 A 
ATOM     25  C   UNL     1      -1.349  11.826  19.765  0.00  0.00    +0.000 A 
ATOM     26  C   UNL     1      -0.556  11.477  20.859  0.00  0.00    +0.000 A 
ATOM     27  C   UNL     1       0.408  10.466  20.755  0.00  0.00    +0.000 A 
ATOM     28  C   UNL     1       0.520   9.756  19.546  0.00  0.00    +0.000 A 
ATOM     29  C   UNL     1      -0.297  10.121  18.455  0.00  0.00    +0.000 A 
BRANCH  24  31
ATOM     30  C   UNL     1      -2.463  10.673  16.594  0.00  0.00    +0.000 C 
ATOM     31  O   UNL     1      -2.010  11.629  17.544  0.00  0.00    +0.000 OA
ENDBRANCH  24  31
BRANCH  27  32
ATOM     32  O   UNL     1       1.265  10.143  21.776  0.00  0.00    +0.000 OA
ATOM     33  C   UNL     1       0.703   9.356  22.828  0.00  0.00    +0.000 C 
ENDBRANCH  27  32
ENDBRANCH  23  28
ENDBRANCH  22  23
ENDBRANCH   1  22
TORSDOF 10
ENDMDL
MODEL 7
REMARK VINA RESULT:      -7.5      2.411      4.152
REMARK  Name = 
REMARK  12 active torsions:
REMARK  status: ('A' for Active; 'I' for Inactive)
REMARK    1  A    between atoms: C_1  and  O_2
REMARK    2  A    between atoms: O_2  and  C_3
REMARK    3  A    between atoms: C_6  and  O_7
REMARK    4  A    between atoms: O_7  and  C_8
REMARK    5  A    between atoms: C_9  and  C_10
REMARK    6  A    between atoms: C_10  and  C_11
REMARK    7  A    between atoms: C_11  and  C_12
REMARK    8  A    between atoms: C_15  and  O_16
REMARK    9  A    between atoms: C_17  and  C_18
REMARK   10  A    between atoms: N_20  and  C_21
REMARK   11  A    between atoms: C_21  and  C_22
REMARK   12  A    between atoms: C_22  and  C_23
REMARK                            x       y       z     vdW  Elec       q    Type
REMARK                         _______ _______ _______ _____ _____    ______ ____
ROOT
ATOM      1  C   UNL     1       2.857   7.102  17.764  0.00  0.00    +0.000 A 
ATOM      2  C   UNL     1       2.583   5.735  17.970  0.00  0.00    +0.000 A 
ATOM      3  C   UNL     1       3.607   4.796  18.006  0.00  0.00    +0.000 A 
ATOM      4  C   UNL     1       4.924   5.187  17.792  0.00  0.00    +0.000 A 
ATOM      5  C   UNL     1       5.232   6.531  17.524  0.00  0.00    +0.000 A 
ATOM      6  C   UNL     1       4.182   7.478  17.505  0.00  0.00    +0.000 A 
ENDROOT
BRANCH   5   7
ATOM      7  C   UNL     1       6.618   7.031  17.280  0.00  0.00    +0.000 C 
ATOM      8  O   UNL     1       7.412   6.364  16.622  0.00  0.00    +0.000 OA
ATOM      9  N   UNL     1       6.953   8.259  17.814  0.00  0.00    +0.000 N 
ATOM     10  H   UNL     1       6.237   8.754  18.333  0.00  0.00    +0.000 HD
BRANCH   9  11
ATOM     11  C   UNL     1       8.252   8.846  17.602  0.00  0.00    +0.000 C 
BRANCH  11  12
ATOM     12  C   UNL     1       8.945   9.258  18.901  0.00  0.00    +0.000 C 
BRANCH  12  13
ATOM     13  C   UNL     1       9.398  10.696  18.846  0.00  0.00    +0.000 A 
ATOM     14  C   UNL     1      10.282  11.203  19.810  0.00  0.00    +0.000 A 
ATOM     15  C   UNL     1      10.637  12.553  19.801  0.00  0.00    +0.000 A 
ATOM     16  C   UNL     1      10.112  13.393  18.827  0.00  0.00    +0.000 A 
ATOM     17  F   UNL     1      10.442  14.691  18.829  0.00  0.00    +0.000 F 
ATOM     18  C   UNL     1       9.245  12.908  17.855  0.00  0.00    +0.000 A 
ATOM     19  C   UNL     1       8.884  11.560  17.866  0.00  0.00    +0.000 A 
ENDBRANCH  12  13
ENDBRANCH  11  12
ENDBRANCH   9  11
ENDBRANCH   5   7
BRANCH   4  20
ATOM     20  O   UNL     1       5.901   4.225  17.852  0.00  0.00    +0.000 OA
ATOM     21  H   UNL     1       6.284   4.120  16.963  0.00  0.00    +0.000 HD
ENDBRANCH   4  20
BRANCH   1  22
ATOM     22  C   UNL     1       1.748   8.149  17.842  0.00  0.00    +0.000 C 
BRANCH  22  23
ATOM     23  C   UNL     1       1.604   8.701  19.270  0.00  0.00    +0.000 C 
BRANCH  23  28
ATOM     24  C   UNL     1      -1.044  11.305  18.549  0.00  0.00    +0.000 A 
ATOM     25  C   UNL     1      -1.225  11.893  19.794  0.00  0.00    +0.000 A 
ATOM     26  C   UNL     1      -0.523  11.430  20.908  0.00  0.00    +0.000 A 
ATOM     27  C   UNL     1       0.397  10.381  20.794  0.00  0.00    +0.000 A 
ATOM     28  C   UNL     1       0.556   9.750  19.547  0.00  0.00    +0.000 A 
ATOM     29  C   UNL     1      -0.169  10.229  18.435  0.00  0.00    +0.000 A 
BRANCH  24  31
ATOM     30  C   UNL     1      -2.555  11.015  16.743  0.00  0.00    +0.000 C 
ATOM     31  O   UNL     1      -1.746  11.881  17.528  0.00  0.00    +0.000 OA
ENDBRANCH  24  31
BRANCH  27  32
ATOM     32  O   UNL     1       1.169   9.946  21.841  0.00  0.00    +0.000 OA
ATOM     33  C   UNL     1       0.452   9.421  22.960  0.00  0.00    +0.000 C 
ENDBRANCH  27  32
ENDBRANCH  23  28
ENDBRANCH  22  23
ENDBRANCH   1  22
TORSDOF 10
ENDMDL
MODEL 8
REMARK VINA RESULT:      -7.5      5.762      9.758
REMARK  Name = 
REMARK  12 active torsions:
REMARK  status: ('A' for Active; 'I' for Inactive)
REMARK    1  A    between atoms: C_1  and  O_2
REMARK    2  A    between atoms: O_2  and  C_3
REMARK    3  A    between atoms: C_6  and  O_7
REMARK    4  A    between atoms: O_7  and  C_8
REMARK    5  A    between atoms: C_9  and  C_10
REMARK    6  A    between atoms: C_10  and  C_11
REMARK    7  A    between atoms: C_11  and  C_12
REMARK    8  A    between atoms: C_15  and  O_16
REMARK    9  A    between atoms: C_17  and  C_18
REMARK   10  A    between atoms: N_20  and  C_21
REMARK   11  A    between atoms: C_21  and  C_22
REMARK   12  A    between atoms: C_22  and  C_23
REMARK                            x       y       z     vdW  Elec       q    Type
REMARK                         _______ _______ _______ _____ _____    ______ ____
ROOT
ATOM      1  C   UNL     1       2.145   7.352  19.389  0.00  0.00    +0.000 A 
ATOM      2  C   UNL     1       2.174   7.940  18.109  0.00  0.00    +0.000 A 
ATOM      3  C   UNL     1       1.704   9.231  17.902  0.00  0.00    +0.000 A 
ATOM      4  C   UNL     1       1.150   9.952  18.953  0.00  0.00    +0.000 A 
ATOM      5  C   UNL     1       1.048   9.380  20.232  0.00  0.00    +0.000 A 
ATOM      6  C   UNL     1       1.544   8.071  20.432  0.00  0.00    +0.000 A 
ENDROOT
BRANCH   5   7
ATOM      7  C   UNL     1       0.464  10.086  21.411  0.00  0.00    +0.000 C 
ATOM      8  O   UNL     1       0.984   9.979  22.519  0.00  0.00    +0.000 OA
ATOM      9  N   UNL     1      -0.661  10.857  21.197  0.00  0.00    +0.000 N 
ATOM     10  H   UNL     1      -1.021  10.904  20.251  0.00  0.00    +0.000 HD
BRANCH   9  11
ATOM     11  C   UNL     1      -1.276  11.608  22.262  0.00  0.00    +0.000 C 
BRANCH  11  12
ATOM     12  C   UNL     1      -2.150  12.757  21.761  0.00  0.00    +0.000 C 
BRANCH  12  13
ATOM     13  C   UNL     1      -3.435  12.848  22.546  0.00  0.00    +0.000 A 
ATOM     14  C   UNL     1      -3.475  12.466  23.895  0.00  0.00    +0.000 A 
ATOM     15  C   UNL     1      -4.683  12.478  24.596  0.00  0.00    +0.000 A 
ATOM     16  C   UNL     1      -5.847  12.876  23.949  0.00  0.00    +0.000 A 
ATOM     17  F   UNL     1      -7.007  12.872  24.618  0.00  0.00    +0.000 F 
ATOM     18  C   UNL     1      -5.826  13.269  22.617  0.00  0.00    +0.000 A 
ATOM     19  C   UNL     1      -4.622  13.253  21.913  0.00  0.00    +0.000 A 
ENDBRANCH  12  13
ENDBRANCH  11  12
ENDBRANCH   9  11
ENDBRANCH   5   7
BRANCH   4  20
ATOM     20  O   UNL     1       0.713  11.229  18.701  0.00  0.00    +0.000 OA
ATOM     21  H   UNL     1      -0.254  11.207  18.593  0.00  0.00    +0.000 HD
ENDBRANCH   4  20
BRANCH   1  22
ATOM     22  C   UNL     1       2.767   5.981  19.643  0.00  0.00    +0.000 C 
BRANCH  22  23
ATOM     23  C   UNL     1       3.074   5.257  18.322  0.00  0.00    +0.000 C 
BRANCH  23  28
ATOM     24  C   UNL     1       6.035   5.454  15.976  0.00  0.00    +0.000 A 
ATOM     25  C   UNL     1       7.026   4.802  16.697  0.00  0.00    +0.000 A 
ATOM     26  C   UNL     1       6.769   4.318  17.981  0.00  0.00    +0.000 A 
ATOM     27  C   UNL     1       5.504   4.457  18.563  0.00  0.00    +0.000 A 
ATOM     28  C   UNL     1       4.506   5.155  17.859  0.00  0.00    +0.000 A 
ATOM     29  C   UNL     1       4.788   5.642  16.565  0.00  0.00    +0.000 A 
BRANCH  24  31
ATOM     30  C   UNL     1       7.129   4.888  13.947  0.00  0.00    +0.000 C 
ATOM     31  O   UNL     1       6.391   5.833  14.713  0.00  0.00    +0.000 OA
ENDBRANCH  24  31
BRANCH  27  32
ATOM     32  O   UNL     1       5.181   3.928  19.786  0.00  0.00    +0.000 OA
ATOM     33  C   UNL     1       4.580   2.632  19.759  0.00  0.00    +0.000 C 
ENDBRANCH  27  32
ENDBRANCH  23  28
ENDBRANCH  22  23
ENDBRANCH   1  22
TORSDOF 10
ENDMDL
MODEL 9
REMARK VINA RESULT:      -7.5      4.618      8.146
REMARK  Name = 
REMARK  12 active torsions:
REMARK  status: ('A' for Active; 'I' for Inactive)
REMARK    1  A    between atoms: C_1  and  O_2
REMARK    2  A    between atoms: O_2  and  C_3
REMARK    3  A    between atoms: C_6  and  O_7
REMARK    4  A    between atoms: O_7  and  C_8
REMARK    5  A    between atoms: C_9  and  C_10
REMARK    6  A    between atoms: C_10  and  C_11
REMARK    7  A    between atoms: C_11  and  C_12
REMARK    8  A    between atoms: C_15  and  O_16
REMARK    9  A    between atoms: C_17  and  C_18
REMARK   10  A    between atoms: N_20  and  C_21
REMARK   11  A    between atoms: C_21  and  C_22
REMARK   12  A    between atoms: C_22  and  C_23
REMARK                            x       y       z     vdW  Elec       q    Type
REMARK                         _______ _______ _______ _____ _____    ______ ____
ROOT
ATOM      1  C   UNL     1       0.720   9.780  19.803  0.00  0.00    +0.000 A 
ATOM      2  C   UNL     1       1.228  10.283  18.589  0.00  0.00    +0.000 A 
ATOM      3  C   UNL     1       2.070   9.518  17.791  0.00  0.00    +0.000 A 
ATOM      4  C   UNL     1       2.464   8.250  18.204  0.00  0.00    +0.000 A 
ATOM      5  C   UNL     1       2.028   7.736  19.436  0.00  0.00    +0.000 A 
ATOM      6  C   UNL     1       1.160   8.520  20.230  0.00  0.00    +0.000 A 
ENDROOT
BRANCH   5   7
ATOM      7  C   UNL     1       2.408   6.386  19.951  0.00  0.00    +0.000 C 
ATOM      8  O   UNL     1       1.622   5.741  20.640  0.00  0.00    +0.000 OA
ATOM      9  N   UNL     1       3.659   5.908  19.615  0.00  0.00    +0.000 N 
ATOM     10  H   UNL     1       4.242   6.496  19.032  0.00  0.00    +0.000 HD
BRANCH   9  11
ATOM     11  C   UNL     1       4.104   4.602  20.031  0.00  0.00    +0.000 C 
BRANCH  11  12
ATOM     12  C   UNL     1       4.145   3.589  18.888  0.00  0.00    +0.000 C 
BRANCH  12  13
ATOM     13  C   UNL     1       5.026   4.070  17.762  0.00  0.00    +0.000 A 
ATOM     14  C   UNL     1       4.531   4.148  16.452  0.00  0.00    +0.000 A 
ATOM     15  C   UNL     1       5.372   4.518  15.401  0.00  0.00    +0.000 A 
ATOM     16  C   UNL     1       6.705   4.815  15.662  0.00  0.00    +0.000 A 
ATOM     17  F   UNL     1       7.514   5.155  14.650  0.00  0.00    +0.000 F 
ATOM     18  C   UNL     1       7.211   4.755  16.954  0.00  0.00    +0.000 A 
ATOM     19  C   UNL     1       6.375   4.379  18.005  0.00  0.00    +0.000 A 
ENDBRANCH  12  13
ENDBRANCH  11  12
ENDBRANCH   9  11
ENDBRANCH   5   7
BRANCH   4  20
ATOM     20  O   UNL     1       3.284   7.527  17.373  0.00  0.00    +0.000 OA
ATOM     21  H   UNL     1       3.096   6.581  17.504  0.00  0.00    +0.000 HD
ENDBRANCH   4  20
BRANCH   1  22
ATOM     22  C   UNL     1      -0.297  10.572  20.622  0.00  0.00    +0.000 C 
BRANCH  22  23
ATOM     23  C   UNL     1      -0.841  11.769  19.826  0.00  0.00    +0.000 C 
BRANCH  23  28
ATOM     24  C   UNL     1      -3.731  11.195  17.453  0.00  0.00    +0.000 A 
ATOM     25  C   UNL     1      -4.780  11.822  18.111  0.00  0.00    +0.000 A 
ATOM     26  C   UNL     1      -4.586  12.410  19.362  0.00  0.00    +0.000 A 
ATOM     27  C   UNL     1      -3.326  12.404  19.972  0.00  0.00    +0.000 A 
ATOM     28  C   UNL     1      -2.266  11.735  19.334  0.00  0.00    +0.000 A 
ATOM     29  C   UNL     1      -2.486  11.140  18.073  0.00  0.00    +0.000 A 
BRANCH  24  31
ATOM     30  C   UNL     1      -2.977  10.687  15.261  0.00  0.00    +0.000 C 
ATOM     31  O   UNL     1      -4.032  10.705  16.214  0.00  0.00    +0.000 OA
ENDBRANCH  24  31
BRANCH  27  32
ATOM     32  O   UNL     1      -3.067  13.038  21.160  0.00  0.00    +0.000 OA
ATOM     33  C   UNL     1      -3.489  14.401  21.237  0.00  0.00    +0.000 C 
ENDBRANCH  27  32
ENDBRANCH  23  28
ENDBRANCH  22  23
ENDBRANCH   1  22
TORSDOF 10
ENDMDL
