MODEL 1
REMARK VINA RESULT:      -7.4      0.000      0.000
REMARK  Name = 
REMARK  10 active torsions:
REMARK  status: ('A' for Active; 'I' for Inactive)
REMARK    1  A    between atoms: C_1  and  O_2
REMARK    2  A    between atoms: O_2  and  C_3
REMARK    3  A    between atoms: C_5  and  C_6
REMARK    4  A    between atoms: N_10  and  C_11
REMARK    5  A    between atoms: N_17  and  C_18
REMARK    6  A    between atoms: C_18  and  C_19
REMARK    7  A    between atoms: C_19  and  O_21
REMARK    8  A    between atoms: C_25  and  O_26
REMARK    9  A    between atoms: O_26  and  C_27
REMARK   10  A    between atoms: C_28  and  O_29
REMARK                            x       y       z     vdW  Elec       q    Type
REMARK                         _______ _______ _______ _____ _____    ______ ____
ROOT
ATOM      1  C   UNL     1       0.920   6.461  21.021  0.00  0.00    +0.000 C 
ATOM      2  C   UNL     1       1.951   5.728  20.577  0.00  0.00    +0.000 C 
ATOM      3  S   UNL     1       3.370   6.323  19.822  0.00  0.00    +0.000 S 
ATOM      4  C   UNL     1       3.995   4.721  19.494  0.00  0.00    +0.000 C 
ATOM      5  N   UNL     1       5.084   4.407  18.872  0.00  0.00    +0.000 NA
ATOM      6  N   UNL     1       3.141   3.774  20.007  0.00  0.00    +0.000 N 
ATOM      7  C   UNL     1       2.038   4.248  20.679  0.00  0.00    +0.000 C 
ATOM      8  O   UNL     1       1.310   3.547  21.374  0.00  0.00    +0.000 OA
ENDROOT
BRANCH   1  11
ATOM      9  C   UNL     1       1.097   9.959  19.584  0.00  0.00    +0.000 A 
ATOM     10  C   UNL     1       1.193   8.563  19.718  0.00  0.00    +0.000 A 
ATOM     11  C   UNL     1       0.827   7.926  20.902  0.00  0.00    +0.000 A 
ATOM     12  C   UNL     1       0.394   8.706  21.975  0.00  0.00    +0.000 A 
ATOM     13  C   UNL     1       0.290  10.104  21.878  0.00  0.00    +0.000 A 
ATOM     14  C   UNL     1       0.627  10.731  20.666  0.00  0.00    +0.000 A 
BRANCH   9  16
ATOM     15  C   UNL     1       2.369   9.545  17.581  0.00  0.00    +0.000 C 
ATOM     16  O   UNL     1       1.517  10.383  18.348  0.00  0.00    +0.000 OA
ENDBRANCH   9  16
BRANCH  13  17
ATOM     17  O   UNL     1      -0.154  10.644  23.054  0.00  0.00    +0.000 OA
ATOM     18  C   UNL     1      -1.460  11.169  23.192  0.00  0.00    +0.000 C 
ENDBRANCH  13  17
BRANCH  14  19
ATOM     19  O   UNL     1       0.497  12.081  20.498  0.00  0.00    +0.000 OA
ATOM     20  H   UNL     1       1.335  12.417  20.152  0.00  0.00    +0.000 HD
ENDBRANCH  14  19
ENDBRANCH   1  11
BRANCH   5  21
ATOM     21  C   UNL     1       5.966   5.385  18.378  0.00  0.00    +0.000 A 
ATOM     22  C   UNL     1       7.135   5.660  19.094  0.00  0.00    +0.000 A 
ATOM     23  C   UNL     1       8.028   6.643  18.653  0.00  0.00    +0.000 A 
ATOM     24  C   UNL     1       7.750   7.373  17.499  0.00  0.00    +0.000 A 
ATOM     25  C   UNL     1       6.608   7.085  16.758  0.00  0.00    +0.000 A 
ATOM     26  C   UNL     1       5.748   6.069  17.176  0.00  0.00    +0.000 A 
ENDBRANCH   5  21
BRANCH   6  27
ATOM     27  C   UNL     1       3.400   2.337  19.885  0.00  0.00    +0.000 C 
BRANCH  27  28
ATOM     28  C   UNL     1       3.179   1.790  18.479  0.00  0.00    +0.000 C 
ATOM     29  O   UNL     1       2.252   2.146  17.762  0.00  0.00    +0.000 OA
BRANCH  28  30
ATOM     30  O   UNL     1       3.980   0.755  18.124  0.00  0.00    +0.000 OA
ATOM     31  H   UNL     1       3.707  -0.111  18.501  0.00  0.00    +0.000 HD
ENDBRANCH  28  30
ENDBRANCH  27  28
ENDBRANCH   6  27
TORSDOF 8
ENDMDL
MODEL 2
REMARK VINA RESULT:      -7.4      2.646      5.014
REMARK  Name = 
REMARK  10 active torsions:
REMARK  status: ('A' for Active; 'I' for Inactive)
REMARK    1  A    between atoms: C_1  and  O_2
REMARK    2  A    between atoms: O_2  and  C_3
REMARK    3  A    between atoms: C_5  and  C_6
REMARK    4  A    between atoms: N_10  and  C_11
REMARK    5  A    between atoms: N_17  and  C_18
REMARK    6  A    between atoms: C_18  and  C_19
REMARK    7  A    between atoms: C_19  and  O_21
REMARK    8  A    between atoms: C_25  and  O_26
REMARK    9  A    between atoms: O_26  and  C_27
REMARK   10  A    between atoms: C_28  and  O_29
REMARK                            x       y       z     vdW  Elec       q    Type
REMARK                         _______ _______ _______ _____ _____    ______ ____
ROOT
ATOM      1  C   UNL     1       2.822   8.753  17.454  0.00  0.00    +0.000 C 
ATOM      2  C   UNL     1       3.223   7.479  17.571  0.00  0.00    +0.000 C 
ATOM      3  S   UNL     1       2.549   6.293  18.610  0.00  0.00    +0.000 S 
ATOM      4  C   UNL     1       3.751   5.091  18.191  0.00  0.00    +0.000 C 
ATOM      5  N   UNL     1       3.875   3.895  18.664  0.00  0.00    +0.000 NA
ATOM      6  N   UNL     1       4.604   5.598  17.239  0.00  0.00    +0.000 N 
ATOM      7  C   UNL     1       4.335   6.871  16.795  0.00  0.00    +0.000 C 
ATOM      8  O   UNL     1       4.858   7.374  15.806  0.00  0.00    +0.000 OA
ENDROOT
BRANCH   1  11
ATOM      9  C   UNL     1       0.852  10.156  20.368  0.00  0.00    +0.000 A 
ATOM     10  C   UNL     1       1.878   9.567  19.609  0.00  0.00    +0.000 A 
ATOM     11  C   UNL     1       1.732   9.358  18.239  0.00  0.00    +0.000 A 
ATOM     12  C   UNL     1       0.525   9.713  17.633  0.00  0.00    +0.000 A 
ATOM     13  C   UNL     1      -0.523  10.300  18.363  0.00  0.00    +0.000 A 
ATOM     14  C   UNL     1      -0.348  10.539  19.737  0.00  0.00    +0.000 A 
BRANCH   9  16
ATOM     15  C   UNL     1       0.872   9.195  22.577  0.00  0.00    +0.000 C 
ATOM     16  O   UNL     1       1.195  10.259  21.694  0.00  0.00    +0.000 OA
ENDBRANCH   9  16
BRANCH  13  17
ATOM     17  O   UNL     1      -1.597  10.556  17.555  0.00  0.00    +0.000 OA
ATOM     18  C   UNL     1      -2.753   9.742  17.564  0.00  0.00    +0.000 C 
ENDBRANCH  13  17
BRANCH  14  19
ATOM     19  O   UNL     1      -1.313  11.153  20.485  0.00  0.00    +0.000 OA
ATOM     20  H   UNL     1      -2.123  11.179  19.957  0.00  0.00    +0.000 HD
ENDBRANCH  14  19
ENDBRANCH   1  11
BRANCH   5  21
ATOM     21  C   UNL     1       2.977   3.376  19.615  0.00  0.00    +0.000 A 
ATOM     22  C   UNL     1       1.656   3.130  19.231  0.00  0.00    +0.000 A 
ATOM     23  C   UNL     1       0.723   2.639  20.150  0.00  0.00    +0.000 A 
ATOM     24  C   UNL     1       1.101   2.405  21.471  0.00  0.00    +0.000 A 
ATOM     25  C   UNL     1       2.421   2.612  21.859  0.00  0.00    +0.000 A 
ATOM     26  C   UNL     1       3.357   3.053  20.924  0.00  0.00    +0.000 A 
ENDBRANCH   5  21
BRANCH   6  27
ATOM     27  C   UNL     1       5.718   4.819  16.691  0.00  0.00    +0.000 C 
BRANCH  27  28
ATOM     28  C   UNL     1       7.081   5.231  17.237  0.00  0.00    +0.000 C 
ATOM     29  O   UNL     1       7.582   4.725  18.232  0.00  0.00    +0.000 OA
BRANCH  28  30
ATOM     30  O   UNL     1       7.641   6.316  16.646  0.00  0.00    +0.000 OA
ATOM     31  H   UNL     1       8.605   6.229  16.477  0.00  0.00    +0.000 HD
ENDBRANCH  28  30
ENDBRANCH  27  28
ENDBRANCH   6  27
TORSDOF 8
ENDMDL
MODEL 3
REMARK VINA RESULT:      -7.2      0.121      2.418
REMARK  Name = 
REMARK  10 active torsions:
REMARK  status: ('A' for Active; 'I' for Inactive)
REMARK    1  A    between atoms: C_1  and  O_2
REMARK    2  A    between atoms: O_2  and  C_3
REMARK    3  A    between atoms: C_5  and  C_6
REMARK    4  A    between atoms: N_10  and  C_11
REMARK    5  A    between atoms: N_17  and  C_18
REMARK    6  A    between atoms: C_18  and  C_19
REMARK    7  A    between atoms: C_19  and  O_21
REMARK    8  A    between atoms: C_25  and  O_26
REMARK    9  A    between atoms: O_26  and  C_27
REMARK   10  A    between atoms: C_28  and  O_29
REMARK                            x       y       z     vdW  Elec       q    Type
REMARK                         _______ _______ _______ _____ _____    ______ ____
ROOT
ATOM      1  C   UNL     1       0.919   6.461  21.040  0.00  0.00    +0.000 C 
ATOM      2  C   UNL     1       1.961   5.742  20.600  0.00  0.00    +0.000 C 
ATOM      3  S   UNL     1       3.376   6.356  19.850  0.00  0.00    +0.000 S 
ATOM      4  C   UNL     1       4.023   4.761  19.526  0.00  0.00    +0.000 C 
ATOM      5  N   UNL     1       5.118   4.461  18.909  0.00  0.00    +0.000 NA
ATOM      6  N   UNL     1       3.179   3.804  20.036  0.00  0.00    +0.000 N 
ATOM      7  C   UNL     1       2.067   4.263  20.703  0.00  0.00    +0.000 C 
ATOM      8  O   UNL     1       1.345   3.553  21.396  0.00  0.00    +0.000 OA
ENDROOT
BRANCH   1  11
ATOM      9  C   UNL     1       0.317  10.096  21.914  0.00  0.00    +0.000 A 
ATOM     10  C   UNL     1       0.415   8.697  22.010  0.00  0.00    +0.000 A 
ATOM     11  C   UNL     1       0.808   7.925  20.919  0.00  0.00    +0.000 A 
ATOM     12  C   UNL     1       1.071   8.566  19.707  0.00  0.00    +0.000 A 
ATOM     13  C   UNL     1       0.979   9.962  19.574  0.00  0.00    +0.000 A 
ATOM     14  C   UNL     1       0.617  10.732  20.693  0.00  0.00    +0.000 A 
BRANCH   9  16
ATOM     15  C   UNL     1      -1.425  11.150  23.201  0.00  0.00    +0.000 C 
ATOM     16  O   UNL     1      -0.097  10.660  23.095  0.00  0.00    +0.000 OA
ENDBRANCH   9  16
BRANCH  13  17
ATOM     17  O   UNL     1       1.282  10.352  18.299  0.00  0.00    +0.000 OA
ATOM     18  C   UNL     1       2.490   9.975  17.667  0.00  0.00    +0.000 C 
ENDBRANCH  13  17
BRANCH  14  19
ATOM     19  O   UNL     1       0.562  12.096  20.635  0.00  0.00    +0.000 OA
ATOM     20  H   UNL     1       1.113  12.443  21.351  0.00  0.00    +0.000 HD
ENDBRANCH  14  19
ENDBRANCH   1  11
BRANCH   5  21
ATOM     21  C   UNL     1       5.989   5.451  18.419  0.00  0.00    +0.000 A 
ATOM     22  C   UNL     1       7.188   5.689  19.098  0.00  0.00    +0.000 A 
ATOM     23  C   UNL     1       8.072   6.681  18.660  0.00  0.00    +0.000 A 
ATOM     24  C   UNL     1       7.757   7.456  17.546  0.00  0.00    +0.000 A 
ATOM     25  C   UNL     1       6.584   7.206  16.840  0.00  0.00    +0.000 A 
ATOM     26  C   UNL     1       5.732   6.181  17.252  0.00  0.00    +0.000 A 
ENDBRANCH   5  21
BRANCH   6  27
ATOM     27  C   UNL     1       3.457   2.370  19.916  0.00  0.00    +0.000 C 
BRANCH  27  28
ATOM     28  C   UNL     1       3.202   1.809  18.521  0.00  0.00    +0.000 C 
ATOM     29  O   UNL     1       2.266   2.169  17.819  0.00  0.00    +0.000 OA
BRANCH  28  30
ATOM     30  O   UNL     1       3.982   0.759  18.164  0.00  0.00    +0.000 OA
ATOM     31  H   UNL     1       4.368   0.834  17.263  0.00  0.00    +0.000 HD
ENDBRANCH  28  30
ENDBRANCH  27  28
ENDBRANCH   6  27
TORSDOF 8
ENDMDL
MODEL 4
REMARK VINA RESULT:      -7.2      0.572      2.603
REMARK  Name = 
REMARK  10 active torsions:
REMARK  status: ('A' for Active; 'I' for Inactive)
REMARK    1  A    between atoms: C_1  and  O_2
REMARK    2  A    between atoms: O_2  and  C_3
REMARK    3  A    between atoms: C_5  and  C_6
REMARK    4  A    between atoms: N_10  and  C_11
REMARK    5  A    between atoms: N_17  and  C_18
REMARK    6  A    between atoms: C_18  and  C_19
REMARK    7  A    between atoms: C_19  and  O_21
REMARK    8  A    between atoms: C_25  and  O_26
REMARK    9  A    between atoms: O_26  and  C_27
REMARK   10  A    between atoms: C_28  and  O_29
REMARK                            x       y       z     vdW  Elec       q    Type
REMARK                         _______ _______ _______ _____ _____    ______ ____
ROOT
ATOM      1  C   UNL     1       0.817   6.632  20.910  0.00  0.00    +0.000 C 
ATOM      2  C   UNL     1       1.851   5.886  20.495  0.00  0.00    +0.000 C 
ATOM      3  S   UNL     1       3.323   6.467  19.834  0.00  0.00    +0.000 S 
ATOM      4  C   UNL     1       3.923   4.860  19.485  0.00  0.00    +0.000 C 
ATOM      5  N   UNL     1       5.034   4.536  18.910  0.00  0.00    +0.000 NA
ATOM      6  N   UNL     1       3.019   3.920  19.920  0.00  0.00    +0.000 N 
ATOM      7  C   UNL     1       1.895   4.402  20.550  0.00  0.00    +0.000 C 
ATOM      8  O   UNL     1       1.113   3.699  21.183  0.00  0.00    +0.000 OA
ENDROOT
BRANCH   1  11
ATOM      9  C   UNL     1       0.317  10.257  21.884  0.00  0.00    +0.000 A 
ATOM     10  C   UNL     1       0.356   8.852  21.935  0.00  0.00    +0.000 A 
ATOM     11  C   UNL     1       0.768   8.102  20.836  0.00  0.00    +0.000 A 
ATOM     12  C   UNL     1       1.112   8.772  19.660  0.00  0.00    +0.000 A 
ATOM     13  C   UNL     1       1.081  10.175  19.572  0.00  0.00    +0.000 A 
ATOM     14  C   UNL     1       0.698  10.920  20.701  0.00  0.00    +0.000 A 
BRANCH   9  16
ATOM     15  C   UNL     1      -1.475  11.236  23.161  0.00  0.00    +0.000 C 
ATOM     16  O   UNL     1      -0.129  10.797  23.065  0.00  0.00    +0.000 OA
ENDBRANCH   9  16
BRANCH  13  17
ATOM     17  O   UNL     1       1.457  10.594  18.327  0.00  0.00    +0.000 OA
ATOM     18  C   UNL     1       2.379  11.650  18.138  0.00  0.00    +0.000 C 
ENDBRANCH  13  17
BRANCH  14  19
ATOM     19  O   UNL     1       0.699  12.287  20.689  0.00  0.00    +0.000 OA
ATOM     20  H   UNL     1       0.341  12.574  19.837  0.00  0.00    +0.000 HD
ENDBRANCH  14  19
ENDBRANCH   1  11
BRANCH   5  21
ATOM     21  C   UNL     1       5.965   5.506  18.496  0.00  0.00    +0.000 A 
ATOM     22  C   UNL     1       5.663   6.299  17.385  0.00  0.00    +0.000 A 
ATOM     23  C   UNL     1       6.571   7.258  16.923  0.00  0.00    +0.000 A 
ATOM     24  C   UNL     1       7.799   7.422  17.560  0.00  0.00    +0.000 A 
ATOM     25  C   UNL     1       8.099   6.664  18.688  0.00  0.00    +0.000 A 
ATOM     26  C   UNL     1       7.168   5.746  19.173  0.00  0.00    +0.000 A 
ENDBRANCH   5  21
BRANCH   6  27
ATOM     27  C   UNL     1       3.247   2.481  19.763  0.00  0.00    +0.000 C 
BRANCH  27  28
ATOM     28  C   UNL     1       2.567   1.882  18.537  0.00  0.00    +0.000 C 
ATOM     29  O   UNL     1       3.107   1.814  17.441  0.00  0.00    +0.000 OA
BRANCH  28  30
ATOM     30  O   UNL     1       1.255   1.576  18.690  0.00  0.00    +0.000 OA
ATOM     31  H   UNL     1       0.652   2.093  18.111  0.00  0.00    +0.000 HD
ENDBRANCH  28  30
ENDBRANCH  27  28
ENDBRANCH   6  27
TORSDOF 8
ENDMDL
MODEL 5
REMARK VINA RESULT:      -7.2      2.668      4.768
REMARK  Name = 
REMARK  10 active torsions:
REMARK  status: ('A' for Active; 'I' for Inactive)
REMARK    1  A    between atoms: C_1  and  O_2
REMARK    2  A    between atoms: O_2  and  C_3
REMARK    3  A    between atoms: C_5  and  C_6
REMARK    4  A    between atoms: N_10  and  C_11
REMARK    5  A    between atoms: N_17  and  C_18
REMARK    6  A    between atoms: C_18  and  C_19
REMARK    7  A    between atoms: C_19  and  O_21
REMARK    8  A    between atoms: C_25  and  O_26
REMARK    9  A    between atoms: O_26  and  C_27
REMARK   10  A    between atoms: C_28  and  O_29
REMARK                            x       y       z     vdW  Elec       q    Type
REMARK                         _______ _______ _______ _____ _____    ______ ____
ROOT
ATOM      1  C   UNL     1       2.782   8.766  17.447  0.00  0.00    +0.000 C 
ATOM      2  C   UNL     1       3.187   7.494  17.566  0.00  0.00    +0.000 C 
ATOM      3  S   UNL     1       2.529   6.312  18.620  0.00  0.00    +0.000 S 
ATOM      4  C   UNL     1       3.727   5.110  18.191  0.00  0.00    +0.000 C 
ATOM      5  N   UNL     1       3.859   3.916  18.669  0.00  0.00    +0.000 NA
ATOM      6  N   UNL     1       4.566   5.612  17.225  0.00  0.00    +0.000 N 
ATOM      7  C   UNL     1       4.289   6.883  16.778  0.00  0.00    +0.000 C 
ATOM      8  O   UNL     1       4.797   7.381  15.778  0.00  0.00    +0.000 OA
ENDROOT
BRANCH   1  11
ATOM      9  C   UNL     1      -0.534  10.336  18.386  0.00  0.00    +0.000 A 
ATOM     10  C   UNL     1       0.511   9.767  17.637  0.00  0.00    +0.000 A 
ATOM     11  C   UNL     1       1.702   9.374  18.243  0.00  0.00    +0.000 A 
ATOM     12  C   UNL     1       1.857   9.589  19.614  0.00  0.00    +0.000 A 
ATOM     13  C   UNL     1       0.835  10.159  20.393  0.00  0.00    +0.000 A 
ATOM     14  C   UNL     1      -0.375  10.517  19.774  0.00  0.00    +0.000 A 
BRANCH   9  16
ATOM     15  C   UNL     1      -2.681   9.741  17.470  0.00  0.00    +0.000 C 
ATOM     16  O   UNL     1      -1.608  10.662  17.596  0.00  0.00    +0.000 OA
ENDBRANCH   9  16
BRANCH  13  17
ATOM     17  O   UNL     1       1.221  10.268  21.700  0.00  0.00    +0.000 OA
ATOM     18  C   UNL     1       1.361   9.137  22.537  0.00  0.00    +0.000 C 
ENDBRANCH  13  17
BRANCH  14  19
ATOM     19  O   UNL     1      -1.421  11.028  20.490  0.00  0.00    +0.000 OA
ATOM     20  H   UNL     1      -2.176  11.107  19.892  0.00  0.00    +0.000 HD
ENDBRANCH  14  19
ENDBRANCH   1  11
BRANCH   5  21
ATOM     21  C   UNL     1       2.976   3.402  19.636  0.00  0.00    +0.000 A 
ATOM     22  C   UNL     1       1.618   3.295  19.319  0.00  0.00    +0.000 A 
ATOM     23  C   UNL     1       0.701   2.813  20.258  0.00  0.00    +0.000 A 
ATOM     24  C   UNL     1       1.131   2.448  21.532  0.00  0.00    +0.000 A 
ATOM     25  C   UNL     1       2.484   2.516  21.850  0.00  0.00    +0.000 A 
ATOM     26  C   UNL     1       3.401   2.950  20.891  0.00  0.00    +0.000 A 
ENDBRANCH   5  21
BRANCH   6  27
ATOM     27  C   UNL     1       5.673   4.832  16.666  0.00  0.00    +0.000 C 
BRANCH  27  28
ATOM     28  C   UNL     1       7.039   5.215  17.227  0.00  0.00    +0.000 C 
ATOM     29  O   UNL     1       7.548   4.650  18.186  0.00  0.00    +0.000 OA
BRANCH  28  30
ATOM     30  O   UNL     1       7.589   6.338  16.703  0.00  0.00    +0.000 OA
ATOM     31  H   UNL     1       7.306   7.169  17.146  0.00  0.00    +0.000 HD
ENDBRANCH  28  30
ENDBRANCH  27  28
ENDBRANCH   6  27
TORSDOF 8
ENDMDL
MODEL 6
REMARK VINA RESULT:      -7.1      2.553      4.877
REMARK  Name = 
REMARK  10 active torsions:
REMARK  status: ('A' for Active; 'I' for Inactive)
REMARK    1  A    between atoms: C_1  and  O_2
REMARK    2  A    between atoms: O_2  and  C_3
REMARK    3  A    between atoms: C_5  and  C_6
REMARK    4  A    between atoms: N_10  and  C_11
REMARK    5  A    between atoms: N_17  and  C_18
REMARK    6  A    between atoms: C_18  and  C_19
REMARK    7  A    between atoms: C_19  and  O_21
REMARK    8  A    between atoms: C_25  and  O_26
REMARK    9  A    between atoms: O_26  and  C_27
REMARK   10  A    between atoms: C_28  and  O_29
REMARK                            x       y       z     vdW  Elec       q    Type
REMARK                         _______ _______ _______ _____ _____    ______ ____
ROOT
ATOM      1  C   UNL     1       2.911   8.685  17.473  0.00  0.00    +0.000 C 
ATOM      2  C   UNL     1       3.292   7.406  17.594  0.00  0.00    +0.000 C 
ATOM      3  S   UNL     1       2.569   6.221  18.600  0.00  0.00    +0.000 S 
ATOM      4  C   UNL     1       3.769   5.007  18.213  0.00  0.00    +0.000 C 
ATOM      5  N   UNL     1       3.861   3.806  18.681  0.00  0.00    +0.000 NA
ATOM      6  N   UNL     1       4.660   5.509  17.294  0.00  0.00    +0.000 N 
ATOM      7  C   UNL     1       4.422   6.789  16.851  0.00  0.00    +0.000 C 
ATOM      8  O   UNL     1       4.985   7.292  15.884  0.00  0.00    +0.000 OA
ENDROOT
BRANCH   1  11
ATOM      9  C   UNL     1       0.882  10.142  20.319  0.00  0.00    +0.000 A 
ATOM     10  C   UNL     1       1.926   9.544  19.591  0.00  0.00    +0.000 A 
ATOM     11  C   UNL     1       1.803   9.299  18.225  0.00  0.00    +0.000 A 
ATOM     12  C   UNL     1       0.603   9.627  17.591  0.00  0.00    +0.000 A 
ATOM     13  C   UNL     1      -0.463  10.221  18.289  0.00  0.00    +0.000 A 
ATOM     14  C   UNL     1      -0.312  10.496  19.660  0.00  0.00    +0.000 A 
BRANCH   9  16
ATOM     15  C   UNL     1       0.805   9.274  22.565  0.00  0.00    +0.000 C 
ATOM     16  O   UNL     1       1.203  10.281  21.647  0.00  0.00    +0.000 OA
ENDBRANCH   9  16
BRANCH  13  17
ATOM     17  O   UNL     1      -1.525  10.446  17.459  0.00  0.00    +0.000 OA
ATOM     18  C   UNL     1      -2.751   9.757  17.606  0.00  0.00    +0.000 C 
ENDBRANCH  13  17
BRANCH  14  19
ATOM     19  O   UNL     1      -1.294  11.119  20.377  0.00  0.00    +0.000 OA
ATOM     20  H   UNL     1      -1.143  10.926  21.312  0.00  0.00    +0.000 HD
ENDBRANCH  14  19
ENDBRANCH   1  11
BRANCH   5  21
ATOM     21  C   UNL     1       2.926   3.292  19.598  0.00  0.00    +0.000 A 
ATOM     22  C   UNL     1       3.203   3.384  20.965  0.00  0.00    +0.000 A 
ATOM     23  C   UNL     1       2.313   2.863  21.911  0.00  0.00    +0.000 A 
ATOM     24  C   UNL     1       1.143   2.232  21.496  0.00  0.00    +0.000 A 
ATOM     25  C   UNL     1       0.837   2.165  20.140  0.00  0.00    +0.000 A 
ATOM     26  C   UNL     1       1.704   2.731  19.205  0.00  0.00    +0.000 A 
ENDBRANCH   5  21
BRANCH   6  27
ATOM     27  C   UNL     1       5.782   4.720  16.779  0.00  0.00    +0.000 C 
BRANCH  27  28
ATOM     28  C   UNL     1       6.995   4.701  17.703  0.00  0.00    +0.000 C 
ATOM     29  O   UNL     1       8.096   4.300  17.351  0.00  0.00    +0.000 OA
BRANCH  28  30
ATOM     30  O   UNL     1       6.743   5.004  19.000  0.00  0.00    +0.000 OA
ATOM     31  H   UNL     1       6.199   5.813  19.125  0.00  0.00    +0.000 HD
ENDBRANCH  28  30
ENDBRANCH  27  28
ENDBRANCH   6  27
TORSDOF 8
ENDMDL
MODEL 7
REMARK VINA RESULT:      -7.1      0.484      1.128
REMARK  Name = 
REMARK  10 active torsions:
REMARK  status: ('A' for Active; 'I' for Inactive)
REMARK    1  A    between atoms: C_1  and  O_2
REMARK    2  A    between atoms: O_2  and  C_3
REMARK    3  A    between atoms: C_5  and  C_6
REMARK    4  A    between atoms: N_10  and  C_11
REMARK    5  A    between atoms: N_17  and  C_18
REMARK    6  A    between atoms: C_18  and  C_19
REMARK    7  A    between atoms: C_19  and  O_21
REMARK    8  A    between atoms: C_25  and  O_26
REMARK    9  A    between atoms: O_26  and  C_27
REMARK   10  A    between atoms: C_28  and  O_29
REMARK                            x       y       z     vdW  Elec       q    Type
REMARK                         _______ _______ _______ _____ _____    ______ ____
ROOT
ATOM      1  C   UNL     1       0.824   6.573  20.933  0.00  0.00    +0.000 C 
ATOM      2  C   UNL     1       1.869   5.833  20.537  0.00  0.00    +0.000 C 
ATOM      3  S   UNL     1       3.324   6.418  19.844  0.00  0.00    +0.000 S 
ATOM      4  C   UNL     1       3.954   4.811  19.550  0.00  0.00    +0.000 C 
ATOM      5  N   UNL     1       5.067   4.489  18.978  0.00  0.00    +0.000 NA
ATOM      6  N   UNL     1       3.072   3.871  20.027  0.00  0.00    +0.000 N 
ATOM      7  C   UNL     1       1.943   4.353  20.648  0.00  0.00    +0.000 C 
ATOM      8  O   UNL     1       1.181   3.659  21.313  0.00  0.00    +0.000 OA
ENDROOT
BRANCH   1  11
ATOM      9  C   UNL     1       0.990  10.058  19.460  0.00  0.00    +0.000 A 
ATOM     10  C   UNL     1       1.074   8.662  19.603  0.00  0.00    +0.000 A 
ATOM     11  C   UNL     1       0.745   8.038  20.804  0.00  0.00    +0.000 A 
ATOM     12  C   UNL     1       0.361   8.833  21.887  0.00  0.00    +0.000 A 
ATOM     13  C   UNL     1       0.271  10.232  21.781  0.00  0.00    +0.000 A 
ATOM     14  C   UNL     1       0.571  10.844  20.552  0.00  0.00    +0.000 A 
BRANCH   9  16
ATOM     15  C   UNL     1       2.416  11.415  18.072  0.00  0.00    +0.000 C 
ATOM     16  O   UNL     1       1.369  10.466  18.206  0.00  0.00    +0.000 OA
ENDBRANCH   9  16
BRANCH  13  17
ATOM     17  O   UNL     1      -0.122  10.786  22.968  0.00  0.00    +0.000 OA
ATOM     18  C   UNL     1      -1.439  11.256  23.176  0.00  0.00    +0.000 C 
ENDBRANCH  13  17
BRANCH  14  19
ATOM     19  O   UNL     1       0.450  12.194  20.377  0.00  0.00    +0.000 OA
ATOM     20  H   UNL     1       0.774  12.624  21.181  0.00  0.00    +0.000 HD
ENDBRANCH  14  19
ENDBRANCH   1  11
BRANCH   5  21
ATOM     21  C   UNL     1       5.975   5.461  18.520  0.00  0.00    +0.000 A 
ATOM     22  C   UNL     1       5.661   6.187  17.368  0.00  0.00    +0.000 A 
ATOM     23  C   UNL     1       6.547   7.144  16.863  0.00  0.00    +0.000 A 
ATOM     24  C   UNL     1       7.765   7.374  17.498  0.00  0.00    +0.000 A 
ATOM     25  C   UNL     1       8.075   6.684  18.666  0.00  0.00    +0.000 A 
ATOM     26  C   UNL     1       7.165   5.767  19.192  0.00  0.00    +0.000 A 
ENDBRANCH   5  21
BRANCH   6  27
ATOM     27  C   UNL     1       3.328   2.432  19.922  0.00  0.00    +0.000 C 
BRANCH  27  28
ATOM     28  C   UNL     1       2.844   1.816  18.613  0.00  0.00    +0.000 C 
ATOM     29  O   UNL     1       3.590   1.576  17.673  0.00  0.00    +0.000 OA
BRANCH  28  30
ATOM     30  O   UNL     1       1.499   1.701  18.487  0.00  0.00    +0.000 OA
ATOM     31  H   UNL     1       0.988   2.316  19.058  0.00  0.00    +0.000 HD
ENDBRANCH  28  30
ENDBRANCH  27  28
ENDBRANCH   6  27
TORSDOF 8
ENDMDL
MODEL 8
REMARK VINA RESULT:      -7.0      3.275      7.152
REMARK  Name = 
REMARK  10 active torsions:
REMARK  status: ('A' for Active; 'I' for Inactive)
REMARK    1  A    between atoms: C_1  and  O_2
REMARK    2  A    between atoms: O_2  and  C_3
REMARK    3  A    between atoms: C_5  and  C_6
REMARK    4  A    between atoms: N_10  and  C_11
REMARK    5  A    between atoms: N_17  and  C_18
REMARK    6  A    between atoms: C_18  and  C_19
REMARK    7  A    between atoms: C_19  and  O_21
REMARK    8  A    between atoms: C_25  and  O_26
REMARK    9  A    between atoms: O_26  and  C_27
REMARK   10  A    between atoms: C_28  and  O_29
REMARK                            x       y       z     vdW  Elec       q    Type
REMARK                         _______ _______ _______ _____ _____    ______ ____
ROOT
ATOM      1  C   UNL     1       4.540   3.073  17.082  0.00  0.00    +0.000 C 
ATOM      2  C   UNL     1       3.622   3.690  17.839  0.00  0.00    +0.000 C 
ATOM      3  S   UNL     1       3.299   5.374  17.874  0.00  0.00    +0.000 S 
ATOM      4  C   UNL     1       2.136   5.231  19.175  0.00  0.00    +0.000 C 
ATOM      5  N   UNL     1       1.488   6.180  19.766  0.00  0.00    +0.000 NA
ATOM      6  N   UNL     1       1.982   3.909  19.518  0.00  0.00    +0.000 N 
ATOM      7  C   UNL     1       2.705   3.000  18.782  0.00  0.00    +0.000 C 
ATOM      8  O   UNL     1       2.513   1.788  18.815  0.00  0.00    +0.000 OA
ENDROOT
BRANCH   1  11
ATOM      9  C   UNL     1       6.426   4.019  13.938  0.00  0.00    +0.000 A 
ATOM     10  C   UNL     1       5.562   3.362  14.832  0.00  0.00    +0.000 A 
ATOM     11  C   UNL     1       5.461   3.762  16.162  0.00  0.00    +0.000 A 
ATOM     12  C   UNL     1       6.264   4.814  16.607  0.00  0.00    +0.000 A 
ATOM     13  C   UNL     1       7.142   5.490  15.742  0.00  0.00    +0.000 A 
ATOM     14  C   UNL     1       7.208   5.099  14.394  0.00  0.00    +0.000 A 
BRANCH   9  16
ATOM     15  C   UNL     1       5.126   3.256  12.059  0.00  0.00    +0.000 C 
ATOM     16  O   UNL     1       6.383   3.460  12.685  0.00  0.00    +0.000 OA
ENDBRANCH   9  16
BRANCH  13  17
ATOM     17  O   UNL     1       7.819   6.476  16.406  0.00  0.00    +0.000 OA
ATOM     18  C   UNL     1       7.260   7.151  17.516  0.00  0.00    +0.000 C 
ENDBRANCH  13  17
BRANCH  14  19
ATOM     19  O   UNL     1       8.004   5.753  13.497  0.00  0.00    +0.000 OA
ATOM     20  H   UNL     1       7.748   5.464  12.610  0.00  0.00    +0.000 HD
ENDBRANCH  14  19
ENDBRANCH   1  11
BRANCH   5  21
ATOM     21  C   UNL     1       1.631   7.527  19.385  0.00  0.00    +0.000 A 
ATOM     22  C   UNL     1       1.253   8.526  20.287  0.00  0.00    +0.000 A 
ATOM     23  C   UNL     1       1.354   9.877  19.941  0.00  0.00    +0.000 A 
ATOM     24  C   UNL     1       1.821  10.242  18.680  0.00  0.00    +0.000 A 
ATOM     25  C   UNL     1       2.234   9.260  17.785  0.00  0.00    +0.000 A 
ATOM     26  C   UNL     1       2.178   7.917  18.156  0.00  0.00    +0.000 A 
ENDBRANCH   5  21
BRANCH   6  27
ATOM     27  C   UNL     1       1.071   3.477  20.582  0.00  0.00    +0.000 C 
BRANCH  27  28
ATOM     28  C   UNL     1       1.779   2.871  21.788  0.00  0.00    +0.000 C 
ATOM     29  O   UNL     1       2.997   2.850  21.906  0.00  0.00    +0.000 OA
BRANCH  28  30
ATOM     30  O   UNL     1       0.980   2.202  22.656  0.00  0.00    +0.000 OA
ATOM     31  H   UNL     1       0.151   2.677  22.887  0.00  0.00    +0.000 HD
ENDBRANCH  28  30
ENDBRANCH  27  28
ENDBRANCH   6  27
TORSDOF 8
ENDMDL
MODEL 9
REMARK VINA RESULT:      -7.0      3.288      7.418
REMARK  Name = 
REMARK  10 active torsions:
REMARK  status: ('A' for Active; 'I' for Inactive)
REMARK    1  A    between atoms: C_1  and  O_2
REMARK    2  A    between atoms: O_2  and  C_3
REMARK    3  A    between atoms: C_5  and  C_6
REMARK    4  A    between atoms: N_10  and  C_11
REMARK    5  A    between atoms: N_17  and  C_18
REMARK    6  A    between atoms: C_18  and  C_19
REMARK    7  A    between atoms: C_19  and  O_21
REMARK    8  A    between atoms: C_25  and  O_26
REMARK    9  A    between atoms: O_26  and  C_27
REMARK   10  A    between atoms: C_28  and  O_29
REMARK                            x       y       z     vdW  Elec       q    Type
REMARK                         _______ _______ _______ _____ _____    ______ ____
ROOT
ATOM      1  C   UNL     1       4.559   3.044  16.930  0.00  0.00    +0.000 C 
ATOM      2  C   UNL     1       3.637   3.640  17.698  0.00  0.00    +0.000 C 
ATOM      3  S   UNL     1       3.316   5.323  17.779  0.00  0.00    +0.000 S 
ATOM      4  C   UNL     1       2.145   5.145  19.068  0.00  0.00    +0.000 C 
ATOM      5  N   UNL     1       1.494   6.077  19.682  0.00  0.00    +0.000 NA
ATOM      6  N   UNL     1       1.988   3.814  19.374  0.00  0.00    +0.000 N 
ATOM      7  C   UNL     1       2.714   2.924  18.617  0.00  0.00    +0.000 C 
ATOM      8  O   UNL     1       2.521   1.713  18.615  0.00  0.00    +0.000 OA
ENDROOT
BRANCH   1  11
ATOM      9  C   UNL     1       7.139   5.511  15.667  0.00  0.00    +0.000 A 
ATOM     10  C   UNL     1       6.241   4.829  16.506  0.00  0.00    +0.000 A 
ATOM     11  C   UNL     1       5.485   3.757  16.034  0.00  0.00    +0.000 A 
ATOM     12  C   UNL     1       5.609   3.391  14.692  0.00  0.00    +0.000 A 
ATOM     13  C   UNL     1       6.494   4.054  13.824  0.00  0.00    +0.000 A 
ATOM     14  C   UNL     1       7.277   5.110  14.323  0.00  0.00    +0.000 A 
BRANCH   9  16
ATOM     15  C   UNL     1       7.293   6.942  17.599  0.00  0.00    +0.000 C 
ATOM     16  O   UNL     1       7.770   6.538  16.324  0.00  0.00    +0.000 OA
ENDBRANCH   9  16
BRANCH  13  17
ATOM     17  O   UNL     1       6.438   3.518  12.567  0.00  0.00    +0.000 OA
ATOM     18  C   UNL     1       5.222   3.082  11.993  0.00  0.00    +0.000 C 
ENDBRANCH  13  17
BRANCH  14  19
ATOM     19  O   UNL     1       8.190   5.756  13.539  0.00  0.00    +0.000 OA
ATOM     20  H   UNL     1       9.055   5.670  13.963  0.00  0.00    +0.000 HD
ENDBRANCH  14  19
ENDBRANCH   1  11
BRANCH   5  21
ATOM     21  C   UNL     1       1.641   7.434  19.340  0.00  0.00    +0.000 A 
ATOM     22  C   UNL     1       1.307   8.407  20.287  0.00  0.00    +0.000 A 
ATOM     23  C   UNL     1       1.413   9.768  19.980  0.00  0.00    +0.000 A 
ATOM     24  C   UNL     1       1.840  10.169  18.717  0.00  0.00    +0.000 A 
ATOM     25  C   UNL     1       2.209   9.212  17.776  0.00  0.00    +0.000 A 
ATOM     26  C   UNL     1       2.150   7.857  18.105  0.00  0.00    +0.000 A 
ENDBRANCH   5  21
BRANCH   6  27
ATOM     27  C   UNL     1       1.071   3.353  20.420  0.00  0.00    +0.000 C 
BRANCH  27  28
ATOM     28  C   UNL     1       1.769   2.676  21.594  0.00  0.00    +0.000 C 
ATOM     29  O   UNL     1       1.176   2.300  22.597  0.00  0.00    +0.000 OA
BRANCH  28  30
ATOM     30  O   UNL     1       3.124   2.662  21.536  0.00  0.00    +0.000 OA
ATOM     31  H   UNL     1       3.487   2.206  20.744  0.00  0.00    +0.000 HD
ENDBRANCH  28  30
ENDBRANCH  27  28
ENDBRANCH   6  27
TORSDOF 8
ENDMDL
