MODEL 1
REMARK VINA RESULT:      -8.8      0.000      0.000
REMARK  Name = 
REMARK  9 active torsions:
REMARK  status: ('A' for Active; 'I' for Inactive)
REMARK    1  A    between atoms: C_2  and  C_15
REMARK    2  A    between atoms: N_3  and  C_4
REMARK    3  A    between atoms: C_7  and  O_8
REMARK    4  A    between atoms: O_8  and  C_9
REMARK    5  A    between atoms: C_18  and  N_19
REMARK    6  A    between atoms: C_22  and  O_23
REMARK    7  A    between atoms: C_25  and  C_26
REMARK    8  A    between atoms: C_30  and  C_31
REMARK    9  A    between atoms: C_31  and  O_32
REMARK                            x       y       z     vdW  Elec       q    Type
REMARK                         _______ _______ _______ _____ _____    ______ ____
ROOT
ATOM      1  C   UNL     1       2.106   8.339  18.386  0.00  0.00    +0.000 A 
ATOM      2  C   UNL     1       3.292   8.708  17.793  0.00  0.00    +0.000 A 
ATOM      3  N   UNL     1       4.205   7.817  17.322  0.00  0.00    +0.000 NA
ATOM      4  C   UNL     1       3.965   6.479  17.442  0.00  0.00    +0.000 A 
ATOM      5  C   UNL     1       2.781   6.009  18.070  0.00  0.00    +0.000 A 
ATOM      6  C   UNL     1       1.863   6.976  18.521  0.00  0.00    +0.000 A 
ENDROOT
BRANCH   5   7
ATOM      7  C   UNL     1       2.484   4.592  18.397  0.00  0.00    +0.000 A 
ATOM      8  C   UNL     1       2.674   3.564  17.462  0.00  0.00    +0.000 A 
ATOM      9  C   UNL     1       2.402   2.232  17.785  0.00  0.00    +0.000 A 
ATOM     10  C   UNL     1       1.995   1.898  19.075  0.00  0.00    +0.000 A 
ATOM     11  C   UNL     1       1.797   2.896  20.032  0.00  0.00    +0.000 A 
ATOM     12  C   UNL     1       1.983   4.233  19.659  0.00  0.00    +0.000 A 
BRANCH  11  13
ATOM     13  C   UNL     1       1.506   2.554  21.472  0.00  0.00    +0.000 C 
BRANCH  13  14
ATOM     14  O   UNL     1       2.702   2.357  22.211  0.00  0.00    +0.000 OA
ATOM     15  H   UNL     1       2.546   1.593  22.794  0.00  0.00    +0.000 HD
ENDBRANCH  13  14
ENDBRANCH  11  13
ENDBRANCH   5   7
BRANCH   4  16
ATOM     16  N   UNL     1       4.959   5.615  17.008  0.00  0.00    +0.000 N 
ATOM     17  C   UNL     1       6.101   5.307  17.870  0.00  0.00    +0.000 C 
ATOM     18  C   UNL     1       7.174   4.740  16.922  0.00  0.00    +0.000 C 
ATOM     19  C   UNL     1       6.420   4.428  15.637  0.00  0.00    +0.000 C 
ATOM     20  C   UNL     1       5.364   5.546  15.600  0.00  0.00    +0.000 C 
BRANCH  19  21
ATOM     21  O   UNL     1       5.818   3.135  15.747  0.00  0.00    +0.000 OA
ATOM     22  H   UNL     1       6.479   2.565  16.180  0.00  0.00    +0.000 HD
ENDBRANCH  19  21
ENDBRANCH   4  16
BRANCH   1  24
ATOM     23  O   UNL     1       0.392   9.872  18.229  0.00  0.00    +0.000 OA
ATOM     24  C   UNL     1       1.137   9.272  18.999  0.00  0.00    +0.000 C 
ATOM     25  N   UNL     1       1.200   9.449  20.372  0.00  0.00    +0.000 N 
ATOM     26  H   UNL     1       1.982   9.047  20.871  0.00  0.00    +0.000 HD
BRANCH  25  27
ATOM     27  C   UNL     1       0.370  10.331  21.108  0.00  0.00    +0.000 A 
ATOM     28  C   UNL     1       0.189  11.675  20.775  0.00  0.00    +0.000 A 
ATOM     29  C   UNL     1      -0.621  12.505  21.555  0.00  0.00    +0.000 A 
ATOM     30  C   UNL     1      -1.284  12.005  22.672  0.00  0.00    +0.000 A 
ATOM     31  C   UNL     1      -1.093  10.674  23.030  0.00  0.00    +0.000 A 
ATOM     32  C   UNL     1      -0.292   9.833  22.238  0.00  0.00    +0.000 A 
BRANCH  30  33
ATOM     33  O   UNL     1      -2.002  12.925  23.371  0.00  0.00    +0.000 OA
BRANCH  33  34
ATOM     34  C   UNL     1      -3.421  12.812  23.419  0.00  0.00    +0.000 C 
ATOM     35  F   UNL     1      -4.064  13.973  23.656  0.00  0.00    +0.000 F 
ATOM     36  F   UNL     1      -3.855  12.310  22.244  0.00  0.00    +0.000 F 
ATOM     37  F   UNL     1      -3.752  11.942  24.398  0.00  0.00    +0.000 F 
ENDBRANCH  33  34
ENDBRANCH  30  33
ENDBRANCH  25  27
ENDBRANCH   1  24
TORSDOF 9
ENDMDL
MODEL 2
REMARK VINA RESULT:      -8.7      0.305      1.094
REMARK  Name = 
REMARK  9 active torsions:
REMARK  status: ('A' for Active; 'I' for Inactive)
REMARK    1  A    between atoms: C_2  and  C_15
REMARK    2  A    between atoms: N_3  and  C_4
REMARK    3  A    between atoms: C_7  and  O_8
REMARK    4  A    between atoms: O_8  and  C_9
REMARK    5  A    between atoms: C_18  and  N_19
REMARK    6  A    between atoms: C_22  and  O_23
REMARK    7  A    between atoms: C_25  and  C_26
REMARK    8  A    between atoms: C_30  and  C_31
REMARK    9  A    between atoms: C_31  and  O_32
REMARK                            x       y       z     vdW  Elec       q    Type
REMARK                         _______ _______ _______ _____ _____    ______ ____
ROOT
ATOM      1  C   UNL     1       2.198   8.194  18.420  0.00  0.00    +0.000 A 
ATOM      2  C   UNL     1       3.367   8.561  17.794  0.00  0.00    +0.000 A 
ATOM      3  N   UNL     1       4.259   7.669  17.284  0.00  0.00    +0.000 NA
ATOM      4  C   UNL     1       4.013   6.331  17.398  0.00  0.00    +0.000 A 
ATOM      5  C   UNL     1       2.846   5.863  18.058  0.00  0.00    +0.000 A 
ATOM      6  C   UNL     1       1.949   6.831  18.548  0.00  0.00    +0.000 A 
ENDROOT
BRANCH   5   7
ATOM      7  C   UNL     1       2.550   4.445  18.380  0.00  0.00    +0.000 A 
ATOM      8  C   UNL     1       2.710   3.424  17.431  0.00  0.00    +0.000 A 
ATOM      9  C   UNL     1       2.439   2.090  17.748  0.00  0.00    +0.000 A 
ATOM     10  C   UNL     1       2.063   1.746  19.045  0.00  0.00    +0.000 A 
ATOM     11  C   UNL     1       1.895   2.737  20.016  0.00  0.00    +0.000 A 
ATOM     12  C   UNL     1       2.079   4.076  19.651  0.00  0.00    +0.000 A 
BRANCH  11  13
ATOM     13  C   UNL     1       1.638   2.383  21.460  0.00  0.00    +0.000 C 
BRANCH  13  14
ATOM     14  O   UNL     1       2.224   3.331  22.339  0.00  0.00    +0.000 OA
ATOM     15  H   UNL     1       1.496   3.713  22.861  0.00  0.00    +0.000 HD
ENDBRANCH  13  14
ENDBRANCH  11  13
ENDBRANCH   5   7
BRANCH   4  16
ATOM     16  N   UNL     1       4.987   5.465  16.924  0.00  0.00    +0.000 N 
ATOM     17  C   UNL     1       6.146   5.129  17.752  0.00  0.00    +0.000 C 
ATOM     18  C   UNL     1       7.190   4.570  16.768  0.00  0.00    +0.000 C 
ATOM     19  C   UNL     1       6.401   4.290  15.496  0.00  0.00    +0.000 C 
ATOM     20  C   UNL     1       5.357   5.419  15.505  0.00  0.00    +0.000 C 
BRANCH  19  21
ATOM     21  O   UNL     1       5.788   3.001  15.597  0.00  0.00    +0.000 OA
ATOM     22  H   UNL     1       6.143   2.595  16.407  0.00  0.00    +0.000 HD
ENDBRANCH  19  21
ENDBRANCH   4  16
BRANCH   1  24
ATOM     23  O   UNL     1       0.484   9.733  18.334  0.00  0.00    +0.000 OA
ATOM     24  C   UNL     1       1.255   9.126  19.073  0.00  0.00    +0.000 C 
ATOM     25  N   UNL     1       1.369   9.295  20.443  0.00  0.00    +0.000 N 
ATOM     26  H   UNL     1       2.167   8.888  20.912  0.00  0.00    +0.000 HD
BRANCH  25  27
ATOM     27  C   UNL     1       0.569  10.177  21.214  0.00  0.00    +0.000 A 
ATOM     28  C   UNL     1      -0.240   9.757  22.271  0.00  0.00    +0.000 A 
ATOM     29  C   UNL     1      -1.028  10.669  22.978  0.00  0.00    +0.000 A 
ATOM     30  C   UNL     1      -1.009  12.024  22.657  0.00  0.00    +0.000 A 
ATOM     31  C   UNL     1      -0.226  12.453  21.590  0.00  0.00    +0.000 A 
ATOM     32  C   UNL     1       0.580  11.540  20.888  0.00  0.00    +0.000 A 
BRANCH  30  33
ATOM     33  O   UNL     1      -1.855  12.798  23.390  0.00  0.00    +0.000 OA
BRANCH  33  34
ATOM     34  C   UNL     1      -3.255  12.733  23.137  0.00  0.00    +0.000 C 
ATOM     35  F   UNL     1      -3.579  12.229  21.929  0.00  0.00    +0.000 F 
ATOM     36  F   UNL     1      -3.832  11.974  24.091  0.00  0.00    +0.000 F 
ATOM     37  F   UNL     1      -3.767  13.980  23.221  0.00  0.00    +0.000 F 
ENDBRANCH  33  34
ENDBRANCH  30  33
ENDBRANCH  25  27
ENDBRANCH   1  24
TORSDOF 9
ENDMDL
MODEL 3
REMARK VINA RESULT:      -8.6      0.912      1.138
REMARK  Name = 
REMARK  9 active torsions:
REMARK  status: ('A' for Active; 'I' for Inactive)
REMARK    1  A    between atoms: C_2  and  C_15
REMARK    2  A    between atoms: N_3  and  C_4
REMARK    3  A    between atoms: C_7  and  O_8
REMARK    4  A    between atoms: O_8  and  C_9
REMARK    5  A    between atoms: C_18  and  N_19
REMARK    6  A    between atoms: C_22  and  O_23
REMARK    7  A    between atoms: C_25  and  C_26
REMARK    8  A    between atoms: C_30  and  C_31
REMARK    9  A    between atoms: C_31  and  O_32
REMARK                            x       y       z     vdW  Elec       q    Type
REMARK                         _______ _______ _______ _____ _____    ______ ____
ROOT
ATOM      1  C   UNL     1       2.081   8.285  18.439  0.00  0.00    +0.000 A 
ATOM      2  C   UNL     1       3.213   8.662  17.754  0.00  0.00    +0.000 A 
ATOM      3  N   UNL     1       4.128   7.779  17.271  0.00  0.00    +0.000 NA
ATOM      4  C   UNL     1       3.946   6.442  17.474  0.00  0.00    +0.000 A 
ATOM      5  C   UNL     1       2.821   5.966  18.198  0.00  0.00    +0.000 A 
ATOM      6  C   UNL     1       1.897   6.923  18.658  0.00  0.00    +0.000 A 
ENDROOT
BRANCH   5   7
ATOM      7  C   UNL     1       2.598   4.559  18.615  0.00  0.00    +0.000 A 
ATOM      8  C   UNL     1       1.571   3.779  18.061  0.00  0.00    +0.000 A 
ATOM      9  C   UNL     1       1.377   2.452  18.454  0.00  0.00    +0.000 A 
ATOM     10  C   UNL     1       2.251   1.861  19.363  0.00  0.00    +0.000 A 
ATOM     11  C   UNL     1       3.286   2.607  19.933  0.00  0.00    +0.000 A 
ATOM     12  C   UNL     1       3.403   3.962  19.599  0.00  0.00    +0.000 A 
BRANCH  11  13
ATOM     13  C   UNL     1       4.335   1.956  20.800  0.00  0.00    +0.000 C 
BRANCH  13  14
ATOM     14  O   UNL     1       5.290   1.254  20.020  0.00  0.00    +0.000 OA
ATOM     15  H   UNL     1       6.125   1.750  20.087  0.00  0.00    +0.000 HD
ENDBRANCH  13  14
ENDBRANCH  11  13
ENDBRANCH   5   7
BRANCH   4  16
ATOM     16  N   UNL     1       4.943   5.590  17.022  0.00  0.00    +0.000 N 
ATOM     17  C   UNL     1       6.162   5.395  17.807  0.00  0.00    +0.000 C 
ATOM     18  C   UNL     1       7.183   4.805  16.817  0.00  0.00    +0.000 C 
ATOM     19  C   UNL     1       6.347   4.368  15.623  0.00  0.00    +0.000 C 
ATOM     20  C   UNL     1       5.239   5.434  15.594  0.00  0.00    +0.000 C 
BRANCH  19  21
ATOM     21  O   UNL     1       5.817   3.063  15.872  0.00  0.00    +0.000 OA
ATOM     22  H   UNL     1       4.849   3.150  15.825  0.00  0.00    +0.000 HD
ENDBRANCH  19  21
ENDBRANCH   4  16
BRANCH   1  24
ATOM     23  O   UNL     1       0.346   9.797  18.306  0.00  0.00    +0.000 OA
ATOM     24  C   UNL     1       1.117   9.215  19.065  0.00  0.00    +0.000 C 
ATOM     25  N   UNL     1       1.213   9.410  20.432  0.00  0.00    +0.000 N 
ATOM     26  H   UNL     1       2.011   9.024  20.917  0.00  0.00    +0.000 HD
BRANCH  25  27
ATOM     27  C   UNL     1       0.392  10.294  21.178  0.00  0.00    +0.000 A 
ATOM     28  C   UNL     1       0.260  11.653  20.888  0.00  0.00    +0.000 A 
ATOM     29  C   UNL     1      -0.544  12.481  21.675  0.00  0.00    +0.000 A 
ATOM     30  C   UNL     1      -1.249  11.965  22.758  0.00  0.00    +0.000 A 
ATOM     31  C   UNL     1      -1.109  10.617  23.075  0.00  0.00    +0.000 A 
ATOM     32  C   UNL     1      -0.314   9.779  22.274  0.00  0.00    +0.000 A 
BRANCH  30  33
ATOM     33  O   UNL     1      -1.957  12.884  23.471  0.00  0.00    +0.000 OA
BRANCH  33  34
ATOM     34  C   UNL     1      -3.376  12.777  23.531  0.00  0.00    +0.000 C 
ATOM     35  F   UNL     1      -3.831  11.939  24.484  0.00  0.00    +0.000 F 
ATOM     36  F   UNL     1      -3.893  14.004  23.751  0.00  0.00    +0.000 F 
ATOM     37  F   UNL     1      -3.826  12.336  22.336  0.00  0.00    +0.000 F 
ENDBRANCH  33  34
ENDBRANCH  30  33
ENDBRANCH  25  27
ENDBRANCH   1  24
TORSDOF 9
ENDMDL
MODEL 4
REMARK VINA RESULT:      -8.5      0.928      1.028
REMARK  Name = 
REMARK  9 active torsions:
REMARK  status: ('A' for Active; 'I' for Inactive)
REMARK    1  A    between atoms: C_2  and  C_15
REMARK    2  A    between atoms: N_3  and  C_4
REMARK    3  A    between atoms: C_7  and  O_8
REMARK    4  A    between atoms: O_8  and  C_9
REMARK    5  A    between atoms: C_18  and  N_19
REMARK    6  A    between atoms: C_22  and  O_23
REMARK    7  A    between atoms: C_25  and  C_26
REMARK    8  A    between atoms: C_30  and  C_31
REMARK    9  A    between atoms: C_31  and  O_32
REMARK                            x       y       z     vdW  Elec       q    Type
REMARK                         _______ _______ _______ _____ _____    ______ ____
ROOT
ATOM      1  C   UNL     1       2.084   8.205  18.283  0.00  0.00    +0.000 A 
ATOM      2  C   UNL     1       3.277   8.588  17.715  0.00  0.00    +0.000 A 
ATOM      3  N   UNL     1       4.217   7.707  17.276  0.00  0.00    +0.000 NA
ATOM      4  C   UNL     1       3.997   6.367  17.407  0.00  0.00    +0.000 A 
ATOM      5  C   UNL     1       2.806   5.884  18.012  0.00  0.00    +0.000 A 
ATOM      6  C   UNL     1       1.861   6.839  18.429  0.00  0.00    +0.000 A 
ENDROOT
BRANCH   5   7
ATOM      7  C   UNL     1       2.527   4.466  18.350  0.00  0.00    +0.000 A 
ATOM      8  C   UNL     1       2.748   3.430  17.429  0.00  0.00    +0.000 A 
ATOM      9  C   UNL     1       2.491   2.098  17.761  0.00  0.00    +0.000 A 
ATOM     10  C   UNL     1       2.068   1.771  19.048  0.00  0.00    +0.000 A 
ATOM     11  C   UNL     1       1.839   2.776  19.992  0.00  0.00    +0.000 A 
ATOM     12  C   UNL     1       2.011   4.112  19.607  0.00  0.00    +0.000 A 
BRANCH  11  13
ATOM     13  C   UNL     1       1.530   2.444  21.430  0.00  0.00    +0.000 C 
BRANCH  13  14
ATOM     14  O   UNL     1       2.195   3.326  22.321  0.00  0.00    +0.000 OA
ATOM     15  H   UNL     1       1.506   3.741  22.869  0.00  0.00    +0.000 HD
ENDBRANCH  13  14
ENDBRANCH  11  13
ENDBRANCH   5   7
BRANCH   4  16
ATOM     16  N   UNL     1       5.017   5.515  17.009  0.00  0.00    +0.000 N 
ATOM     17  C   UNL     1       6.107   5.184  17.926  0.00  0.00    +0.000 C 
ATOM     18  C   UNL     1       7.235   4.644  17.028  0.00  0.00    +0.000 C 
ATOM     19  C   UNL     1       6.558   4.368  15.693  0.00  0.00    +0.000 C 
ATOM     20  C   UNL     1       5.503   5.486  15.625  0.00  0.00    +0.000 C 
BRANCH  19  21
ATOM     21  O   UNL     1       5.952   3.072  15.731  0.00  0.00    +0.000 OA
ATOM     22  H   UNL     1       6.208   2.680  16.585  0.00  0.00    +0.000 HD
ENDBRANCH  19  21
ENDBRANCH   4  16
BRANCH   1  24
ATOM     23  O   UNL     1       0.483   9.849  18.070  0.00  0.00    +0.000 OA
ATOM     24  C   UNL     1       1.084   9.127  18.861  0.00  0.00    +0.000 C 
ATOM     25  N   UNL     1       0.963   9.157  20.241  0.00  0.00    +0.000 N 
ATOM     26  H   UNL     1       1.647   8.657  20.792  0.00  0.00    +0.000 HD
BRANCH  25  27
ATOM     27  C   UNL     1       0.081  10.008  20.953  0.00  0.00    +0.000 A 
ATOM     28  C   UNL     1      -0.574  11.097  20.373  0.00  0.00    +0.000 A 
ATOM     29  C   UNL     1      -1.412  11.918  21.133  0.00  0.00    +0.000 A 
ATOM     30  C   UNL     1      -1.629  11.657  22.483  0.00  0.00    +0.000 A 
ATOM     31  C   UNL     1      -0.963  10.591  23.080  0.00  0.00    +0.000 A 
ATOM     32  C   UNL     1      -0.133   9.754  22.314  0.00  0.00    +0.000 A 
BRANCH  30  33
ATOM     33  O   UNL     1      -2.427  12.558  23.118  0.00  0.00    +0.000 OA
BRANCH  33  34
ATOM     34  C   UNL     1      -1.908  13.844  23.442  0.00  0.00    +0.000 C 
ATOM     35  F   UNL     1      -0.562  13.919  23.433  0.00  0.00    +0.000 F 
ATOM     36  F   UNL     1      -2.398  14.742  22.562  0.00  0.00    +0.000 F 
ATOM     37  F   UNL     1      -2.338  14.184  24.677  0.00  0.00    +0.000 F 
ENDBRANCH  33  34
ENDBRANCH  30  33
ENDBRANCH  25  27
ENDBRANCH   1  24
TORSDOF 9
ENDMDL
MODEL 5
REMARK VINA RESULT:      -8.5      2.780      3.209
REMARK  Name = 
REMARK  9 active torsions:
REMARK  status: ('A' for Active; 'I' for Inactive)
REMARK    1  A    between atoms: C_2  and  C_15
REMARK    2  A    between atoms: N_3  and  C_4
REMARK    3  A    between atoms: C_7  and  O_8
REMARK    4  A    between atoms: O_8  and  C_9
REMARK    5  A    between atoms: C_18  and  N_19
REMARK    6  A    between atoms: C_22  and  O_23
REMARK    7  A    between atoms: C_25  and  C_26
REMARK    8  A    between atoms: C_30  and  C_31
REMARK    9  A    between atoms: C_31  and  O_32
REMARK                            x       y       z     vdW  Elec       q    Type
REMARK                         _______ _______ _______ _____ _____    ______ ____
ROOT
ATOM      1  C   UNL     1       1.789   8.455  17.988  0.00  0.00    +0.000 A 
ATOM      2  C   UNL     1       3.053   8.873  17.642  0.00  0.00    +0.000 A 
ATOM      3  N   UNL     1       4.096   8.023  17.437  0.00  0.00    +0.000 NA
ATOM      4  C   UNL     1       3.910   6.680  17.590  0.00  0.00    +0.000 A 
ATOM      5  C   UNL     1       2.645   6.164  17.977  0.00  0.00    +0.000 A 
ATOM      6  C   UNL     1       1.598   7.087  18.156  0.00  0.00    +0.000 A 
ENDROOT
BRANCH   5   7
ATOM      7  C   UNL     1       2.363   4.749  18.325  0.00  0.00    +0.000 A 
ATOM      8  C   UNL     1       2.588   3.706  17.414  0.00  0.00    +0.000 A 
ATOM      9  C   UNL     1       2.329   2.376  17.755  0.00  0.00    +0.000 A 
ATOM     10  C   UNL     1       1.899   2.060  19.042  0.00  0.00    +0.000 A 
ATOM     11  C   UNL     1       1.666   3.072  19.977  0.00  0.00    +0.000 A 
ATOM     12  C   UNL     1       1.840   4.405  19.582  0.00  0.00    +0.000 A 
BRANCH  11  13
ATOM     13  C   UNL     1       1.349   2.752  21.416  0.00  0.00    +0.000 C 
BRANCH  13  14
ATOM     14  O   UNL     1       2.528   2.675  22.202  0.00  0.00    +0.000 OA
ATOM     15  H   UNL     1       2.243   2.472  23.111  0.00  0.00    +0.000 HD
ENDBRANCH  13  14
ENDBRANCH  11  13
ENDBRANCH   5   7
BRANCH   4  16
ATOM     16  N   UNL     1       5.021   5.864  17.438  0.00  0.00    +0.000 N 
ATOM     17  C   UNL     1       5.861   5.535  18.590  0.00  0.00    +0.000 C 
ATOM     18  C   UNL     1       7.191   5.047  17.987  0.00  0.00    +0.000 C 
ATOM     19  C   UNL     1       6.873   4.791  16.521  0.00  0.00    +0.000 C 
ATOM     20  C   UNL     1       5.835   5.885  16.217  0.00  0.00    +0.000 C 
BRANCH  19  21
ATOM     21  O   UNL     1       6.316   3.481  16.382  0.00  0.00    +0.000 OA
ATOM     22  H   UNL     1       5.450   3.506  16.827  0.00  0.00    +0.000 HD
ENDBRANCH  19  21
ENDBRANCH   4  16
BRANCH   1  24
ATOM     23  O   UNL     1       0.720   9.937  19.392  0.00  0.00    +0.000 OA
ATOM     24  C   UNL     1       0.659   9.350  18.315  0.00  0.00    +0.000 C 
ATOM     25  N   UNL     1      -0.402   9.392  17.426  0.00  0.00    +0.000 N 
ATOM     26  H   UNL     1      -0.423   8.718  16.673  0.00  0.00    +0.000 HD
BRANCH  25  27
ATOM     27  C   UNL     1      -1.575  10.167  17.609  0.00  0.00    +0.000 A 
ATOM     28  C   UNL     1      -1.763  11.038  18.684  0.00  0.00    +0.000 A 
ATOM     29  C   UNL     1      -2.953  11.757  18.827  0.00  0.00    +0.000 A 
ATOM     30  C   UNL     1      -3.973  11.635  17.888  0.00  0.00    +0.000 A 
ATOM     31  C   UNL     1      -3.810  10.752  16.825  0.00  0.00    +0.000 A 
ATOM     32  C   UNL     1      -2.608  10.041  16.670  0.00  0.00    +0.000 A 
BRANCH  30  33
ATOM     33  O   UNL     1      -5.096  12.351  18.167  0.00  0.00    +0.000 OA
BRANCH  33  34
ATOM     34  C   UNL     1      -6.260  11.672  18.628  0.00  0.00    +0.000 C 
ATOM     35  F   UNL     1      -6.041  10.404  19.030  0.00  0.00    +0.000 F 
ATOM     36  F   UNL     1      -6.787  12.367  19.658  0.00  0.00    +0.000 F 
ATOM     37  F   UNL     1      -7.167  11.644  17.628  0.00  0.00    +0.000 F 
ENDBRANCH  33  34
ENDBRANCH  30  33
ENDBRANCH  25  27
ENDBRANCH   1  24
TORSDOF 9
ENDMDL
MODEL 6
REMARK VINA RESULT:      -8.4      1.789      1.995
REMARK  Name = 
REMARK  9 active torsions:
REMARK  status: ('A' for Active; 'I' for Inactive)
REMARK    1  A    between atoms: C_2  and  C_15
REMARK    2  A    between atoms: N_3  and  C_4
REMARK    3  A    between atoms: C_7  and  O_8
REMARK    4  A    between atoms: O_8  and  C_9
REMARK    5  A    between atoms: C_18  and  N_19
REMARK    6  A    between atoms: C_22  and  O_23
REMARK    7  A    between atoms: C_25  and  C_26
REMARK    8  A    between atoms: C_30  and  C_31
REMARK    9  A    between atoms: C_31  and  O_32
REMARK                            x       y       z     vdW  Elec       q    Type
REMARK                         _______ _______ _______ _____ _____    ______ ____
ROOT
ATOM      1  C   UNL     1       2.151   8.204  18.243  0.00  0.00    +0.000 A 
ATOM      2  C   UNL     1       3.337   8.579  17.655  0.00  0.00    +0.000 A 
ATOM      3  N   UNL     1       4.267   7.693  17.207  0.00  0.00    +0.000 NA
ATOM      4  C   UNL     1       4.044   6.354  17.349  0.00  0.00    +0.000 A 
ATOM      5  C   UNL     1       2.861   5.879  17.974  0.00  0.00    +0.000 A 
ATOM      6  C   UNL     1       1.925   6.840  18.399  0.00  0.00    +0.000 A 
ENDROOT
BRANCH   5   7
ATOM      7  C   UNL     1       2.581   4.464  18.324  0.00  0.00    +0.000 A 
ATOM      8  C   UNL     1       2.830   3.418  17.422  0.00  0.00    +0.000 A 
ATOM      9  C   UNL     1       2.573   2.088  17.765  0.00  0.00    +0.000 A 
ATOM     10  C   UNL     1       2.122   1.775  19.046  0.00  0.00    +0.000 A 
ATOM     11  C   UNL     1       1.865   2.791  19.971  0.00  0.00    +0.000 A 
ATOM     12  C   UNL     1       2.038   4.123  19.573  0.00  0.00    +0.000 A 
BRANCH  11  13
ATOM     13  C   UNL     1       1.524   2.476  21.406  0.00  0.00    +0.000 C 
BRANCH  13  14
ATOM     14  O   UNL     1       2.396   3.143  22.305  0.00  0.00    +0.000 OA
ATOM     15  H   UNL     1       2.653   2.490  22.980  0.00  0.00    +0.000 HD
ENDBRANCH  13  14
ENDBRANCH  11  13
ENDBRANCH   5   7
BRANCH   4  16
ATOM     16  N   UNL     1       5.055   5.497  16.940  0.00  0.00    +0.000 N 
ATOM     17  C   UNL     1       6.156   5.165  17.844  0.00  0.00    +0.000 C 
ATOM     18  C   UNL     1       7.269   4.617  16.932  0.00  0.00    +0.000 C 
ATOM     19  C   UNL     1       6.573   4.337  15.609  0.00  0.00    +0.000 C 
ATOM     20  C   UNL     1       5.522   5.459  15.550  0.00  0.00    +0.000 C 
BRANCH  19  21
ATOM     21  O   UNL     1       5.963   3.044  15.661  0.00  0.00    +0.000 OA
ATOM     22  H   UNL     1       5.011   3.200  15.793  0.00  0.00    +0.000 HD
ENDBRANCH  19  21
ENDBRANCH   4  16
BRANCH   1  24
ATOM     23  O   UNL     1       1.177   9.247  20.053  0.00  0.00    +0.000 OA
ATOM     24  C   UNL     1       1.162   9.133  18.830  0.00  0.00    +0.000 C 
ATOM     25  N   UNL     1       0.260   9.735  17.969  0.00  0.00    +0.000 N 
ATOM     26  H   UNL     1       0.224   9.414  17.012  0.00  0.00    +0.000 HD
BRANCH  25  27
ATOM     27  C   UNL     1      -0.771  10.620  18.375  0.00  0.00    +0.000 A 
ATOM     28  C   UNL     1      -0.538  11.807  19.071  0.00  0.00    +0.000 A 
ATOM     29  C   UNL     1      -1.598  12.627  19.469  0.00  0.00    +0.000 A 
ATOM     30  C   UNL     1      -2.912  12.287  19.161  0.00  0.00    +0.000 A 
ATOM     31  C   UNL     1      -3.162  11.095  18.489  0.00  0.00    +0.000 A 
ATOM     32  C   UNL     1      -2.097  10.277  18.074  0.00  0.00    +0.000 A 
BRANCH  30  33
ATOM     33  O   UNL     1      -3.853  13.144  19.645  0.00  0.00    +0.000 OA
BRANCH  33  34
ATOM     34  C   UNL     1      -4.551  12.811  20.841  0.00  0.00    +0.000 C 
ATOM     35  F   UNL     1      -5.137  13.858  21.453  0.00  0.00    +0.000 F 
ATOM     36  F   UNL     1      -5.497  11.895  20.548  0.00  0.00    +0.000 F 
ATOM     37  F   UNL     1      -3.677  12.254  21.708  0.00  0.00    +0.000 F 
ENDBRANCH  33  34
ENDBRANCH  30  33
ENDBRANCH  25  27
ENDBRANCH   1  24
TORSDOF 9
ENDMDL
MODEL 7
REMARK VINA RESULT:      -8.2      2.162      2.496
REMARK  Name = 
REMARK  9 active torsions:
REMARK  status: ('A' for Active; 'I' for Inactive)
REMARK    1  A    between atoms: C_2  and  C_15
REMARK    2  A    between atoms: N_3  and  C_4
REMARK    3  A    between atoms: C_7  and  O_8
REMARK    4  A    between atoms: O_8  and  C_9
REMARK    5  A    between atoms: C_18  and  N_19
REMARK    6  A    between atoms: C_22  and  O_23
REMARK    7  A    between atoms: C_25  and  C_26
REMARK    8  A    between atoms: C_30  and  C_31
REMARK    9  A    between atoms: C_31  and  O_32
REMARK                            x       y       z     vdW  Elec       q    Type
REMARK                         _______ _______ _______ _____ _____    ______ ____
ROOT
ATOM      1  C   UNL     1       1.939   8.412  18.130  0.00  0.00    +0.000 A 
ATOM      2  C   UNL     1       3.181   8.799  17.685  0.00  0.00    +0.000 A 
ATOM      3  N   UNL     1       4.173   7.924  17.369  0.00  0.00    +0.000 NA
ATOM      4  C   UNL     1       3.957   6.583  17.505  0.00  0.00    +0.000 A 
ATOM      5  C   UNL     1       2.714   6.096  17.990  0.00  0.00    +0.000 A 
ATOM      6  C   UNL     1       1.718   7.046  18.282  0.00  0.00    +0.000 A 
ENDROOT
BRANCH   5   7
ATOM      7  C   UNL     1       2.417   4.682  18.327  0.00  0.00    +0.000 A 
ATOM      8  C   UNL     1       2.601   3.647  17.398  0.00  0.00    +0.000 A 
ATOM      9  C   UNL     1       2.328   2.317  17.730  0.00  0.00    +0.000 A 
ATOM     10  C   UNL     1       1.925   1.992  19.023  0.00  0.00    +0.000 A 
ATOM     11  C   UNL     1       1.733   2.996  19.975  0.00  0.00    +0.000 A 
ATOM     12  C   UNL     1       1.920   4.331  19.593  0.00  0.00    +0.000 A 
BRANCH  11  13
ATOM     13  C   UNL     1       1.446   2.663  21.418  0.00  0.00    +0.000 C 
BRANCH  13  14
ATOM     14  O   UNL     1       2.643   2.436  22.146  0.00  0.00    +0.000 OA
ATOM     15  H   UNL     1       2.899   1.511  21.981  0.00  0.00    +0.000 HD
ENDBRANCH  13  14
ENDBRANCH  11  13
ENDBRANCH   5   7
BRANCH   4  16
ATOM     16  N   UNL     1       5.023   5.738  17.237  0.00  0.00    +0.000 N 
ATOM     17  C   UNL     1       6.010   5.437  18.275  0.00  0.00    +0.000 C 
ATOM     18  C   UNL     1       7.235   4.896  17.516  0.00  0.00    +0.000 C 
ATOM     19  C   UNL     1       6.712   4.588  16.121  0.00  0.00    +0.000 C 
ATOM     20  C   UNL     1       5.660   5.691  15.916  0.00  0.00    +0.000 C 
BRANCH  19  21
ATOM     21  O   UNL     1       6.121   3.285  16.117  0.00  0.00    +0.000 OA
ATOM     22  H   UNL     1       6.480   2.823  16.895  0.00  0.00    +0.000 HD
ENDBRANCH  19  21
ENDBRANCH   4  16
BRANCH   1  24
ATOM     23  O   UNL     1       1.064   9.919  19.639  0.00  0.00    +0.000 OA
ATOM     24  C   UNL     1       0.872   9.332  18.577  0.00  0.00    +0.000 C 
ATOM     25  N   UNL     1      -0.279   9.397  17.810  0.00  0.00    +0.000 N 
ATOM     26  H   UNL     1      -0.398   8.723  17.066  0.00  0.00    +0.000 HD
BRANCH  25  27
ATOM     27  C   UNL     1      -1.408  10.198  18.118  0.00  0.00    +0.000 A 
ATOM     28  C   UNL     1      -2.690   9.945  17.627  0.00  0.00    +0.000 A 
ATOM     29  C   UNL     1      -3.760  10.786  17.944  0.00  0.00    +0.000 A 
ATOM     30  C   UNL     1      -3.575  11.887  18.775  0.00  0.00    +0.000 A 
ATOM     31  C   UNL     1      -2.298  12.167  19.252  0.00  0.00    +0.000 A 
ATOM     32  C   UNL     1      -1.224  11.313  18.948  0.00  0.00    +0.000 A 
BRANCH  30  33
ATOM     33  O   UNL     1      -4.685  12.651  18.968  0.00  0.00    +0.000 OA
BRANCH  33  34
ATOM     34  C   UNL     1      -5.446  12.487  20.160  0.00  0.00    +0.000 C 
ATOM     35  F   UNL     1      -4.706  12.299  21.271  0.00  0.00    +0.000 F 
ATOM     36  F   UNL     1      -6.219  13.579  20.334  0.00  0.00    +0.000 F 
ATOM     37  F   UNL     1      -6.256  11.415  20.010  0.00  0.00    +0.000 F 
ENDBRANCH  33  34
ENDBRANCH  30  33
ENDBRANCH  25  27
ENDBRANCH   1  24
TORSDOF 9
ENDMDL
MODEL 8
REMARK VINA RESULT:      -8.1      3.048      4.916
REMARK  Name = 
REMARK  9 active torsions:
REMARK  status: ('A' for Active; 'I' for Inactive)
REMARK    1  A    between atoms: C_2  and  C_15
REMARK    2  A    between atoms: N_3  and  C_4
REMARK    3  A    between atoms: C_7  and  O_8
REMARK    4  A    between atoms: O_8  and  C_9
REMARK    5  A    between atoms: C_18  and  N_19
REMARK    6  A    between atoms: C_22  and  O_23
REMARK    7  A    between atoms: C_25  and  C_26
REMARK    8  A    between atoms: C_30  and  C_31
REMARK    9  A    between atoms: C_31  and  O_32
REMARK                            x       y       z     vdW  Elec       q    Type
REMARK                         _______ _______ _______ _____ _____    ______ ____
ROOT
ATOM      1  C   UNL     1       2.291   7.772  18.804  0.00  0.00    +0.000 A 
ATOM      2  C   UNL     1       1.636   6.830  19.563  0.00  0.00    +0.000 A 
ATOM      3  N   UNL     1       2.057   5.542  19.690  0.00  0.00    +0.000 NA
ATOM      4  C   UNL     1       3.179   5.133  19.030  0.00  0.00    +0.000 A 
ATOM      5  C   UNL     1       3.899   6.031  18.199  0.00  0.00    +0.000 A 
ATOM      6  C   UNL     1       3.429   7.355  18.120  0.00  0.00    +0.000 A 
ENDROOT
BRANCH   5   7
ATOM      7  C   UNL     1       5.033   5.664  17.314  0.00  0.00    +0.000 A 
ATOM      8  C   UNL     1       6.357   5.651  17.778  0.00  0.00    +0.000 A 
ATOM      9  C   UNL     1       7.415   5.294  16.939  0.00  0.00    +0.000 A 
ATOM     10  C   UNL     1       7.159   4.879  15.633  0.00  0.00    +0.000 A 
ATOM     11  C   UNL     1       5.852   4.878  15.138  0.00  0.00    +0.000 A 
ATOM     12  C   UNL     1       4.818   5.332  15.966  0.00  0.00    +0.000 A 
BRANCH  11  13
ATOM     13  C   UNL     1       5.527   4.293  13.786  0.00  0.00    +0.000 C 
BRANCH  13  14
ATOM     14  O   UNL     1       6.363   3.186  13.486  0.00  0.00    +0.000 OA
ATOM     15  H   UNL     1       5.933   2.401  13.867  0.00  0.00    +0.000 HD
ENDBRANCH  13  14
ENDBRANCH  11  13
ENDBRANCH   5   7
BRANCH   4  16
ATOM     16  N   UNL     1       3.525   3.794  19.138  0.00  0.00    +0.000 N 
ATOM     17  C   UNL     1       3.406   2.903  17.983  0.00  0.00    +0.000 C 
ATOM     18  C   UNL     1       3.408   1.481  18.574  0.00  0.00    +0.000 C 
ATOM     19  C   UNL     1       3.898   1.665  20.003  0.00  0.00    +0.000 C 
ATOM     20  C   UNL     1       3.310   3.037  20.375  0.00  0.00    +0.000 C 
BRANCH  19  21
ATOM     21  O   UNL     1       5.328   1.683  20.012  0.00  0.00    +0.000 OA
ATOM     22  H   UNL     1       5.586   2.618  20.102  0.00  0.00    +0.000 HD
ENDBRANCH  19  21
ENDBRANCH   4  16
BRANCH   1  24
ATOM     23  O   UNL     1       2.147   9.666  17.499  0.00  0.00    +0.000 OA
ATOM     24  C   UNL     1       1.812   9.149  18.561  0.00  0.00    +0.000 C 
ATOM     25  N   UNL     1       1.097   9.766  19.575  0.00  0.00    +0.000 N 
ATOM     26  H   UNL     1       1.052   9.310  20.476  0.00  0.00    +0.000 HD
BRANCH  25  27
ATOM     27  C   UNL     1       0.601  11.093  19.516  0.00  0.00    +0.000 A 
ATOM     28  C   UNL     1      -0.374  11.511  18.609  0.00  0.00    +0.000 A 
ATOM     29  C   UNL     1      -0.806  12.840  18.580  0.00  0.00    +0.000 A 
ATOM     30  C   UNL     1      -0.287  13.775  19.472  0.00  0.00    +0.000 A 
ATOM     31  C   UNL     1       0.703  13.378  20.365  0.00  0.00    +0.000 A 
ATOM     32  C   UNL     1       1.127  12.039  20.406  0.00  0.00    +0.000 A 
BRANCH  30  33
ATOM     33  O   UNL     1      -0.756  15.042  19.309  0.00  0.00    +0.000 OA
BRANCH  33  34
ATOM     34  C   UNL     1       0.108  16.042  18.777  0.00  0.00    +0.000 C 
ATOM     35  F   UNL     1       1.258  15.567  18.262  0.00  0.00    +0.000 F 
ATOM     36  F   UNL     1      -0.553  16.716  17.813  0.00  0.00    +0.000 F 
ATOM     37  F   UNL     1       0.419  16.912  19.764  0.00  0.00    +0.000 F 
ENDBRANCH  33  34
ENDBRANCH  30  33
ENDBRANCH  25  27
ENDBRANCH   1  24
TORSDOF 9
ENDMDL
MODEL 9
REMARK VINA RESULT:      -8.1      1.632      1.953
REMARK  Name = 
REMARK  9 active torsions:
REMARK  status: ('A' for Active; 'I' for Inactive)
REMARK    1  A    between atoms: C_2  and  C_15
REMARK    2  A    between atoms: N_3  and  C_4
REMARK    3  A    between atoms: C_7  and  O_8
REMARK    4  A    between atoms: O_8  and  C_9
REMARK    5  A    between atoms: C_18  and  N_19
REMARK    6  A    between atoms: C_22  and  O_23
REMARK    7  A    between atoms: C_25  and  C_26
REMARK    8  A    between atoms: C_30  and  C_31
REMARK    9  A    between atoms: C_31  and  O_32
REMARK                            x       y       z     vdW  Elec       q    Type
REMARK                         _______ _______ _______ _____ _____    ______ ____
ROOT
ATOM      1  C   UNL     1       2.260   8.114  18.313  0.00  0.00    +0.000 A 
ATOM      2  C   UNL     1       3.381   8.528  17.631  0.00  0.00    +0.000 A 
ATOM      3  N   UNL     1       4.303   7.674  17.111  0.00  0.00    +0.000 NA
ATOM      4  C   UNL     1       4.141   6.329  17.272  0.00  0.00    +0.000 A 
ATOM      5  C   UNL     1       3.029   5.814  17.991  0.00  0.00    +0.000 A 
ATOM      6  C   UNL     1       2.097   6.744  18.489  0.00  0.00    +0.000 A 
ENDROOT
BRANCH   5   7
ATOM      7  C   UNL     1       2.829   4.392  18.364  0.00  0.00    +0.000 A 
ATOM      8  C   UNL     1       2.756   3.378  17.397  0.00  0.00    +0.000 A 
ATOM      9  C   UNL     1       2.578   2.041  17.760  0.00  0.00    +0.000 A 
ATOM     10  C   UNL     1       2.535   1.686  19.106  0.00  0.00    +0.000 A 
ATOM     11  C   UNL     1       2.607   2.668  20.097  0.00  0.00    +0.000 A 
ATOM     12  C   UNL     1       2.688   4.011  19.709  0.00  0.00    +0.000 A 
BRANCH  11  13
ATOM     13  C   UNL     1       2.716   2.303  21.556  0.00  0.00    +0.000 C 
BRANCH  13  14
ATOM     14  O   UNL     1       1.486   2.504  22.235  0.00  0.00    +0.000 OA
ATOM     15  H   UNL     1       1.059   1.632  22.303  0.00  0.00    +0.000 HD
ENDBRANCH  13  14
ENDBRANCH  11  13
ENDBRANCH   5   7
BRANCH   4  16
ATOM     16  N   UNL     1       5.145   5.506  16.785  0.00  0.00    +0.000 N 
ATOM     17  C   UNL     1       6.321   5.208  17.602  0.00  0.00    +0.000 C 
ATOM     18  C   UNL     1       7.380   4.699  16.607  0.00  0.00    +0.000 C 
ATOM     19  C   UNL     1       6.596   4.401  15.338  0.00  0.00    +0.000 C 
ATOM     20  C   UNL     1       5.508   5.488  15.363  0.00  0.00    +0.000 C 
BRANCH  19  21
ATOM     21  O   UNL     1       6.034   3.088  15.428  0.00  0.00    +0.000 OA
ATOM     22  H   UNL     1       6.414   2.580  14.689  0.00  0.00    +0.000 HD
ENDBRANCH  19  21
ENDBRANCH   4  16
BRANCH   1  24
ATOM     23  O   UNL     1       1.182   8.894  20.195  0.00  0.00    +0.000 OA
ATOM     24  C   UNL     1       1.290   9.010  18.977  0.00  0.00    +0.000 C 
ATOM     25  N   UNL     1       0.534   9.845  18.170  0.00  0.00    +0.000 N 
ATOM     26  H   UNL     1       0.577   9.710  17.169  0.00  0.00    +0.000 HD
BRANCH  25  27
ATOM     27  C   UNL     1      -0.462  10.735  18.643  0.00  0.00    +0.000 A 
ATOM     28  C   UNL     1      -1.822  10.587  18.365  0.00  0.00    +0.000 A 
ATOM     29  C   UNL     1      -2.757  11.512  18.837  0.00  0.00    +0.000 A 
ATOM     30  C   UNL     1      -2.355  12.595  19.614  0.00  0.00    +0.000 A 
ATOM     31  C   UNL     1      -1.000  12.769  19.879  0.00  0.00    +0.000 A 
ATOM     32  C   UNL     1      -0.060  11.830  19.419  0.00  0.00    +0.000 A 
BRANCH  30  33
ATOM     33  O   UNL     1      -3.355  13.446  19.971  0.00  0.00    +0.000 OA
BRANCH  33  34
ATOM     34  C   UNL     1      -3.981  13.294  21.241  0.00  0.00    +0.000 C 
ATOM     35  F   UNL     1      -3.484  12.289  21.989  0.00  0.00    +0.000 F 
ATOM     36  F   UNL     1      -3.854  14.448  21.927  0.00  0.00    +0.000 F 
ATOM     37  F   UNL     1      -5.298  13.060  21.047  0.00  0.00    +0.000 F 
ENDBRANCH  33  34
ENDBRANCH  30  33
ENDBRANCH  25  27
ENDBRANCH   1  24
TORSDOF 9
ENDMDL
