MODEL 1
REMARK VINA RESULT:      -7.9      0.000      0.000
REMARK  Name = 
REMARK  4 active torsions:
REMARK  status: ('A' for Active; 'I' for Inactive)
REMARK    1  A    between atoms: C_2  and  C_3
REMARK    2  A    between atoms: C_4  and  C_5
REMARK    3  A    between atoms: C_15  and  C_17
REMARK    4  A    between atoms: C_18  and  C_19
REMARK                            x       y       z     vdW  Elec       q    Type
REMARK                         _______ _______ _______ _____ _____    ______ ____
ROOT
ATOM      1  O   UNL     1      -0.245   9.741  23.803  0.00  0.00    +0.000 OA
ATOM      2  C   UNL     1      -0.456  10.286  22.724  0.00  0.00    +0.000 C 
ATOM      3  N   UNL     1      -0.129   9.721  21.506  0.00  0.00    +0.000 N 
ATOM      4  C   UNL     1      -0.212  10.372  20.187  0.00  0.00    +0.000 C 
ATOM      5  C   UNL     1       1.132  10.296  19.439  0.00  0.00    +0.000 C 
ATOM      6  N   UNL     1       1.665   8.923  19.417  0.00  0.00    +0.000 N 
ATOM      7  C   UNL     1       2.045   8.373  18.205  0.00  0.00    +0.000 C 
ATOM      8  O   UNL     1       1.946   8.997  17.146  0.00  0.00    +0.000 OA
ATOM      9  C   UNL     1       1.770   8.319  20.756  0.00  0.00    +0.000 C 
ATOM     10  C   UNL     1       0.418   8.362  21.482  0.00  0.00    +0.000 C 
ENDROOT
BRANCH   2  11
ATOM     11  C   UNL     1      -1.126  11.605  22.688  0.00  0.00    +0.000 C 
ATOM     12  C   UNL     1      -2.329  11.763  23.264  0.00  0.00    +0.000 C 
BRANCH  12  13
ATOM     13  C   UNL     1      -3.098  13.011  23.166  0.00  0.00    +0.000 A 
ATOM     14  C   UNL     1      -3.649  13.612  24.307  0.00  0.00    +0.000 A 
ATOM     15  C   UNL     1      -4.357  14.812  24.215  0.00  0.00    +0.000 A 
ATOM     16  C   UNL     1      -4.507  15.436  22.980  0.00  0.00    +0.000 A 
ATOM     17  C   UNL     1      -3.940  14.866  21.842  0.00  0.00    +0.000 A 
ATOM     18  C   UNL     1      -3.233  13.661  21.933  0.00  0.00    +0.000 A 
ENDBRANCH  12  13
ENDBRANCH   2  11
BRANCH   7  19
ATOM     19  C   UNL     1       2.567   6.978  18.190  0.00  0.00    +0.000 C 
ATOM     20  C   UNL     1       1.752   5.948  17.908  0.00  0.00    +0.000 C 
BRANCH  20  21
ATOM     21  C   UNL     1       2.237   4.566  17.927  0.00  0.00    +0.000 A 
ATOM     22  C   UNL     1       3.527   4.269  17.474  0.00  0.00    +0.000 A 
ATOM     23  C   UNL     1       3.989   2.951  17.479  0.00  0.00    +0.000 A 
ATOM     24  C   UNL     1       3.167   1.923  17.941  0.00  0.00    +0.000 A 
ATOM     25  C   UNL     1       1.881   2.212  18.393  0.00  0.00    +0.000 A 
ATOM     26  C   UNL     1       1.415   3.530  18.385  0.00  0.00    +0.000 A 
ENDBRANCH  20  21
ENDBRANCH   7  19
TORSDOF 4
ENDMDL
MODEL 2
REMARK VINA RESULT:      -7.8      0.768     10.437
REMARK  Name = 
REMARK  4 active torsions:
REMARK  status: ('A' for Active; 'I' for Inactive)
REMARK    1  A    between atoms: C_2  and  C_3
REMARK    2  A    between atoms: C_4  and  C_5
REMARK    3  A    between atoms: C_15  and  C_17
REMARK    4  A    between atoms: C_18  and  C_19
REMARK                            x       y       z     vdW  Elec       q    Type
REMARK                         _______ _______ _______ _____ _____    ______ ____
ROOT
ATOM      1  O   UNL     1       2.297   9.186  17.310  0.00  0.00    +0.000 OA
ATOM      2  C   UNL     1       2.114   8.476  18.296  0.00  0.00    +0.000 C 
ATOM      3  N   UNL     1       1.268   8.815  19.334  0.00  0.00    +0.000 N 
ATOM      4  C   UNL     1       1.113   8.094  20.609  0.00  0.00    +0.000 C 
ATOM      5  C   UNL     1       1.319   9.033  21.813  0.00  0.00    +0.000 C 
ATOM      6  N   UNL     1       0.508  10.256  21.693  0.00  0.00    +0.000 N 
ATOM      7  C   UNL     1      -0.300  10.629  22.754  0.00  0.00    +0.000 C 
ATOM      8  O   UNL     1      -0.363   9.965  23.791  0.00  0.00    +0.000 OA
ATOM      9  C   UNL     1       0.718  10.971  20.423  0.00  0.00    +0.000 C 
ATOM     10  C   UNL     1       0.472  10.041  19.226  0.00  0.00    +0.000 C 
ENDROOT
BRANCH   2  11
ATOM     11  C   UNL     1       2.794   7.166  18.391  0.00  0.00    +0.000 C 
ATOM     12  C   UNL     1       2.185   6.058  17.939  0.00  0.00    +0.000 C 
BRANCH  12  13
ATOM     13  C   UNL     1       2.755   4.714  18.107  0.00  0.00    +0.000 A 
ATOM     14  C   UNL     1       3.887   4.503  18.907  0.00  0.00    +0.000 A 
ATOM     15  C   UNL     1       4.411   3.221  19.084  0.00  0.00    +0.000 A 
ATOM     16  C   UNL     1       3.796   2.130  18.478  0.00  0.00    +0.000 A 
ATOM     17  C   UNL     1       2.653   2.320  17.703  0.00  0.00    +0.000 A 
ATOM     18  C   UNL     1       2.130   3.606  17.522  0.00  0.00    +0.000 A 
ENDBRANCH  12  13
ENDBRANCH   2  11
BRANCH   7  19
ATOM     19  C   UNL     1      -1.130  11.859  22.617  0.00  0.00    +0.000 C 
ATOM     20  C   UNL     1      -2.359  11.915  23.154  0.00  0.00    +0.000 C 
BRANCH  20  21
ATOM     21  C   UNL     1      -3.206  13.100  22.996  0.00  0.00    +0.000 A 
ATOM     22  C   UNL     1      -4.278  13.317  23.868  0.00  0.00    +0.000 A 
ATOM     23  C   UNL     1      -5.096  14.439  23.714  0.00  0.00    +0.000 A 
ATOM     24  C   UNL     1      -4.843  15.353  22.691  0.00  0.00    +0.000 A 
ATOM     25  C   UNL     1      -3.777  15.143  21.819  0.00  0.00    +0.000 A 
ATOM     26  C   UNL     1      -2.960  14.017  21.968  0.00  0.00    +0.000 A 
ENDBRANCH  20  21
ENDBRANCH   7  19
TORSDOF 4
ENDMDL
MODEL 3
REMARK VINA RESULT:      -7.6      0.563     10.426
REMARK  Name = 
REMARK  4 active torsions:
REMARK  status: ('A' for Active; 'I' for Inactive)
REMARK    1  A    between atoms: C_2  and  C_3
REMARK    2  A    between atoms: C_4  and  C_5
REMARK    3  A    between atoms: C_15  and  C_17
REMARK    4  A    between atoms: C_18  and  C_19
REMARK                            x       y       z     vdW  Elec       q    Type
REMARK                         _______ _______ _______ _____ _____    ______ ____
ROOT
ATOM      1  O   UNL     1       2.417   9.273  17.385  0.00  0.00    +0.000 OA
ATOM      2  C   UNL     1       2.156   8.526  18.324  0.00  0.00    +0.000 C 
ATOM      3  N   UNL     1       1.294   8.861  19.350  0.00  0.00    +0.000 N 
ATOM      4  C   UNL     1       1.049   8.086  20.578  0.00  0.00    +0.000 C 
ATOM      5  C   UNL     1       1.265   8.947  21.837  0.00  0.00    +0.000 C 
ATOM      6  N   UNL     1       0.533  10.221  21.756  0.00  0.00    +0.000 N 
ATOM      7  C   UNL     1      -0.291  10.587  22.807  0.00  0.00    +0.000 C 
ATOM      8  O   UNL     1      -0.431   9.875  23.804  0.00  0.00    +0.000 OA
ATOM      9  C   UNL     1       0.832  10.987  20.534  0.00  0.00    +0.000 C 
ATOM     10  C   UNL     1       0.576  10.137  19.281  0.00  0.00    +0.000 C 
ENDROOT
BRANCH   2  11
ATOM     11  C   UNL     1       2.755   7.174  18.372  0.00  0.00    +0.000 C 
ATOM     12  C   UNL     1       2.146   6.147  17.757  0.00  0.00    +0.000 C 
BRANCH  12  13
ATOM     13  C   UNL     1       2.625   4.762  17.861  0.00  0.00    +0.000 A 
ATOM     14  C   UNL     1       3.995   4.474  17.946  0.00  0.00    +0.000 A 
ATOM     15  C   UNL     1       4.446   3.159  18.071  0.00  0.00    +0.000 A 
ATOM     16  C   UNL     1       3.529   2.114  18.130  0.00  0.00    +0.000 A 
ATOM     17  C   UNL     1       2.163   2.386  18.075  0.00  0.00    +0.000 A 
ATOM     18  C   UNL     1       1.711   3.705  17.947  0.00  0.00    +0.000 A 
ENDBRANCH  12  13
ENDBRANCH   2  11
BRANCH   7  19
ATOM     19  C   UNL     1      -1.041  11.871  22.708  0.00  0.00    +0.000 C 
ATOM     20  C   UNL     1      -2.318  11.947  23.119  0.00  0.00    +0.000 C 
BRANCH  20  21
ATOM     21  C   UNL     1      -3.085  13.189  22.993  0.00  0.00    +0.000 A 
ATOM     22  C   UNL     1      -3.068  13.905  21.792  0.00  0.00    +0.000 A 
ATOM     23  C   UNL     1      -3.787  15.096  21.672  0.00  0.00    +0.000 A 
ATOM     24  C   UNL     1      -4.531  15.576  22.750  0.00  0.00    +0.000 A 
ATOM     25  C   UNL     1      -4.552  14.868  23.950  0.00  0.00    +0.000 A 
ATOM     26  C   UNL     1      -3.828  13.677  24.074  0.00  0.00    +0.000 A 
ENDBRANCH  20  21
ENDBRANCH   7  19
TORSDOF 4
ENDMDL
MODEL 4
REMARK VINA RESULT:      -7.6      0.707     10.425
REMARK  Name = 
REMARK  4 active torsions:
REMARK  status: ('A' for Active; 'I' for Inactive)
REMARK    1  A    between atoms: C_2  and  C_3
REMARK    2  A    between atoms: C_4  and  C_5
REMARK    3  A    between atoms: C_15  and  C_17
REMARK    4  A    between atoms: C_18  and  C_19
REMARK                            x       y       z     vdW  Elec       q    Type
REMARK                         _______ _______ _______ _____ _____    ______ ____
ROOT
ATOM      1  O   UNL     1       2.278   9.311  17.281  0.00  0.00    +0.000 OA
ATOM      2  C   UNL     1       2.063   8.563  18.231  0.00  0.00    +0.000 C 
ATOM      3  N   UNL     1       1.223   8.884  19.280  0.00  0.00    +0.000 N 
ATOM      4  C   UNL     1       1.033   8.110  20.519  0.00  0.00    +0.000 C 
ATOM      5  C   UNL     1       1.266   8.983  21.766  0.00  0.00    +0.000 C 
ATOM      6  N   UNL     1       0.502  10.240  21.701  0.00  0.00    +0.000 N 
ATOM      7  C   UNL     1      -0.298  10.593  22.774  0.00  0.00    +0.000 C 
ATOM      8  O   UNL     1      -0.393   9.883  23.779  0.00  0.00    +0.000 OA
ATOM      9  C   UNL     1       0.747  11.006  20.467  0.00  0.00    +0.000 C 
ATOM     10  C   UNL     1       0.474  10.143  19.227  0.00  0.00    +0.000 C 
ENDROOT
BRANCH   2  11
ATOM     11  C   UNL     1       2.694   7.226  18.268  0.00  0.00    +0.000 C 
ATOM     12  C   UNL     1       2.058   6.169  17.737  0.00  0.00    +0.000 C 
BRANCH  12  13
ATOM     13  C   UNL     1       2.576   4.797  17.840  0.00  0.00    +0.000 A 
ATOM     14  C   UNL     1       1.738   3.733  18.204  0.00  0.00    +0.000 A 
ATOM     15  C   UNL     1       2.227   2.428  18.276  0.00  0.00    +0.000 A 
ATOM     16  C   UNL     1       3.558   2.167  17.966  0.00  0.00    +0.000 A 
ATOM     17  C   UNL     1       4.396   3.210  17.576  0.00  0.00    +0.000 A 
ATOM     18  C   UNL     1       3.907   4.519  17.506  0.00  0.00    +0.000 A 
ENDBRANCH  12  13
ENDBRANCH   2  11
BRANCH   7  19
ATOM     19  C   UNL     1      -1.081  11.858  22.692  0.00  0.00    +0.000 C 
ATOM     20  C   UNL     1      -2.298  11.944  23.253  0.00  0.00    +0.000 C 
BRANCH  20  21
ATOM     21  C   UNL     1      -3.100  13.166  23.148  0.00  0.00    +0.000 A 
ATOM     22  C   UNL     1      -2.508  14.357  22.718  0.00  0.00    +0.000 A 
ATOM     23  C   UNL     1      -3.265  15.528  22.629  0.00  0.00    +0.000 A 
ATOM     24  C   UNL     1      -4.618  15.513  22.965  0.00  0.00    +0.000 A 
ATOM     25  C   UNL     1      -5.214  14.329  23.396  0.00  0.00    +0.000 A 
ATOM     26  C   UNL     1      -4.457  13.157  23.490  0.00  0.00    +0.000 A 
ENDBRANCH  20  21
ENDBRANCH   7  19
TORSDOF 4
ENDMDL
MODEL 5
REMARK VINA RESULT:      -7.6      0.633      1.049
REMARK  Name = 
REMARK  4 active torsions:
REMARK  status: ('A' for Active; 'I' for Inactive)
REMARK    1  A    between atoms: C_2  and  C_3
REMARK    2  A    between atoms: C_4  and  C_5
REMARK    3  A    between atoms: C_15  and  C_17
REMARK    4  A    between atoms: C_18  and  C_19
REMARK                            x       y       z     vdW  Elec       q    Type
REMARK                         _______ _______ _______ _____ _____    ______ ____
ROOT
ATOM      1  O   UNL     1      -0.703  10.089  23.589  0.00  0.00    +0.000 OA
ATOM      2  C   UNL     1      -0.787  10.591  22.472  0.00  0.00    +0.000 C 
ATOM      3  N   UNL     1      -0.364   9.960  21.318  0.00  0.00    +0.000 N 
ATOM      4  C   UNL     1      -0.293  10.553  19.971  0.00  0.00    +0.000 C 
ATOM      5  C   UNL     1       1.114  10.397  19.364  0.00  0.00    +0.000 C 
ATOM      6  N   UNL     1       1.593   9.008  19.452  0.00  0.00    +0.000 N 
ATOM      7  C   UNL     1       2.069   8.390  18.308  0.00  0.00    +0.000 C 
ATOM      8  O   UNL     1       2.098   8.968  17.219  0.00  0.00    +0.000 OA
ATOM      9  C   UNL     1       1.545   8.462  20.820  0.00  0.00    +0.000 C 
ATOM     10  C   UNL     1       0.131   8.583  21.405  0.00  0.00    +0.000 C 
ENDROOT
BRANCH   2  11
ATOM     11  C   UNL     1      -1.400  11.928  22.315  0.00  0.00    +0.000 C 
ATOM     12  C   UNL     1      -1.899  12.568  23.384  0.00  0.00    +0.000 C 
BRANCH  12  13
ATOM     13  C   UNL     1      -2.621  13.844  23.281  0.00  0.00    +0.000 A 
ATOM     14  C   UNL     1      -2.195  14.847  22.398  0.00  0.00    +0.000 A 
ATOM     15  C   UNL     1      -2.898  16.047  22.283  0.00  0.00    +0.000 A 
ATOM     16  C   UNL     1      -4.049  16.253  23.038  0.00  0.00    +0.000 A 
ATOM     17  C   UNL     1      -4.501  15.254  23.899  0.00  0.00    +0.000 A 
ATOM     18  C   UNL     1      -3.794  14.051  24.017  0.00  0.00    +0.000 A 
ENDBRANCH  12  13
ENDBRANCH   2  11
BRANCH   7  19
ATOM     19  C   UNL     1       2.537   6.979  18.405  0.00  0.00    +0.000 C 
ATOM     20  C   UNL     1       1.812   5.983  17.870  0.00  0.00    +0.000 C 
BRANCH  20  21
ATOM     21  C   UNL     1       2.235   4.585  17.989  0.00  0.00    +0.000 A 
ATOM     22  C   UNL     1       3.500   4.195  17.537  0.00  0.00    +0.000 A 
ATOM     23  C   UNL     1       3.902   2.861  17.636  0.00  0.00    +0.000 A 
ATOM     24  C   UNL     1       3.045   1.911  18.191  0.00  0.00    +0.000 A 
ATOM     25  C   UNL     1       1.784   2.293  18.643  0.00  0.00    +0.000 A 
ATOM     26  C   UNL     1       1.376   3.627  18.540  0.00  0.00    +0.000 A 
ENDBRANCH  20  21
ENDBRANCH   7  19
TORSDOF 4
ENDMDL
MODEL 6
REMARK VINA RESULT:      -7.5      1.533     10.618
REMARK  Name = 
REMARK  4 active torsions:
REMARK  status: ('A' for Active; 'I' for Inactive)
REMARK    1  A    between atoms: C_2  and  C_3
REMARK    2  A    between atoms: C_4  and  C_5
REMARK    3  A    between atoms: C_15  and  C_17
REMARK    4  A    between atoms: C_18  and  C_19
REMARK                            x       y       z     vdW  Elec       q    Type
REMARK                         _______ _______ _______ _____ _____    ______ ____
ROOT
ATOM      1  O   UNL     1       2.136   9.873  17.210  0.00  0.00    +0.000 OA
ATOM      2  C   UNL     1       2.012   9.062  18.124  0.00  0.00    +0.000 C 
ATOM      3  N   UNL     1       1.174   9.253  19.205  0.00  0.00    +0.000 N 
ATOM      4  C   UNL     1       1.085   8.404  20.406  0.00  0.00    +0.000 C 
ATOM      5  C   UNL     1       1.269   9.232  21.692  0.00  0.00    +0.000 C 
ATOM      6  N   UNL     1       0.394  10.415  21.707  0.00  0.00    +0.000 N 
ATOM      7  C   UNL     1      -0.408  10.640  22.813  0.00  0.00    +0.000 C 
ATOM      8  O   UNL     1      -0.413   9.876  23.781  0.00  0.00    +0.000 OA
ATOM      9  C   UNL     1       0.538  11.261  20.510  0.00  0.00    +0.000 C 
ATOM     10  C   UNL     1       0.314  10.439  19.232  0.00  0.00    +0.000 C 
ENDROOT
BRANCH   2  11
ATOM     11  C   UNL     1       2.762   7.788  18.079  0.00  0.00    +0.000 C 
ATOM     12  C   UNL     1       3.766   7.630  17.201  0.00  0.00    +0.000 C 
BRANCH  12  13
ATOM     13  C   UNL     1       4.474   6.354  17.026  0.00  0.00    +0.000 A 
ATOM     14  C   UNL     1       4.335   5.315  17.957  0.00  0.00    +0.000 A 
ATOM     15  C   UNL     1       4.988   4.096  17.774  0.00  0.00    +0.000 A 
ATOM     16  C   UNL     1       5.777   3.893  16.646  0.00  0.00    +0.000 A 
ATOM     17  C   UNL     1       5.903   4.906  15.697  0.00  0.00    +0.000 A 
ATOM     18  C   UNL     1       5.250   6.130  15.881  0.00  0.00    +0.000 A 
ENDBRANCH  12  13
ENDBRANCH   2  11
BRANCH   7  19
ATOM     19  C   UNL     1      -1.303  11.831  22.812  0.00  0.00    +0.000 C 
ATOM     20  C   UNL     1      -2.507  11.779  23.405  0.00  0.00    +0.000 C 
BRANCH  20  21
ATOM     21  C   UNL     1      -3.418  12.927  23.381  0.00  0.00    +0.000 A 
ATOM     22  C   UNL     1      -4.451  12.981  22.439  0.00  0.00    +0.000 A 
ATOM     23  C   UNL     1      -5.314  14.079  22.404  0.00  0.00    +0.000 A 
ATOM     24  C   UNL     1      -5.152  15.126  23.311  0.00  0.00    +0.000 A 
ATOM     25  C   UNL     1      -4.124  15.078  24.251  0.00  0.00    +0.000 A 
ATOM     26  C   UNL     1      -3.256  13.982  24.285  0.00  0.00    +0.000 A 
ENDBRANCH  20  21
ENDBRANCH   7  19
TORSDOF 4
ENDMDL
MODEL 7
REMARK VINA RESULT:      -7.4      1.002      1.003
REMARK  Name = 
REMARK  4 active torsions:
REMARK  status: ('A' for Active; 'I' for Inactive)
REMARK    1  A    between atoms: C_2  and  C_3
REMARK    2  A    between atoms: C_4  and  C_5
REMARK    3  A    between atoms: C_15  and  C_17
REMARK    4  A    between atoms: C_18  and  C_19
REMARK                            x       y       z     vdW  Elec       q    Type
REMARK                         _______ _______ _______ _____ _____    ______ ____
ROOT
ATOM      1  O   UNL     1      -0.802  10.276  23.591  0.00  0.00    +0.000 OA
ATOM      2  C   UNL     1      -0.847  10.751  22.460  0.00  0.00    +0.000 C 
ATOM      3  N   UNL     1      -0.417  10.079  21.332  0.00  0.00    +0.000 N 
ATOM      4  C   UNL     1      -0.300  10.634  19.972  0.00  0.00    +0.000 C 
ATOM      5  C   UNL     1       1.115  10.424  19.401  0.00  0.00    +0.000 C 
ATOM      6  N   UNL     1       1.554   9.025  19.537  0.00  0.00    +0.000 N 
ATOM      7  C   UNL     1       2.037   8.365  18.420  0.00  0.00    +0.000 C 
ATOM      8  O   UNL     1       2.106   8.913  17.317  0.00  0.00    +0.000 OA
ATOM      9  C   UNL     1       1.459   8.517  20.916  0.00  0.00    +0.000 C 
ATOM     10  C   UNL     1       0.037   8.692  21.465  0.00  0.00    +0.000 C 
ENDROOT
BRANCH   2  11
ATOM     11  C   UNL     1      -1.419  12.100  22.254  0.00  0.00    +0.000 C 
ATOM     12  C   UNL     1      -1.383  13.003  23.248  0.00  0.00    +0.000 C 
BRANCH  12  13
ATOM     13  C   UNL     1      -2.032  14.318  23.150  0.00  0.00    +0.000 A 
ATOM     14  C   UNL     1      -2.985  14.727  24.094  0.00  0.00    +0.000 A 
ATOM     15  C   UNL     1      -3.580  15.987  24.012  0.00  0.00    +0.000 A 
ATOM     16  C   UNL     1      -3.215  16.862  22.994  0.00  0.00    +0.000 A 
ATOM     17  C   UNL     1      -2.249  16.481  22.064  0.00  0.00    +0.000 A 
ATOM     18  C   UNL     1      -1.655  15.216  22.144  0.00  0.00    +0.000 A 
ENDBRANCH  12  13
ENDBRANCH   2  11
BRANCH   7  19
ATOM     19  C   UNL     1       2.463   6.944  18.563  0.00  0.00    +0.000 C 
ATOM     20  C   UNL     1       1.977   6.001  17.739  0.00  0.00    +0.000 C 
BRANCH  20  21
ATOM     21  C   UNL     1       2.353   4.593  17.888  0.00  0.00    +0.000 A 
ATOM     22  C   UNL     1       3.641   4.171  17.544  0.00  0.00    +0.000 A 
ATOM     23  C   UNL     1       4.000   2.827  17.673  0.00  0.00    +0.000 A 
ATOM     24  C   UNL     1       3.075   1.899  18.151  0.00  0.00    +0.000 A 
ATOM     25  C   UNL     1       1.790   2.313  18.494  0.00  0.00    +0.000 A 
ATOM     26  C   UNL     1       1.427   3.657  18.361  0.00  0.00    +0.000 A 
ENDBRANCH  20  21
ENDBRANCH   7  19
TORSDOF 4
ENDMDL
MODEL 8
REMARK VINA RESULT:      -7.4      2.185     10.309
REMARK  Name = 
REMARK  4 active torsions:
REMARK  status: ('A' for Active; 'I' for Inactive)
REMARK    1  A    between atoms: C_2  and  C_3
REMARK    2  A    between atoms: C_4  and  C_5
REMARK    3  A    between atoms: C_15  and  C_17
REMARK    4  A    between atoms: C_18  and  C_19
REMARK                            x       y       z     vdW  Elec       q    Type
REMARK                         _______ _______ _______ _____ _____    ______ ____
ROOT
ATOM      1  O   UNL     1       1.822   5.772  20.795  0.00  0.00    +0.000 OA
ATOM      2  C   UNL     1       2.064   6.517  19.849  0.00  0.00    +0.000 C 
ATOM      3  N   UNL     1       1.834   7.878  19.871  0.00  0.00    +0.000 N 
ATOM      4  C   UNL     1       1.956   8.806  18.734  0.00  0.00    +0.000 C 
ATOM      5  C   UNL     1       0.661   9.614  18.528  0.00  0.00    +0.000 C 
ATOM      6  N   UNL     1       0.202  10.234  19.783  0.00  0.00    +0.000 N 
ATOM      7  C   UNL     1      -0.083  11.588  19.795  0.00  0.00    +0.000 C 
ATOM      8  O   UNL     1       0.043  12.290  18.789  0.00  0.00    +0.000 OA
ATOM      9  C   UNL     1       0.054   9.270  20.887  0.00  0.00    +0.000 C 
ATOM     10  C   UNL     1       1.360   8.496  21.113  0.00  0.00    +0.000 C 
ENDROOT
BRANCH   2  11
ATOM     11  C   UNL     1       2.666   5.962  18.617  0.00  0.00    +0.000 C 
ATOM     12  C   UNL     1       3.998   5.811  18.530  0.00  0.00    +0.000 C 
BRANCH  12  13
ATOM     13  C   UNL     1       4.668   5.374  17.296  0.00  0.00    +0.000 A 
ATOM     14  C   UNL     1       4.954   4.020  17.069  0.00  0.00    +0.000 A 
ATOM     15  C   UNL     1       5.567   3.606  15.885  0.00  0.00    +0.000 A 
ATOM     16  C   UNL     1       5.886   4.541  14.905  0.00  0.00    +0.000 A 
ATOM     17  C   UNL     1       5.582   5.887  15.104  0.00  0.00    +0.000 A 
ATOM     18  C   UNL     1       4.970   6.303  16.292  0.00  0.00    +0.000 A 
ENDBRANCH  12  13
ENDBRANCH   2  11
BRANCH   7  19
ATOM     19  C   UNL     1      -0.531  12.209  21.073  0.00  0.00    +0.000 C 
ATOM     20  C   UNL     1      -1.839  12.334  21.348  0.00  0.00    +0.000 C 
BRANCH  20  21
ATOM     21  C   UNL     1      -2.300  12.978  22.581  0.00  0.00    +0.000 A 
ATOM     22  C   UNL     1      -1.543  14.000  23.163  0.00  0.00    +0.000 A 
ATOM     23  C   UNL     1      -1.971  14.607  24.346  0.00  0.00    +0.000 A 
ATOM     24  C   UNL     1      -3.160  14.200  24.950  0.00  0.00    +0.000 A 
ATOM     25  C   UNL     1      -3.918  13.182  24.376  0.00  0.00    +0.000 A 
ATOM     26  C   UNL     1      -3.489  12.569  23.195  0.00  0.00    +0.000 A 
ENDBRANCH  20  21
ENDBRANCH   7  19
TORSDOF 4
ENDMDL
MODEL 9
REMARK VINA RESULT:      -7.3      2.112     10.482
REMARK  Name = 
REMARK  4 active torsions:
REMARK  status: ('A' for Active; 'I' for Inactive)
REMARK    1  A    between atoms: C_2  and  C_3
REMARK    2  A    between atoms: C_4  and  C_5
REMARK    3  A    between atoms: C_15  and  C_17
REMARK    4  A    between atoms: C_18  and  C_19
REMARK                            x       y       z     vdW  Elec       q    Type
REMARK                         _______ _______ _______ _____ _____    ______ ____
ROOT
ATOM      1  O   UNL     1       2.069   6.537  20.351  0.00  0.00    +0.000 OA
ATOM      2  C   UNL     1       2.189   7.304  19.400  0.00  0.00    +0.000 C 
ATOM      3  N   UNL     1       1.686   8.591  19.389  0.00  0.00    +0.000 N 
ATOM      4  C   UNL     1       1.658   9.512  18.240  0.00  0.00    +0.000 C 
ATOM      5  C   UNL     1       0.234  10.036  17.976  0.00  0.00    +0.000 C 
ATOM      6  N   UNL     1      -0.388  10.562  19.203  0.00  0.00    +0.000 N 
ATOM      7  C   UNL     1      -0.943  11.830  19.181  0.00  0.00    +0.000 C 
ATOM      8  O   UNL     1      -0.926  12.532  18.166  0.00  0.00    +0.000 OA
ATOM      9  C   UNL     1      -0.377   9.600  20.318  0.00  0.00    +0.000 C 
ATOM     10  C   UNL     1       1.050   9.112  20.603  0.00  0.00    +0.000 C 
ENDROOT
BRANCH   2  11
ATOM     11  C   UNL     1       2.936   6.871  18.199  0.00  0.00    +0.000 C 
ATOM     12  C   UNL     1       3.667   5.745  18.233  0.00  0.00    +0.000 C 
BRANCH  12  13
ATOM     13  C   UNL     1       4.522   5.320  17.116  0.00  0.00    +0.000 A 
ATOM     14  C   UNL     1       4.829   3.966  16.914  0.00  0.00    +0.000 A 
ATOM     15  C   UNL     1       5.619   3.563  15.837  0.00  0.00    +0.000 A 
ATOM     16  C   UNL     1       6.099   4.508  14.936  0.00  0.00    +0.000 A 
ATOM     17  C   UNL     1       5.779   5.854  15.106  0.00  0.00    +0.000 A 
ATOM     18  C   UNL     1       4.989   6.259  16.188  0.00  0.00    +0.000 A 
ENDBRANCH  12  13
ENDBRANCH   2  11
BRANCH   7  19
ATOM     19  C   UNL     1      -1.554  12.360  20.431  0.00  0.00    +0.000 C 
ATOM     20  C   UNL     1      -2.882  12.546  20.515  0.00  0.00    +0.000 C 
BRANCH  20  21
ATOM     21  C   UNL     1      -3.498  13.103  21.722  0.00  0.00    +0.000 A 
ATOM     22  C   UNL     1      -3.318  12.471  22.957  0.00  0.00    +0.000 A 
ATOM     23  C   UNL     1      -3.914  12.992  24.108  0.00  0.00    +0.000 A 
ATOM     24  C   UNL     1      -4.688  14.149  24.033  0.00  0.00    +0.000 A 
ATOM     25  C   UNL     1      -4.872  14.783  22.806  0.00  0.00    +0.000 A 
ATOM     26  C   UNL     1      -4.281  14.261  21.651  0.00  0.00    +0.000 A 
ENDBRANCH  20  21
ENDBRANCH   7  19
TORSDOF 4
ENDMDL
