MODEL 1
REMARK VINA RESULT:      -8.0      0.000      0.000
REMARK  Name = 
REMARK  8 active torsions:
REMARK  status: ('A' for Active; 'I' for Inactive)
REMARK    1  A    between atoms: C_1  and  O_2
REMARK    2  A    between atoms: O_2  and  C_3
REMARK    3  A    between atoms: C_3  and  C_4
REMARK    4  A    between atoms: C_4  and  N_5
REMARK    5  A    between atoms: N_5  and  C_6
REMARK    6  A    between atoms: C_6  and  C_7
REMARK    7  A    between atoms: C_12  and  C_14
REMARK    8  A    between atoms: C_18  and  C_19
REMARK                            x       y       z     vdW  Elec       q    Type
REMARK                         _______ _______ _______ _____ _____    ______ ____
ROOT
ATOM      1  C   UNL     1       4.509   3.844  17.647  0.00  0.00    +0.000 A 
ATOM      2  C   UNL     1       5.545   4.278  18.485  0.00  0.00    +0.000 A 
ATOM      3  C   UNL     1       6.714   4.788  17.937  0.00  0.00    +0.000 A 
ATOM      4  C   UNL     1       6.841   4.863  16.555  0.00  0.00    +0.000 A 
ATOM      5  C   UNL     1       5.803   4.469  15.679  0.00  0.00    +0.000 A 
ATOM      6  C   UNL     1       4.622   3.974  16.258  0.00  0.00    +0.000 A 
ENDROOT
BRANCH   5   7
ATOM      7  C   UNL     1       6.048   4.442  14.218  0.00  0.00    +0.000 A 
ATOM      8  C   UNL     1       7.254   4.978  13.688  0.00  0.00    +0.000 A 
ATOM      9  C   UNL     1       7.797   4.505  12.495  0.00  0.00    +0.000 A 
ATOM     10  C   UNL     1       7.075   3.539  11.843  0.00  0.00    +0.000 A 
ATOM     11  C   UNL     1       5.764   3.222  12.182  0.00  0.00    +0.000 A 
ATOM     12  C   UNL     1       5.235   3.652  13.381  0.00  0.00    +0.000 A 
ATOM     13  C   UNL     1       5.313   2.143  11.270  0.00  0.00    +0.000 C 
ATOM     14  C   UNL     1       6.687   1.485  11.198  0.00  0.00    +0.000 C 
ATOM     15  O   UNL     1       7.619   2.594  10.994  0.00  0.00    +0.000 OA
ENDBRANCH   5   7
BRANCH   1  17
ATOM     16  N   UNL     1       2.199   4.160  18.590  0.00  0.00    +0.000 N 
ATOM     17  C   UNL     1       3.290   3.335  18.303  0.00  0.00    +0.000 C 
ATOM     18  O   UNL     1       3.273   2.129  18.544  0.00  0.00    +0.000 OA
BRANCH  16  19
ATOM     19  C   UNL     1       1.102   3.532  19.347  0.00  0.00    +0.000 C 
BRANCH  19  20
ATOM     20  C   UNL     1       1.159   3.924  20.819  0.00  0.00    +0.000 C 
BRANCH  20  22
ATOM     21  C   UNL     1       2.594   2.383  21.797  0.00  0.00    +0.000 C 
ATOM     22  O   UNL     1       1.233   2.795  21.680  0.00  0.00    +0.000 OA
ENDBRANCH  20  22
ENDBRANCH  19  20
ENDBRANCH  16  19
BRANCH  16  23
ATOM     23  C   UNL     1       1.974   5.540  18.132  0.00  0.00    +0.000 C 
BRANCH  23  24
ATOM     24  C   UNL     1       2.875   6.660  18.700  0.00  0.00    +0.000 C 
ATOM     25  C   UNL     1       3.294   7.740  17.727  0.00  0.00    +0.000 C 
ATOM     26  C   UNL     1       2.165   8.733  17.768  0.00  0.00    +0.000 C 
ATOM     27  C   UNL     1       1.634   8.597  19.179  0.00  0.00    +0.000 C 
ATOM     28  O   UNL     1       2.111   7.353  19.715  0.00  0.00    +0.000 OA
ENDBRANCH  23  24
ENDBRANCH  16  23
ENDBRANCH   1  17
TORSDOF 7
ENDMDL
MODEL 2
REMARK VINA RESULT:      -7.7      1.067      1.235
REMARK  Name = 
REMARK  8 active torsions:
REMARK  status: ('A' for Active; 'I' for Inactive)
REMARK    1  A    between atoms: C_1  and  O_2
REMARK    2  A    between atoms: O_2  and  C_3
REMARK    3  A    between atoms: C_3  and  C_4
REMARK    4  A    between atoms: C_4  and  N_5
REMARK    5  A    between atoms: N_5  and  C_6
REMARK    6  A    between atoms: C_6  and  C_7
REMARK    7  A    between atoms: C_12  and  C_14
REMARK    8  A    between atoms: C_18  and  C_19
REMARK                            x       y       z     vdW  Elec       q    Type
REMARK                         _______ _______ _______ _____ _____    ______ ____
ROOT
ATOM      1  C   UNL     1       5.442   4.478  18.265  0.00  0.00    +0.000 A 
ATOM      2  C   UNL     1       6.424   5.250  18.900  0.00  0.00    +0.000 A 
ATOM      3  C   UNL     1       7.335   5.974  18.144  0.00  0.00    +0.000 A 
ATOM      4  C   UNL     1       7.259   5.924  16.757  0.00  0.00    +0.000 A 
ATOM      5  C   UNL     1       6.261   5.186  16.082  0.00  0.00    +0.000 A 
ATOM      6  C   UNL     1       5.337   4.476  16.869  0.00  0.00    +0.000 A 
ENDROOT
BRANCH   5   7
ATOM      7  C   UNL     1       6.315   5.058  14.606  0.00  0.00    +0.000 A 
ATOM      8  C   UNL     1       7.511   5.381  13.907  0.00  0.00    +0.000 A 
ATOM      9  C   UNL     1       7.826   4.780  12.690  0.00  0.00    +0.000 A 
ATOM     10  C   UNL     1       6.897   3.906  12.188  0.00  0.00    +0.000 A 
ATOM     11  C   UNL     1       5.607   3.807  12.697  0.00  0.00    +0.000 A 
ATOM     12  C   UNL     1       5.299   4.363  13.920  0.00  0.00    +0.000 A 
ATOM     13  C   UNL     1       4.894   2.769  11.912  0.00  0.00    +0.000 C 
ATOM     14  C   UNL     1       6.139   1.909  11.721  0.00  0.00    +0.000 C 
ATOM     15  O   UNL     1       7.189   2.854  11.341  0.00  0.00    +0.000 OA
ENDBRANCH   5   7
BRANCH   1  17
ATOM     16  N   UNL     1       3.238   4.269  19.458  0.00  0.00    +0.000 N 
ATOM     17  C   UNL     1       4.496   3.755  19.136  0.00  0.00    +0.000 C 
ATOM     18  O   UNL     1       4.865   2.649  19.527  0.00  0.00    +0.000 OA
BRANCH  16  19
ATOM     19  C   UNL     1       2.452   3.485  20.426  0.00  0.00    +0.000 C 
BRANCH  19  20
ATOM     20  C   UNL     1       0.958   3.721  20.238  0.00  0.00    +0.000 C 
BRANCH  20  22
ATOM     21  C   UNL     1       1.325   1.808  18.976  0.00  0.00    +0.000 C 
ATOM     22  O   UNL     1       0.381   2.828  19.294  0.00  0.00    +0.000 OA
ENDBRANCH  20  22
ENDBRANCH  19  20
ENDBRANCH  16  19
BRANCH  16  23
ATOM     23  C   UNL     1       2.567   5.437  18.863  0.00  0.00    +0.000 C 
BRANCH  23  24
ATOM     24  C   UNL     1       3.192   6.834  19.080  0.00  0.00    +0.000 C 
ATOM     25  C   UNL     1       3.341   7.699  17.847  0.00  0.00    +0.000 C 
ATOM     26  C   UNL     1       2.014   8.396  17.723  0.00  0.00    +0.000 C 
ATOM     27  C   UNL     1       1.544   8.506  19.158  0.00  0.00    +0.000 C 
ATOM     28  O   UNL     1       2.301   7.574  19.946  0.00  0.00    +0.000 OA
ENDBRANCH  23  24
ENDBRANCH  16  23
ENDBRANCH   1  17
TORSDOF 7
ENDMDL
MODEL 3
REMARK VINA RESULT:      -7.7      3.441      8.954
REMARK  Name = 
REMARK  8 active torsions:
REMARK  status: ('A' for Active; 'I' for Inactive)
REMARK    1  A    between atoms: C_1  and  O_2
REMARK    2  A    between atoms: O_2  and  C_3
REMARK    3  A    between atoms: C_3  and  C_4
REMARK    4  A    between atoms: C_4  and  N_5
REMARK    5  A    between atoms: N_5  and  C_6
REMARK    6  A    between atoms: C_6  and  C_7
REMARK    7  A    between atoms: C_12  and  C_14
REMARK    8  A    between atoms: C_18  and  C_19
REMARK                            x       y       z     vdW  Elec       q    Type
REMARK                         _______ _______ _______ _____ _____    ______ ____
ROOT
ATOM      1  C   UNL     1       2.630   6.482  19.378  0.00  0.00    +0.000 A 
ATOM      2  C   UNL     1       3.048   7.058  18.171  0.00  0.00    +0.000 A 
ATOM      3  C   UNL     1       2.610   8.328  17.821  0.00  0.00    +0.000 A 
ATOM      4  C   UNL     1       1.759   9.016  18.678  0.00  0.00    +0.000 A 
ATOM      5  C   UNL     1       1.347   8.481  19.920  0.00  0.00    +0.000 A 
ATOM      6  C   UNL     1       1.818   7.202  20.263  0.00  0.00    +0.000 A 
ENDROOT
BRANCH   5   7
ATOM      7  C   UNL     1       0.331   9.199  20.726  0.00  0.00    +0.000 A 
ATOM      8  C   UNL     1       0.183   8.907  22.110  0.00  0.00    +0.000 A 
ATOM      9  C   UNL     1      -0.289   9.862  23.008  0.00  0.00    +0.000 A 
ATOM     10  C   UNL     1      -0.650  11.070  22.472  0.00  0.00    +0.000 A 
ATOM     11  C   UNL     1      -0.797  11.272  21.104  0.00  0.00    +0.000 A 
ATOM     12  C   UNL     1      -0.294  10.352  20.209  0.00  0.00    +0.000 A 
ATOM     13  C   UNL     1      -1.192  12.687  20.899  0.00  0.00    +0.000 C 
ATOM     14  C   UNL     1      -0.356  13.199  22.067  0.00  0.00    +0.000 C 
ATOM     15  O   UNL     1      -0.636  12.268  23.160  0.00  0.00    +0.000 OA
ENDBRANCH   5   7
BRANCH   1  17
ATOM     16  N   UNL     1       4.037   4.467  18.844  0.00  0.00    +0.000 N 
ATOM     17  C   UNL     1       3.155   5.139  19.693  0.00  0.00    +0.000 C 
ATOM     18  O   UNL     1       2.801   4.664  20.771  0.00  0.00    +0.000 OA
BRANCH  16  19
ATOM     19  C   UNL     1       4.384   3.090  19.239  0.00  0.00    +0.000 C 
BRANCH  19  20
ATOM     20  C   UNL     1       3.526   2.075  18.493  0.00  0.00    +0.000 C 
BRANCH  20  22
ATOM     21  C   UNL     1       1.219   2.285  18.648  0.00  0.00    +0.000 C 
ATOM     22  O   UNL     1       2.375   1.687  19.232  0.00  0.00    +0.000 OA
ENDBRANCH  20  22
ENDBRANCH  19  20
ENDBRANCH  16  19
BRANCH  16  23
ATOM     23  C   UNL     1       4.740   5.009  17.670  0.00  0.00    +0.000 C 
BRANCH  23  24
ATOM     24  C   UNL     1       6.248   4.707  17.511  0.00  0.00    +0.000 C 
ATOM     25  C   UNL     1       7.051   5.713  16.715  0.00  0.00    +0.000 C 
ATOM     26  C   UNL     1       7.444   6.755  17.726  0.00  0.00    +0.000 C 
ATOM     27  C   UNL     1       7.537   5.969  19.017  0.00  0.00    +0.000 C 
ATOM     28  O   UNL     1       6.834   4.730  18.834  0.00  0.00    +0.000 OA
ENDBRANCH  23  24
ENDBRANCH  16  23
ENDBRANCH   1  17
TORSDOF 7
ENDMDL
MODEL 4
REMARK VINA RESULT:      -7.7      2.161      7.950
REMARK  Name = 
REMARK  8 active torsions:
REMARK  status: ('A' for Active; 'I' for Inactive)
REMARK    1  A    between atoms: C_1  and  O_2
REMARK    2  A    between atoms: O_2  and  C_3
REMARK    3  A    between atoms: C_3  and  C_4
REMARK    4  A    between atoms: C_4  and  N_5
REMARK    5  A    between atoms: N_5  and  C_6
REMARK    6  A    between atoms: C_6  and  C_7
REMARK    7  A    between atoms: C_12  and  C_14
REMARK    8  A    between atoms: C_18  and  C_19
REMARK                            x       y       z     vdW  Elec       q    Type
REMARK                         _______ _______ _______ _____ _____    ______ ____
ROOT
ATOM      1  C   UNL     1       3.598   4.482  18.352  0.00  0.00    +0.000 A 
ATOM      2  C   UNL     1       3.231   3.752  19.490  0.00  0.00    +0.000 A 
ATOM      3  C   UNL     1       2.506   4.363  20.503  0.00  0.00    +0.000 A 
ATOM      4  C   UNL     1       2.150   5.701  20.374  0.00  0.00    +0.000 A 
ATOM      5  C   UNL     1       2.471   6.459  19.224  0.00  0.00    +0.000 A 
ATOM      6  C   UNL     1       3.189   5.812  18.203  0.00  0.00    +0.000 A 
ENDROOT
BRANCH   5   7
ATOM      7  C   UNL     1       2.187   7.913  19.203  0.00  0.00    +0.000 A 
ATOM      8  C   UNL     1       2.397   8.662  18.012  0.00  0.00    +0.000 A 
ATOM      9  C   UNL     1       1.661   9.814  17.740  0.00  0.00    +0.000 A 
ATOM     10  C   UNL     1       0.771  10.206  18.705  0.00  0.00    +0.000 A 
ATOM     11  C   UNL     1       0.768   9.669  19.988  0.00  0.00    +0.000 A 
ATOM     12  C   UNL     1       1.459   8.506  20.254  0.00  0.00    +0.000 A 
ATOM     13  C   UNL     1      -0.322  10.328  20.747  0.00  0.00    +0.000 C 
ATOM     14  C   UNL     1      -1.238  10.448  19.534  0.00  0.00    +0.000 C 
ATOM     15  O   UNL     1      -0.373  10.943  18.463  0.00  0.00    +0.000 OA
ENDBRANCH   5   7
BRANCH   1  17
ATOM     16  N   UNL     1       5.193   4.413  16.408  0.00  0.00    +0.000 N 
ATOM     17  C   UNL     1       4.348   3.758  17.308  0.00  0.00    +0.000 C 
ATOM     18  O   UNL     1       4.218   2.535  17.305  0.00  0.00    +0.000 OA
BRANCH  16  19
ATOM     19  C   UNL     1       5.784   3.570  15.354  0.00  0.00    +0.000 C 
BRANCH  19  20
ATOM     20  C   UNL     1       5.584   4.195  13.979  0.00  0.00    +0.000 C 
BRANCH  20  22
ATOM     21  C   UNL     1       5.322   3.112  11.943  0.00  0.00    +0.000 C 
ATOM     22  O   UNL     1       6.260   3.480  12.952  0.00  0.00    +0.000 OA
ENDBRANCH  20  22
ENDBRANCH  19  20
ENDBRANCH  16  19
BRANCH  16  23
ATOM     23  C   UNL     1       5.643   5.813  16.457  0.00  0.00    +0.000 C 
BRANCH  23  24
ATOM     24  C   UNL     1       7.135   6.098  16.744  0.00  0.00    +0.000 C 
ATOM     25  C   UNL     1       7.434   6.916  17.982  0.00  0.00    +0.000 C 
ATOM     26  C   UNL     1       7.494   5.901  19.090  0.00  0.00    +0.000 C 
ATOM     27  C   UNL     1       7.982   4.650  18.389  0.00  0.00    +0.000 C 
ATOM     28  O   UNL     1       7.779   4.823  16.978  0.00  0.00    +0.000 OA
ENDBRANCH  23  24
ENDBRANCH  16  23
ENDBRANCH   1  17
TORSDOF 7
ENDMDL
MODEL 5
REMARK VINA RESULT:      -7.5      3.604      8.846
REMARK  Name = 
REMARK  8 active torsions:
REMARK  status: ('A' for Active; 'I' for Inactive)
REMARK    1  A    between atoms: C_1  and  O_2
REMARK    2  A    between atoms: O_2  and  C_3
REMARK    3  A    between atoms: C_3  and  C_4
REMARK    4  A    between atoms: C_4  and  N_5
REMARK    5  A    between atoms: N_5  and  C_6
REMARK    6  A    between atoms: C_6  and  C_7
REMARK    7  A    between atoms: C_12  and  C_14
REMARK    8  A    between atoms: C_18  and  C_19
REMARK                            x       y       z     vdW  Elec       q    Type
REMARK                         _______ _______ _______ _____ _____    ______ ____
ROOT
ATOM      1  C   UNL     1       2.410   6.547  18.661  0.00  0.00    +0.000 A 
ATOM      2  C   UNL     1       3.029   7.346  17.690  0.00  0.00    +0.000 A 
ATOM      3  C   UNL     1       2.817   8.718  17.682  0.00  0.00    +0.000 A 
ATOM      4  C   UNL     1       1.989   9.284  18.645  0.00  0.00    +0.000 A 
ATOM      5  C   UNL     1       1.378   8.515  19.661  0.00  0.00    +0.000 A 
ATOM      6  C   UNL     1       1.622   7.130  19.660  0.00  0.00    +0.000 A 
ENDROOT
BRANCH   5   7
ATOM      7  C   UNL     1       0.397   9.151  20.573  0.00  0.00    +0.000 A 
ATOM      8  C   UNL     1       0.398   8.827  21.957  0.00  0.00    +0.000 A 
ATOM      9  C   UNL     1      -0.050   9.734  22.916  0.00  0.00    +0.000 A 
ATOM     10  C   UNL     1      -0.536  10.925  22.442  0.00  0.00    +0.000 A 
ATOM     11  C   UNL     1      -0.822  11.138  21.098  0.00  0.00    +0.000 A 
ATOM     12  C   UNL     1      -0.346  10.268  20.141  0.00  0.00    +0.000 A 
ATOM     13  C   UNL     1      -1.324  12.528  20.962  0.00  0.00    +0.000 C 
ATOM     14  C   UNL     1      -0.417  13.075  22.060  0.00  0.00    +0.000 C 
ATOM     15  O   UNL     1      -0.534  12.110  23.153  0.00  0.00    +0.000 OA
ENDBRANCH   5   7
BRANCH   1  17
ATOM     16  N   UNL     1       3.996   4.598  18.764  0.00  0.00    +0.000 N 
ATOM     17  C   UNL     1       2.701   5.101  18.619  0.00  0.00    +0.000 C 
ATOM     18  O   UNL     1       1.727   4.361  18.492  0.00  0.00    +0.000 OA
BRANCH  16  19
ATOM     19  C   UNL     1       4.142   3.143  18.587  0.00  0.00    +0.000 C 
BRANCH  19  20
ATOM     20  C   UNL     1       4.200   2.431  19.934  0.00  0.00    +0.000 C 
BRANCH  20  22
ATOM     21  C   UNL     1       2.556   2.815  21.527  0.00  0.00    +0.000 C 
ATOM     22  O   UNL     1       2.916   2.029  20.393  0.00  0.00    +0.000 OA
ENDBRANCH  20  22
ENDBRANCH  19  20
ENDBRANCH  16  19
BRANCH  16  23
ATOM     23  C   UNL     1       5.203   5.332  19.177  0.00  0.00    +0.000 C 
BRANCH  23  24
ATOM     24  C   UNL     1       6.532   5.033  18.448  0.00  0.00    +0.000 C 
ATOM     25  C   UNL     1       6.748   5.745  17.130  0.00  0.00    +0.000 C 
ATOM     26  C   UNL     1       7.347   7.068  17.518  0.00  0.00    +0.000 C 
ATOM     27  C   UNL     1       8.102   6.747  18.791  0.00  0.00    +0.000 C 
ATOM     28  O   UNL     1       7.605   5.499  19.300  0.00  0.00    +0.000 OA
ENDBRANCH  23  24
ENDBRANCH  16  23
ENDBRANCH   1  17
TORSDOF 7
ENDMDL
MODEL 6
REMARK VINA RESULT:      -7.5      3.175      8.334
REMARK  Name = 
REMARK  8 active torsions:
REMARK  status: ('A' for Active; 'I' for Inactive)
REMARK    1  A    between atoms: C_1  and  O_2
REMARK    2  A    between atoms: O_2  and  C_3
REMARK    3  A    between atoms: C_3  and  C_4
REMARK    4  A    between atoms: C_4  and  N_5
REMARK    5  A    between atoms: N_5  and  C_6
REMARK    6  A    between atoms: C_6  and  C_7
REMARK    7  A    between atoms: C_12  and  C_14
REMARK    8  A    between atoms: C_18  and  C_19
REMARK                            x       y       z     vdW  Elec       q    Type
REMARK                         _______ _______ _______ _____ _____    ______ ____
ROOT
ATOM      1  C   UNL     1       3.542   6.743  17.983  0.00  0.00    +0.000 A 
ATOM      2  C   UNL     1       3.233   6.109  19.194  0.00  0.00    +0.000 A 
ATOM      3  C   UNL     1       2.325   6.689  20.069  0.00  0.00    +0.000 A 
ATOM      4  C   UNL     1       1.731   7.899  19.729  0.00  0.00    +0.000 A 
ATOM      5  C   UNL     1       1.990   8.549  18.501  0.00  0.00    +0.000 A 
ATOM      6  C   UNL     1       2.899   7.932  17.622  0.00  0.00    +0.000 A 
ENDROOT
BRANCH   5   7
ATOM      7  C   UNL     1       1.436   9.901  18.255  0.00  0.00    +0.000 A 
ATOM      8  C   UNL     1       0.065  10.169  18.526  0.00  0.00    +0.000 A 
ATOM      9  C   UNL     1      -0.372  11.448  18.863  0.00  0.00    +0.000 A 
ATOM     10  C   UNL     1       0.581  12.433  18.866  0.00  0.00    +0.000 A 
ATOM     11  C   UNL     1       1.847  12.255  18.318  0.00  0.00    +0.000 A 
ATOM     12  C   UNL     1       2.302  10.988  18.021  0.00  0.00    +0.000 A 
ATOM     13  C   UNL     1       2.597  13.521  18.501  0.00  0.00    +0.000 C 
ATOM     14  C   UNL     1       1.943  13.837  19.843  0.00  0.00    +0.000 C 
ATOM     15  O   UNL     1       0.519  13.582  19.631  0.00  0.00    +0.000 OA
ENDBRANCH   5   7
BRANCH   1  17
ATOM     16  N   UNL     1       4.886   4.728  17.303  0.00  0.00    +0.000 N 
ATOM     17  C   UNL     1       4.498   6.054  17.095  0.00  0.00    +0.000 C 
ATOM     18  O   UNL     1       4.902   6.706  16.133  0.00  0.00    +0.000 OA
BRANCH  16  19
ATOM     19  C   UNL     1       5.931   4.216  16.400  0.00  0.00    +0.000 C 
BRANCH  19  20
ATOM     20  C   UNL     1       7.317   4.650  16.865  0.00  0.00    +0.000 C 
BRANCH  20  22
ATOM     21  C   UNL     1       7.806   5.686  18.884  0.00  0.00    +0.000 C 
ATOM     22  O   UNL     1       7.515   4.438  18.257  0.00  0.00    +0.000 OA
ENDBRANCH  20  22
ENDBRANCH  19  20
ENDBRANCH  16  19
BRANCH  16  23
ATOM     23  C   UNL     1       4.298   3.759  18.242  0.00  0.00    +0.000 C 
BRANCH  23  24
ATOM     24  C   UNL     1       3.308   2.708  17.690  0.00  0.00    +0.000 C 
ATOM     25  C   UNL     1       2.827   1.662  18.673  0.00  0.00    +0.000 C 
ATOM     26  C   UNL     1       1.648   2.305  19.349  0.00  0.00    +0.000 C 
ATOM     27  C   UNL     1       1.094   3.224  18.281  0.00  0.00    +0.000 C 
ATOM     28  O   UNL     1       2.112   3.414  17.286  0.00  0.00    +0.000 OA
ENDBRANCH  23  24
ENDBRANCH  16  23
ENDBRANCH   1  17
TORSDOF 7
ENDMDL
MODEL 7
REMARK VINA RESULT:      -7.4      3.085      9.157
REMARK  Name = 
REMARK  8 active torsions:
REMARK  status: ('A' for Active; 'I' for Inactive)
REMARK    1  A    between atoms: C_1  and  O_2
REMARK    2  A    between atoms: O_2  and  C_3
REMARK    3  A    between atoms: C_3  and  C_4
REMARK    4  A    between atoms: C_4  and  N_5
REMARK    5  A    between atoms: N_5  and  C_6
REMARK    6  A    between atoms: C_6  and  C_7
REMARK    7  A    between atoms: C_12  and  C_14
REMARK    8  A    between atoms: C_18  and  C_19
REMARK                            x       y       z     vdW  Elec       q    Type
REMARK                         _______ _______ _______ _____ _____    ______ ____
ROOT
ATOM      1  C   UNL     1       2.286   6.598  19.692  0.00  0.00    +0.000 A 
ATOM      2  C   UNL     1       2.753   7.089  18.465  0.00  0.00    +0.000 A 
ATOM      3  C   UNL     1       2.387   8.359  18.040  0.00  0.00    +0.000 A 
ATOM      4  C   UNL     1       1.558   9.133  18.844  0.00  0.00    +0.000 A 
ATOM      5  C   UNL     1       1.098   8.686  20.105  0.00  0.00    +0.000 A 
ATOM      6  C   UNL     1       1.497   7.404  20.522  0.00  0.00    +0.000 A 
ENDROOT
BRANCH   5   7
ATOM      7  C   UNL     1       0.107   9.496  20.852  0.00  0.00    +0.000 A 
ATOM      8  C   UNL     1      -0.154   9.215  22.222  0.00  0.00    +0.000 A 
ATOM      9  C   UNL     1      -0.589  10.207  23.097  0.00  0.00    +0.000 A 
ATOM     10  C   UNL     1      -0.798  11.447  22.550  0.00  0.00    +0.000 A 
ATOM     11  C   UNL     1      -0.839  11.666  21.178  0.00  0.00    +0.000 A 
ATOM     12  C   UNL     1      -0.371  10.704  20.308  0.00  0.00    +0.000 A 
ATOM     13  C   UNL     1      -1.083  13.113  20.962  0.00  0.00    +0.000 C 
ATOM     14  C   UNL     1      -0.276  13.539  22.184  0.00  0.00    +0.000 C 
ATOM     15  O   UNL     1      -0.712  12.636  23.250  0.00  0.00    +0.000 OA
ENDBRANCH   5   7
BRANCH   1  17
ATOM     16  N   UNL     1       3.817   4.616  19.470  0.00  0.00    +0.000 N 
ATOM     17  C   UNL     1       2.735   5.249  20.085  0.00  0.00    +0.000 C 
ATOM     18  O   UNL     1       2.126   4.732  21.020  0.00  0.00    +0.000 OA
BRANCH  16  19
ATOM     19  C   UNL     1       4.075   3.229  19.894  0.00  0.00    +0.000 C 
BRANCH  19  20
ATOM     20  C   UNL     1       3.324   2.239  19.011  0.00  0.00    +0.000 C 
BRANCH  20  22
ATOM     21  C   UNL     1       1.029   2.311  18.671  0.00  0.00    +0.000 C 
ATOM     22  O   UNL     1       2.061   1.875  19.554  0.00  0.00    +0.000 OA
ENDBRANCH  20  22
ENDBRANCH  19  20
ENDBRANCH  16  19
BRANCH  16  23
ATOM     23  C   UNL     1       4.788   5.206  18.534  0.00  0.00    +0.000 C 
BRANCH  23  24
ATOM     24  C   UNL     1       5.504   4.273  17.531  0.00  0.00    +0.000 C 
ATOM     25  C   UNL     1       4.922   4.219  16.135  0.00  0.00    +0.000 C 
ATOM     26  C   UNL     1       5.576   5.367  15.417  0.00  0.00    +0.000 C 
ATOM     27  C   UNL     1       6.922   5.482  16.100  0.00  0.00    +0.000 C 
ATOM     28  O   UNL     1       6.847   4.782  17.352  0.00  0.00    +0.000 OA
ENDBRANCH  23  24
ENDBRANCH  16  23
ENDBRANCH   1  17
TORSDOF 7
ENDMDL
MODEL 8
REMARK VINA RESULT:      -7.4      2.752      8.440
REMARK  Name = 
REMARK  8 active torsions:
REMARK  status: ('A' for Active; 'I' for Inactive)
REMARK    1  A    between atoms: C_1  and  O_2
REMARK    2  A    between atoms: O_2  and  C_3
REMARK    3  A    between atoms: C_3  and  C_4
REMARK    4  A    between atoms: C_4  and  N_5
REMARK    5  A    between atoms: N_5  and  C_6
REMARK    6  A    between atoms: C_6  and  C_7
REMARK    7  A    between atoms: C_12  and  C_14
REMARK    8  A    between atoms: C_18  and  C_19
REMARK                            x       y       z     vdW  Elec       q    Type
REMARK                         _______ _______ _______ _____ _____    ______ ____
ROOT
ATOM      1  C   UNL     1       3.490   6.553  18.097  0.00  0.00    +0.000 A 
ATOM      2  C   UNL     1       3.320   5.878  19.313  0.00  0.00    +0.000 A 
ATOM      3  C   UNL     1       2.504   6.417  20.298  0.00  0.00    +0.000 A 
ATOM      4  C   UNL     1       1.860   7.626  20.062  0.00  0.00    +0.000 A 
ATOM      5  C   UNL     1       1.978   8.316  18.834  0.00  0.00    +0.000 A 
ATOM      6  C   UNL     1       2.795   7.741  17.845  0.00  0.00    +0.000 A 
ENDROOT
BRANCH   5   7
ATOM      7  C   UNL     1       1.382   9.666  18.692  0.00  0.00    +0.000 A 
ATOM      8  C   UNL     1       0.186   9.993  19.388  0.00  0.00    +0.000 A 
ATOM      9  C   UNL     1      -0.104  11.304  19.758  0.00  0.00    +0.000 A 
ATOM     10  C   UNL     1       0.801  12.257  19.368  0.00  0.00    +0.000 A 
ATOM     11  C   UNL     1       1.806  12.004  18.441  0.00  0.00    +0.000 A 
ATOM     12  C   UNL     1       2.126  10.707  18.101  0.00  0.00    +0.000 A 
ATOM     13  C   UNL     1       2.582  13.257  18.268  0.00  0.00    +0.000 C 
ATOM     14  C   UNL     1       2.422  13.680  19.724  0.00  0.00    +0.000 C 
ATOM     15  O   UNL     1       1.008  13.456  20.024  0.00  0.00    +0.000 OA
ENDBRANCH   5   7
BRANCH   1  17
ATOM     16  N   UNL     1       4.779   4.582  17.214  0.00  0.00    +0.000 N 
ATOM     17  C   UNL     1       4.354   5.907  17.091  0.00  0.00    +0.000 C 
ATOM     18  O   UNL     1       4.643   6.593  16.112  0.00  0.00    +0.000 OA
BRANCH  16  19
ATOM     19  C   UNL     1       5.728   4.114  16.189  0.00  0.00    +0.000 C 
BRANCH  19  20
ATOM     20  C   UNL     1       7.141   4.601  16.489  0.00  0.00    +0.000 C 
BRANCH  20  22
ATOM     21  C   UNL     1       7.136   4.923  14.190  0.00  0.00    +0.000 C 
ATOM     22  O   UNL     1       7.689   5.370  15.426  0.00  0.00    +0.000 OA
ENDBRANCH  20  22
ENDBRANCH  19  20
ENDBRANCH  16  19
BRANCH  16  23
ATOM     23  C   UNL     1       4.308   3.575  18.179  0.00  0.00    +0.000 C 
BRANCH  23  24
ATOM     24  C   UNL     1       3.218   2.577  17.728  0.00  0.00    +0.000 C 
ATOM     25  C   UNL     1       2.598   1.726  18.815  0.00  0.00    +0.000 C 
ATOM     26  C   UNL     1       1.485   2.577  19.361  0.00  0.00    +0.000 C 
ATOM     27  C   UNL     1       1.064   3.406  18.166  0.00  0.00    +0.000 C 
ATOM     28  O   UNL     1       2.119   3.352  17.194  0.00  0.00    +0.000 OA
ENDBRANCH  23  24
ENDBRANCH  16  23
ENDBRANCH   1  17
TORSDOF 7
ENDMDL
MODEL 9
REMARK VINA RESULT:      -7.4      4.687      8.033
REMARK  Name = 
REMARK  8 active torsions:
REMARK  status: ('A' for Active; 'I' for Inactive)
REMARK    1  A    between atoms: C_1  and  O_2
REMARK    2  A    between atoms: O_2  and  C_3
REMARK    3  A    between atoms: C_3  and  C_4
REMARK    4  A    between atoms: C_4  and  N_5
REMARK    5  A    between atoms: N_5  and  C_6
REMARK    6  A    between atoms: C_6  and  C_7
REMARK    7  A    between atoms: C_12  and  C_14
REMARK    8  A    between atoms: C_18  and  C_19
REMARK                            x       y       z     vdW  Elec       q    Type
REMARK                         _______ _______ _______ _____ _____    ______ ____
ROOT
ATOM      1  C   UNL     1       1.258   9.734  19.829  0.00  0.00    +0.000 A 
ATOM      2  C   UNL     1       1.587  10.076  18.511  0.00  0.00    +0.000 A 
ATOM      3  C   UNL     1       2.128   9.121  17.661  0.00  0.00    +0.000 A 
ATOM      4  C   UNL     1       2.336   7.830  18.132  0.00  0.00    +0.000 A 
ATOM      5  C   UNL     1       1.982   7.439  19.444  0.00  0.00    +0.000 A 
ATOM      6  C   UNL     1       1.418   8.419  20.280  0.00  0.00    +0.000 A 
ENDROOT
BRANCH   5   7
ATOM      7  C   UNL     1       2.355   6.091  19.933  0.00  0.00    +0.000 A 
ATOM      8  C   UNL     1       1.464   5.365  20.770  0.00  0.00    +0.000 A 
ATOM      9  C   UNL     1       1.461   3.973  20.794  0.00  0.00    +0.000 A 
ATOM     10  C   UNL     1       2.398   3.352  20.009  0.00  0.00    +0.000 A 
ATOM     11  C   UNL     1       3.460   4.033  19.425  0.00  0.00    +0.000 A 
ATOM     12  C   UNL     1       3.449   5.410  19.361  0.00  0.00    +0.000 A 
ATOM     13  C   UNL     1       4.257   3.047  18.656  0.00  0.00    +0.000 C 
ATOM     14  C   UNL     1       3.040   2.222  18.250  0.00  0.00    +0.000 C 
ATOM     15  O   UNL     1       2.259   2.083  19.479  0.00  0.00    +0.000 OA
ENDBRANCH   5   7
BRANCH   1  17
ATOM     16  N   UNL     1      -0.640  11.252  20.476  0.00  0.00    +0.000 N 
ATOM     17  C   UNL     1       0.666  10.796  20.666  0.00  0.00    +0.000 C 
ATOM     18  O   UNL     1       1.380  11.227  21.570  0.00  0.00    +0.000 OA
BRANCH  16  19
ATOM     19  C   UNL     1      -1.050  12.392  21.314  0.00  0.00    +0.000 C 
BRANCH  19  20
ATOM     20  C   UNL     1      -2.234  12.022  22.200  0.00  0.00    +0.000 C 
BRANCH  20  22
ATOM     21  C   UNL     1      -3.617  12.607  23.970  0.00  0.00    +0.000 C 
ATOM     22  O   UNL     1      -2.413  12.932  23.277  0.00  0.00    +0.000 OA
ENDBRANCH  20  22
ENDBRANCH  19  20
ENDBRANCH  16  19
BRANCH  16  23
ATOM     23  C   UNL     1      -1.682  10.659  19.621  0.00  0.00    +0.000 C 
BRANCH  23  24
ATOM     24  C   UNL     1      -1.893  11.245  18.206  0.00  0.00    +0.000 C 
ATOM     25  C   UNL     1      -1.853  10.257  17.060  0.00  0.00    +0.000 C 
ATOM     26  C   UNL     1      -3.261   9.737  16.972  0.00  0.00    +0.000 C 
ATOM     27  C   UNL     1      -4.094  10.904  17.458  0.00  0.00    +0.000 C 
ATOM     28  O   UNL     1      -3.227  11.804  18.166  0.00  0.00    +0.000 OA
ENDBRANCH  23  24
ENDBRANCH  16  23
ENDBRANCH   1  17
TORSDOF 7
ENDMDL
