MODEL 1
REMARK VINA RESULT:      -8.1      0.000      0.000
REMARK  Name = 
REMARK  7 active torsions:
REMARK  status: ('A' for Active; 'I' for Inactive)
REMARK    1  A    between atoms: C_1  and  N_2
REMARK    2  A    between atoms: N_2  and  C_3
REMARK    3  A    between atoms: N_2  and  C_4
REMARK    4  A    between atoms: C_7  and  C_8
REMARK    5  A    between atoms: C_10  and  C_11
REMARK    6  A    between atoms: N_13  and  N_14
REMARK    7  A    between atoms: C_15  and  C_16
REMARK                            x       y       z     vdW  Elec       q    Type
REMARK                         _______ _______ _______ _____ _____    ______ ____
ROOT
ATOM      1  C   UNL     1       1.072  11.039  19.583  0.00  0.00    +0.000 A 
ATOM      2  N   UNL     1      -0.179  11.156  20.149  0.00  0.00    +0.000 NA
ATOM      3  C   UNL     1      -0.712  12.332  20.518  0.00  0.00    +0.000 A 
ATOM      4  C   UNL     1       0.049  13.442  20.670  0.00  0.00    +0.000 A 
ATOM      5  C   UNL     1       1.018  13.494  19.670  0.00  0.00    +0.000 A 
ATOM      6  C   UNL     1       1.598  12.311  19.152  0.00  0.00    +0.000 A 
ATOM      7  N   UNL     1       2.621  12.812  18.333  0.00  0.00    +0.000 N 
ATOM      8  C   UNL     1       2.574  14.219  18.227  0.00  0.00    +0.000 A 
ATOM      9  C   UNL     1       3.331  15.187  17.529  0.00  0.00    +0.000 A 
ATOM     10  C   UNL     1       2.956  16.550  17.620  0.00  0.00    +0.000 A 
ATOM     11  C   UNL     1       1.839  16.957  18.349  0.00  0.00    +0.000 A 
ATOM     12  C   UNL     1       1.119  16.002  19.050  0.00  0.00    +0.000 A 
ATOM     13  C   UNL     1       1.516  14.642  19.017  0.00  0.00    +0.000 A 
ATOM     14  H   UNL     1       3.277  12.248  17.814  0.00  0.00    +0.000 HD
ENDROOT
BRANCH   1  18
ATOM     15  C   UNL     1       2.514   6.877  18.927  0.00  0.00    +0.000 A 
ATOM     16  C   UNL     1       1.878   7.239  20.138  0.00  0.00    +0.000 A 
ATOM     17  C   UNL     1       1.322   8.551  20.411  0.00  0.00    +0.000 A 
ATOM     18  C   UNL     1       1.363   9.567  19.460  0.00  0.00    +0.000 A 
ATOM     19  C   UNL     1       1.869   9.124  18.202  0.00  0.00    +0.000 A 
ATOM     20  C   UNL     1       2.437   7.849  17.949  0.00  0.00    +0.000 A 
BRANCH  15  22
ATOM     21  C   UNL     1       4.521   5.424  19.208  0.00  0.00    +0.000 C 
ATOM     22  N   UNL     1       3.176   5.673  18.705  0.00  0.00    +0.000 N 
ATOM     23  C   UNL     1       2.607   4.630  17.840  0.00  0.00    +0.000 C 
ENDBRANCH  15  22
ENDBRANCH   1  18
BRANCH   3  24
ATOM     24  C   UNL     1      -2.051  12.576  19.883  0.00  0.00    +0.000 C 
ATOM     25  O   UNL     1      -2.747  13.530  20.213  0.00  0.00    +0.000 OA
ATOM     26  N   UNL     1      -2.326  11.666  18.877  0.00  0.00    +0.000 N 
ATOM     27  H   UNL     1      -1.612  10.972  18.661  0.00  0.00    +0.000 HD
BRANCH  26  28
ATOM     28  N   UNL     1      -3.441  11.800  18.131  0.00  0.00    +0.000 NA
ATOM     29  C   UNL     1      -4.441  11.075  18.496  0.00  0.00    +0.000 C 
BRANCH  29  30
ATOM     30  C   UNL     1      -5.744  11.224  17.750  0.00  0.00    +0.000 C 
ATOM     31  C   UNL     1      -6.908  10.634  18.547  0.00  0.00    +0.000 C 
ATOM     32  C   UNL     1      -7.336  11.506  19.717  0.00  0.00    +0.000 C 
ATOM     33  C   UNL     1      -7.574  12.957  19.303  0.00  0.00    +0.000 C 
ATOM     34  C   UNL     1      -6.366  13.550  18.580  0.00  0.00    +0.000 C 
ATOM     35  C   UNL     1      -5.951  12.694  17.386  0.00  0.00    +0.000 C 
ENDBRANCH  29  30
ENDBRANCH  26  28
ENDBRANCH   3  24
TORSDOF 5
ENDMDL
MODEL 2
REMARK VINA RESULT:      -8.1      2.623      8.167
REMARK  Name = 
REMARK  7 active torsions:
REMARK  status: ('A' for Active; 'I' for Inactive)
REMARK    1  A    between atoms: C_1  and  N_2
REMARK    2  A    between atoms: N_2  and  C_3
REMARK    3  A    between atoms: N_2  and  C_4
REMARK    4  A    between atoms: C_7  and  C_8
REMARK    5  A    between atoms: C_10  and  C_11
REMARK    6  A    between atoms: N_13  and  N_14
REMARK    7  A    between atoms: C_15  and  C_16
REMARK                            x       y       z     vdW  Elec       q    Type
REMARK                         _______ _______ _______ _____ _____    ______ ____
ROOT
ATOM      1  C   UNL     1       0.987  12.312  19.119  0.00  0.00    +0.000 A 
ATOM      2  N   UNL     1       1.535  11.215  19.748  0.00  0.00    +0.000 NA
ATOM      3  C   UNL     1       0.850  10.085  19.987  0.00  0.00    +0.000 A 
ATOM      4  C   UNL     1      -0.503  10.048  19.930  0.00  0.00    +0.000 A 
ATOM      5  C   UNL     1      -0.956  10.828  18.868  0.00  0.00    +0.000 A 
ATOM      6  C   UNL     1      -0.269  12.004  18.480  0.00  0.00    +0.000 A 
ATOM      7  N   UNL     1      -1.139  12.559  17.531  0.00  0.00    +0.000 N 
ATOM      8  C   UNL     1      -2.219  11.701  17.234  0.00  0.00    +0.000 A 
ATOM      9  C   UNL     1      -3.325  11.764  16.357  0.00  0.00    +0.000 A 
ATOM     10  C   UNL     1      -4.210  10.660  16.284  0.00  0.00    +0.000 A 
ATOM     11  C   UNL     1      -3.997   9.499  17.025  0.00  0.00    +0.000 A 
ATOM     12  C   UNL     1      -2.922   9.456  17.901  0.00  0.00    +0.000 A 
ATOM     13  C   UNL     1      -2.062  10.576  18.029  0.00  0.00    +0.000 A 
ATOM     14  H   UNL     1      -0.991  13.434  17.050  0.00  0.00    +0.000 HD
ENDROOT
BRANCH   1  18
ATOM     15  C   UNL     1       4.395  15.126  19.655  0.00  0.00    +0.000 A 
ATOM     16  C   UNL     1       3.712  15.046  18.419  0.00  0.00    +0.000 A 
ATOM     17  C   UNL     1       2.554  14.206  18.176  0.00  0.00    +0.000 A 
ATOM     18  C   UNL     1       2.012  13.412  19.182  0.00  0.00    +0.000 A 
ATOM     19  C   UNL     1       2.626  13.634  20.450  0.00  0.00    +0.000 A 
ATOM     20  C   UNL     1       3.775  14.434  20.677  0.00  0.00    +0.000 A 
BRANCH  15  22
ATOM     21  C   UNL     1       5.818  17.147  19.323  0.00  0.00    +0.000 C 
ATOM     22  N   UNL     1       5.588  15.814  19.862  0.00  0.00    +0.000 N 
ATOM     23  C   UNL     1       6.735  15.180  20.529  0.00  0.00    +0.000 C 
ENDBRANCH  15  22
ENDBRANCH   1  18
BRANCH   3  24
ATOM     24  C   UNL     1       1.530   8.873  19.419  0.00  0.00    +0.000 C 
ATOM     25  O   UNL     1       1.889   8.835  18.247  0.00  0.00    +0.000 OA
ATOM     26  N   UNL     1       1.749   7.900  20.379  0.00  0.00    +0.000 N 
ATOM     27  H   UNL     1       1.464   8.107  21.334  0.00  0.00    +0.000 HD
BRANCH  26  28
ATOM     28  N   UNL     1       2.442   6.786  20.065  0.00  0.00    +0.000 NA
ATOM     29  C   UNL     1       2.056   5.709  20.658  0.00  0.00    +0.000 C 
BRANCH  29  30
ATOM     30  C   UNL     1       2.739   4.411  20.303  0.00  0.00    +0.000 C 
ATOM     31  C   UNL     1       1.971   3.212  20.860  0.00  0.00    +0.000 C 
ATOM     32  C   UNL     1       0.702   2.899  20.080  0.00  0.00    +0.000 C 
ATOM     33  C   UNL     1       0.955   2.799  18.577  0.00  0.00    +0.000 C 
ATOM     34  C   UNL     1       1.651   4.044  18.030  0.00  0.00    +0.000 C 
ATOM     35  C   UNL     1       2.940   4.345  18.789  0.00  0.00    +0.000 C 
ENDBRANCH  29  30
ENDBRANCH  26  28
ENDBRANCH   3  24
TORSDOF 5
ENDMDL
MODEL 3
REMARK VINA RESULT:      -7.9      2.954      4.949
REMARK  Name = 
REMARK  7 active torsions:
REMARK  status: ('A' for Active; 'I' for Inactive)
REMARK    1  A    between atoms: C_1  and  N_2
REMARK    2  A    between atoms: N_2  and  C_3
REMARK    3  A    between atoms: N_2  and  C_4
REMARK    4  A    between atoms: C_7  and  C_8
REMARK    5  A    between atoms: C_10  and  C_11
REMARK    6  A    between atoms: N_13  and  N_14
REMARK    7  A    between atoms: C_15  and  C_16
REMARK                            x       y       z     vdW  Elec       q    Type
REMARK                         _______ _______ _______ _____ _____    ______ ____
ROOT
ATOM      1  C   UNL     1       1.073   9.398  18.648  0.00  0.00    +0.000 A 
ATOM      2  N   UNL     1       1.296  10.098  19.814  0.00  0.00    +0.000 NA
ATOM      3  C   UNL     1       0.578  11.175  20.173  0.00  0.00    +0.000 A 
ATOM      4  C   UNL     1      -0.188  11.850  19.282  0.00  0.00    +0.000 A 
ATOM      5  C   UNL     1      -0.816  10.952  18.422  0.00  0.00    +0.000 A 
ATOM      6  C   UNL     1      -0.183   9.747  18.032  0.00  0.00    +0.000 A 
ATOM      7  N   UNL     1      -1.054   9.255  17.050  0.00  0.00    +0.000 N 
ATOM      8  C   UNL     1      -2.232  10.025  16.951  0.00  0.00    +0.000 A 
ATOM      9  C   UNL     1      -3.406   9.947  16.168  0.00  0.00    +0.000 A 
ATOM     10  C   UNL     1      -4.438  10.895  16.378  0.00  0.00    +0.000 A 
ATOM     11  C   UNL     1      -4.343  11.878  17.362  0.00  0.00    +0.000 A 
ATOM     12  C   UNL     1      -3.176  11.961  18.108  0.00  0.00    +0.000 A 
ATOM     13  C   UNL     1      -2.111  11.057  17.869  0.00  0.00    +0.000 A 
ATOM     14  H   UNL     1      -0.909   8.410  16.517  0.00  0.00    +0.000 HD
ENDROOT
BRANCH   1  18
ATOM     15  C   UNL     1       3.834   5.910  18.455  0.00  0.00    +0.000 A 
ATOM     16  C   UNL     1       3.930   6.960  17.511  0.00  0.00    +0.000 A 
ATOM     17  C   UNL     1       3.115   8.161  17.537  0.00  0.00    +0.000 A 
ATOM     18  C   UNL     1       2.170   8.373  18.536  0.00  0.00    +0.000 A 
ATOM     19  C   UNL     1       2.208   7.373  19.553  0.00  0.00    +0.000 A 
ATOM     20  C   UNL     1       2.986   6.187  19.509  0.00  0.00    +0.000 A 
BRANCH  15  22
ATOM     21  C   UNL     1       5.380   4.374  17.241  0.00  0.00    +0.000 C 
ATOM     22  N   UNL     1       4.504   4.693  18.361  0.00  0.00    +0.000 N 
ATOM     23  C   UNL     1       4.263   3.606  19.322  0.00  0.00    +0.000 C 
ENDBRANCH  15  22
ENDBRANCH   1  18
BRANCH   3  24
ATOM     24  C   UNL     1      -0.037  11.023  21.535  0.00  0.00    +0.000 C 
ATOM     25  O   UNL     1       0.512  10.366  22.412  0.00  0.00    +0.000 OA
ATOM     26  N   UNL     1      -1.205  11.756  21.665  0.00  0.00    +0.000 N 
ATOM     27  H   UNL     1      -1.498  12.321  20.870  0.00  0.00    +0.000 HD
BRANCH  26  28
ATOM     28  N   UNL     1      -1.835  11.817  22.856  0.00  0.00    +0.000 NA
ATOM     29  C   UNL     1      -2.432  12.930  23.109  0.00  0.00    +0.000 C 
BRANCH  29  30
ATOM     30  C   UNL     1      -3.218  13.046  24.392  0.00  0.00    +0.000 C 
ATOM     31  C   UNL     1      -3.422  14.510  24.785  0.00  0.00    +0.000 C 
ATOM     32  C   UNL     1      -4.469  15.216  23.936  0.00  0.00    +0.000 C 
ATOM     33  C   UNL     1      -5.778  14.433  23.857  0.00  0.00    +0.000 C 
ATOM     34  C   UNL     1      -5.556  12.997  23.385  0.00  0.00    +0.000 C 
ATOM     35  C   UNL     1      -4.529  12.273  24.251  0.00  0.00    +0.000 C 
ENDBRANCH  29  30
ENDBRANCH  26  28
ENDBRANCH   3  24
TORSDOF 5
ENDMDL
MODEL 4
REMARK VINA RESULT:      -7.9      2.797      8.020
REMARK  Name = 
REMARK  7 active torsions:
REMARK  status: ('A' for Active; 'I' for Inactive)
REMARK    1  A    between atoms: C_1  and  N_2
REMARK    2  A    between atoms: N_2  and  C_3
REMARK    3  A    between atoms: N_2  and  C_4
REMARK    4  A    between atoms: C_7  and  C_8
REMARK    5  A    between atoms: C_10  and  C_11
REMARK    6  A    between atoms: N_13  and  N_14
REMARK    7  A    between atoms: C_15  and  C_16
REMARK                            x       y       z     vdW  Elec       q    Type
REMARK                         _______ _______ _______ _____ _____    ______ ____
ROOT
ATOM      1  C   UNL     1      -1.162  12.946  21.000  0.00  0.00    +0.000 A 
ATOM      2  N   UNL     1      -1.039  11.588  20.796  0.00  0.00    +0.000 NA
ATOM      3  C   UNL     1      -0.169  11.051  19.926  0.00  0.00    +0.000 A 
ATOM      4  C   UNL     1       0.414  11.792  18.954  0.00  0.00    +0.000 A 
ATOM      5  C   UNL     1       0.741  13.053  19.449  0.00  0.00    +0.000 A 
ATOM      6  C   UNL     1      -0.066  13.686  20.426  0.00  0.00    +0.000 A 
ATOM      7  N   UNL     1       0.500  14.967  20.497  0.00  0.00    +0.000 N 
ATOM      8  C   UNL     1       1.680  15.069  19.730  0.00  0.00    +0.000 A 
ATOM      9  C   UNL     1       2.621  16.096  19.489  0.00  0.00    +0.000 A 
ATOM     10  C   UNL     1       3.749  15.819  18.677  0.00  0.00    +0.000 A 
ATOM     11  C   UNL     1       3.975  14.552  18.142  0.00  0.00    +0.000 A 
ATOM     12  C   UNL     1       3.032  13.558  18.364  0.00  0.00    +0.000 A 
ATOM     13  C   UNL     1       1.869  13.836  19.125  0.00  0.00    +0.000 A 
ATOM     14  H   UNL     1       0.162  15.719  21.079  0.00  0.00    +0.000 HD
ENDROOT
BRANCH   1  18
ATOM     15  C   UNL     1      -5.013  13.503  23.166  0.00  0.00    +0.000 A 
ATOM     16  C   UNL     1      -3.995  12.680  23.702  0.00  0.00    +0.000 A 
ATOM     17  C   UNL     1      -2.689  12.493  23.097  0.00  0.00    +0.000 A 
ATOM     18  C   UNL     1      -2.336  13.147  21.921  0.00  0.00    +0.000 A 
ATOM     19  C   UNL     1      -3.322  14.084  21.494  0.00  0.00    +0.000 A 
ATOM     20  C   UNL     1      -4.608  14.243  22.072  0.00  0.00    +0.000 A 
BRANCH  15  22
ATOM     21  C   UNL     1      -7.160  12.401  23.793  0.00  0.00    +0.000 C 
ATOM     22  N   UNL     1      -6.314  13.579  23.654  0.00  0.00    +0.000 N 
ATOM     23  C   UNL     1      -6.955  14.871  23.937  0.00  0.00    +0.000 C 
ENDBRANCH  15  22
ENDBRANCH   1  18
BRANCH   3  24
ATOM     24  C   UNL     1       0.740  10.046  20.573  0.00  0.00    +0.000 C 
ATOM     25  O   UNL     1       1.062  10.146  21.752  0.00  0.00    +0.000 OA
ATOM     26  N   UNL     1       1.073   9.013  19.713  0.00  0.00    +0.000 N 
ATOM     27  H   UNL     1       0.663   9.025  18.781  0.00  0.00    +0.000 HD
BRANCH  26  28
ATOM     28  N   UNL     1       1.799   7.969  20.162  0.00  0.00    +0.000 NA
ATOM     29  C   UNL     1       2.036   7.047  19.294  0.00  0.00    +0.000 C 
BRANCH  29  30
ATOM     30  C   UNL     1       2.902   5.881  19.704  0.00  0.00    +0.000 C 
ATOM     31  C   UNL     1       2.249   5.076  20.828  0.00  0.00    +0.000 C 
ATOM     32  C   UNL     1       1.095   4.208  20.349  0.00  0.00    +0.000 C 
ATOM     33  C   UNL     1       1.474   3.349  19.144  0.00  0.00    +0.000 C 
ATOM     34  C   UNL     1       2.049   4.187  18.004  0.00  0.00    +0.000 C 
ATOM     35  C   UNL     1       3.227   5.038  18.471  0.00  0.00    +0.000 C 
ENDBRANCH  29  30
ENDBRANCH  26  28
ENDBRANCH   3  24
TORSDOF 5
ENDMDL
MODEL 5
REMARK VINA RESULT:      -7.8      1.103      1.611
REMARK  Name = 
REMARK  7 active torsions:
REMARK  status: ('A' for Active; 'I' for Inactive)
REMARK    1  A    between atoms: C_1  and  N_2
REMARK    2  A    between atoms: N_2  and  C_3
REMARK    3  A    between atoms: N_2  and  C_4
REMARK    4  A    between atoms: C_7  and  C_8
REMARK    5  A    between atoms: C_10  and  C_11
REMARK    6  A    between atoms: N_13  and  N_14
REMARK    7  A    between atoms: C_15  and  C_16
REMARK                            x       y       z     vdW  Elec       q    Type
REMARK                         _______ _______ _______ _____ _____    ______ ____
ROOT
ATOM      1  C   UNL     1       1.149  11.075  19.557  0.00  0.00    +0.000 A 
ATOM      2  N   UNL     1      -0.090  11.189  20.150  0.00  0.00    +0.000 NA
ATOM      3  C   UNL     1      -0.613  12.363  20.539  0.00  0.00    +0.000 A 
ATOM      4  C   UNL     1       0.153  13.471  20.684  0.00  0.00    +0.000 A 
ATOM      5  C   UNL     1       1.100  13.529  19.664  0.00  0.00    +0.000 A 
ATOM      6  C   UNL     1       1.667  12.349  19.125  0.00  0.00    +0.000 A 
ATOM      7  N   UNL     1       2.674  12.855  18.289  0.00  0.00    +0.000 N 
ATOM      8  C   UNL     1       2.627  14.262  18.195  0.00  0.00    +0.000 A 
ATOM      9  C   UNL     1       3.371  15.234  17.488  0.00  0.00    +0.000 A 
ATOM     10  C   UNL     1       3.001  16.597  17.597  0.00  0.00    +0.000 A 
ATOM     11  C   UNL     1       1.900  17.001  18.352  0.00  0.00    +0.000 A 
ATOM     12  C   UNL     1       1.193  16.041  19.062  0.00  0.00    +0.000 A 
ATOM     13  C   UNL     1       1.587  14.681  19.010  0.00  0.00    +0.000 A 
ATOM     14  H   UNL     1       3.318  12.293  17.752  0.00  0.00    +0.000 HD
ENDROOT
BRANCH   1  18
ATOM     15  C   UNL     1       2.572   6.915  18.847  0.00  0.00    +0.000 A 
ATOM     16  C   UNL     1       1.948   7.267  20.067  0.00  0.00    +0.000 A 
ATOM     17  C   UNL     1       1.399   8.578  20.358  0.00  0.00    +0.000 A 
ATOM     18  C   UNL     1       1.434   9.603  19.418  0.00  0.00    +0.000 A 
ATOM     19  C   UNL     1       1.927   9.172  18.150  0.00  0.00    +0.000 A 
ATOM     20  C   UNL     1       2.488   7.897  17.879  0.00  0.00    +0.000 A 
BRANCH  15  22
ATOM     21  C   UNL     1       3.303   4.656  19.608  0.00  0.00    +0.000 C 
ATOM     22  N   UNL     1       3.229   5.712  18.607  0.00  0.00    +0.000 N 
ATOM     23  C   UNL     1       3.999   5.488  17.374  0.00  0.00    +0.000 C 
ENDBRANCH  15  22
ENDBRANCH   1  18
BRANCH   3  24
ATOM     24  C   UNL     1      -1.965  12.615  19.934  0.00  0.00    +0.000 C 
ATOM     25  O   UNL     1      -2.233  12.240  18.798  0.00  0.00    +0.000 OA
ATOM     26  N   UNL     1      -2.830  13.224  20.826  0.00  0.00    +0.000 N 
ATOM     27  H   UNL     1      -2.487  13.406  21.768  0.00  0.00    +0.000 HD
BRANCH  26  28
ATOM     28  N   UNL     1      -4.118  13.432  20.483  0.00  0.00    +0.000 NA
ATOM     29  C   UNL     1      -4.965  12.601  20.986  0.00  0.00    +0.000 C 
BRANCH  29  30
ATOM     30  C   UNL     1      -6.432  12.813  20.703  0.00  0.00    +0.000 C 
ATOM     31  C   UNL     1      -6.635  13.740  19.504  0.00  0.00    +0.000 C 
ATOM     32  C   UNL     1      -6.349  13.066  18.171  0.00  0.00    +0.000 C 
ATOM     33  C   UNL     1      -7.082  11.735  18.023  0.00  0.00    +0.000 C 
ATOM     34  C   UNL     1      -6.798  10.794  19.193  0.00  0.00    +0.000 C 
ATOM     35  C   UNL     1      -7.113  11.455  20.533  0.00  0.00    +0.000 C 
ENDBRANCH  29  30
ENDBRANCH  26  28
ENDBRANCH   3  24
TORSDOF 5
ENDMDL
MODEL 6
REMARK VINA RESULT:      -7.8      2.629      8.070
REMARK  Name = 
REMARK  7 active torsions:
REMARK  status: ('A' for Active; 'I' for Inactive)
REMARK    1  A    between atoms: C_1  and  N_2
REMARK    2  A    between atoms: N_2  and  C_3
REMARK    3  A    between atoms: N_2  and  C_4
REMARK    4  A    between atoms: C_7  and  C_8
REMARK    5  A    between atoms: C_10  and  C_11
REMARK    6  A    between atoms: N_13  and  N_14
REMARK    7  A    between atoms: C_15  and  C_16
REMARK                            x       y       z     vdW  Elec       q    Type
REMARK                         _______ _______ _______ _____ _____    ______ ____
ROOT
ATOM      1  C   UNL     1      -1.707  12.543  20.155  0.00  0.00    +0.000 A 
ATOM      2  N   UNL     1      -1.459  11.202  19.955  0.00  0.00    +0.000 NA
ATOM      3  C   UNL     1      -0.406  10.744  19.259  0.00  0.00    +0.000 A 
ATOM      4  C   UNL     1       0.302  11.548  18.430  0.00  0.00    +0.000 A 
ATOM      5  C   UNL     1       0.446  12.810  19.001  0.00  0.00    +0.000 A 
ATOM      6  C   UNL     1      -0.572  13.364  19.815  0.00  0.00    +0.000 A 
ATOM      7  N   UNL     1      -0.114  14.675  20.016  0.00  0.00    +0.000 N 
ATOM      8  C   UNL     1       1.182  14.871  19.492  0.00  0.00    +0.000 A 
ATOM      9  C   UNL     1       2.083  15.959  19.454  0.00  0.00    +0.000 A 
ATOM     10  C   UNL     1       3.360  15.775  18.869  0.00  0.00    +0.000 A 
ATOM     11  C   UNL     1       3.766  14.540  18.365  0.00  0.00    +0.000 A 
ATOM     12  C   UNL     1       2.864  13.485  18.385  0.00  0.00    +0.000 A 
ATOM     13  C   UNL     1       1.562  13.670  18.913  0.00  0.00    +0.000 A 
ATOM     14  H   UNL     1      -0.605  15.388  20.535  0.00  0.00    +0.000 HD
ENDROOT
BRANCH   1  18
ATOM     15  C   UNL     1      -5.373  13.324  22.558  0.00  0.00    +0.000 A 
ATOM     16  C   UNL     1      -5.454  13.129  21.159  0.00  0.00    +0.000 A 
ATOM     17  C   UNL     1      -4.322  12.807  20.310  0.00  0.00    +0.000 A 
ATOM     18  C   UNL     1      -3.045  12.646  20.837  0.00  0.00    +0.000 A 
ATOM     19  C   UNL     1      -3.026  12.696  22.263  0.00  0.00    +0.000 A 
ATOM     20  C   UNL     1      -4.129  13.038  23.086  0.00  0.00    +0.000 A 
BRANCH  15  22
ATOM     21  C   UNL     1      -6.506  15.153  23.819  0.00  0.00    +0.000 C 
ATOM     22  N   UNL     1      -6.418  13.773  23.361  0.00  0.00    +0.000 N 
ATOM     23  C   UNL     1      -7.425  12.848  23.901  0.00  0.00    +0.000 C 
ENDBRANCH  15  22
ENDBRANCH   1  18
BRANCH   3  24
ATOM     24  C   UNL     1       0.426   9.778  20.051  0.00  0.00    +0.000 C 
ATOM     25  O   UNL     1       0.314   9.691  21.269  0.00  0.00    +0.000 OA
ATOM     26  N   UNL     1       1.229   8.993  19.241  0.00  0.00    +0.000 N 
ATOM     27  H   UNL     1       1.155   9.127  18.234  0.00  0.00    +0.000 HD
BRANCH  26  28
ATOM     28  N   UNL     1       1.967   8.001  19.778  0.00  0.00    +0.000 NA
ATOM     29  C   UNL     1       2.095   6.948  19.046  0.00  0.00    +0.000 C 
BRANCH  29  30
ATOM     30  C   UNL     1       2.965   5.825  19.553  0.00  0.00    +0.000 C 
ATOM     31  C   UNL     1       2.283   5.068  20.694  0.00  0.00    +0.000 C 
ATOM     32  C   UNL     1       1.164   4.153  20.220  0.00  0.00    +0.000 C 
ATOM     33  C   UNL     1       1.605   3.238  19.080  0.00  0.00    +0.000 C 
ATOM     34  C   UNL     1       2.209   4.024  17.918  0.00  0.00    +0.000 C 
ATOM     35  C   UNL     1       3.353   4.921  18.382  0.00  0.00    +0.000 C 
ENDBRANCH  29  30
ENDBRANCH  26  28
ENDBRANCH   3  24
TORSDOF 5
ENDMDL
MODEL 7
REMARK VINA RESULT:      -7.7      0.633      1.098
REMARK  Name = 
REMARK  7 active torsions:
REMARK  status: ('A' for Active; 'I' for Inactive)
REMARK    1  A    between atoms: C_1  and  N_2
REMARK    2  A    between atoms: N_2  and  C_3
REMARK    3  A    between atoms: N_2  and  C_4
REMARK    4  A    between atoms: C_7  and  C_8
REMARK    5  A    between atoms: C_10  and  C_11
REMARK    6  A    between atoms: N_13  and  N_14
REMARK    7  A    between atoms: C_15  and  C_16
REMARK                            x       y       z     vdW  Elec       q    Type
REMARK                         _______ _______ _______ _____ _____    ______ ____
ROOT
ATOM      1  C   UNL     1       1.268  11.178  19.456  0.00  0.00    +0.000 A 
ATOM      2  N   UNL     1       0.082  11.305  20.147  0.00  0.00    +0.000 NA
ATOM      3  C   UNL     1      -0.382  12.481  20.600  0.00  0.00    +0.000 A 
ATOM      4  C   UNL     1       0.419  13.569  20.706  0.00  0.00    +0.000 A 
ATOM      5  C   UNL     1       1.285  13.629  19.617  0.00  0.00    +0.000 A 
ATOM      6  C   UNL     1       1.781  12.450  19.011  0.00  0.00    +0.000 A 
ATOM      7  N   UNL     1       2.730  12.952  18.109  0.00  0.00    +0.000 N 
ATOM      8  C   UNL     1       2.709  14.362  18.047  0.00  0.00    +0.000 A 
ATOM      9  C   UNL     1       3.417  15.333  17.304  0.00  0.00    +0.000 A 
ATOM     10  C   UNL     1       3.088  16.701  17.470  0.00  0.00    +0.000 A 
ATOM     11  C   UNL     1       2.060  17.112  18.317  0.00  0.00    +0.000 A 
ATOM     12  C   UNL     1       1.388  16.152  19.060  0.00  0.00    +0.000 A 
ATOM     13  C   UNL     1       1.745  14.785  18.950  0.00  0.00    +0.000 A 
ATOM     14  H   UNL     1       3.317  12.389  17.511  0.00  0.00    +0.000 HD
ENDROOT
BRANCH   1  18
ATOM     15  C   UNL     1       2.586   7.001  18.650  0.00  0.00    +0.000 A 
ATOM     16  C   UNL     1       1.878   7.320  19.833  0.00  0.00    +0.000 A 
ATOM     17  C   UNL     1       1.357   8.637  20.145  0.00  0.00    +0.000 A 
ATOM     18  C   UNL     1       1.508   9.704  19.265  0.00  0.00    +0.000 A 
ATOM     19  C   UNL     1       2.087   9.313  18.021  0.00  0.00    +0.000 A 
ATOM     20  C   UNL     1       2.620   8.031  17.730  0.00  0.00    +0.000 A 
BRANCH  15  22
ATOM     21  C   UNL     1       2.494   4.632  17.876  0.00  0.00    +0.000 C 
ATOM     22  N   UNL     1       3.214   5.784  18.402  0.00  0.00    +0.000 N 
ATOM     23  C   UNL     1       4.616   5.551  18.781  0.00  0.00    +0.000 C 
ENDBRANCH  15  22
ENDBRANCH   1  18
BRANCH   3  24
ATOM     24  C   UNL     1      -1.770  12.775  20.108  0.00  0.00    +0.000 C 
ATOM     25  O   UNL     1      -2.338  13.824  20.393  0.00  0.00    +0.000 OA
ATOM     26  N   UNL     1      -2.249  11.781  19.273  0.00  0.00    +0.000 N 
ATOM     27  H   UNL     1      -1.629  11.001  19.064  0.00  0.00    +0.000 HD
BRANCH  26  28
ATOM     28  N   UNL     1      -3.441  11.931  18.658  0.00  0.00    +0.000 NA
ATOM     29  C   UNL     1      -4.474  11.809  19.418  0.00  0.00    +0.000 C 
BRANCH  29  30
ATOM     30  C   UNL     1      -5.838  12.034  18.814  0.00  0.00    +0.000 C 
ATOM     31  C   UNL     1      -6.562  10.708  18.576  0.00  0.00    +0.000 C 
ATOM     32  C   UNL     1      -7.096  10.080  19.855  0.00  0.00    +0.000 C 
ATOM     33  C   UNL     1      -7.915  11.063  20.687  0.00  0.00    +0.000 C 
ATOM     34  C   UNL     1      -7.140  12.347  20.981  0.00  0.00    +0.000 C 
ATOM     35  C   UNL     1      -6.628  12.998  19.699  0.00  0.00    +0.000 C 
ENDBRANCH  29  30
ENDBRANCH  26  28
ENDBRANCH   3  24
TORSDOF 5
ENDMDL
MODEL 8
REMARK VINA RESULT:      -7.7      3.159      5.869
REMARK  Name = 
REMARK  7 active torsions:
REMARK  status: ('A' for Active; 'I' for Inactive)
REMARK    1  A    between atoms: C_1  and  N_2
REMARK    2  A    between atoms: N_2  and  C_3
REMARK    3  A    between atoms: N_2  and  C_4
REMARK    4  A    between atoms: C_7  and  C_8
REMARK    5  A    between atoms: C_10  and  C_11
REMARK    6  A    between atoms: N_13  and  N_14
REMARK    7  A    between atoms: C_15  and  C_16
REMARK                            x       y       z     vdW  Elec       q    Type
REMARK                         _______ _______ _______ _____ _____    ______ ____
ROOT
ATOM      1  C   UNL     1       0.267  10.215  19.075  0.00  0.00    +0.000 A 
ATOM      2  N   UNL     1       0.712  11.080  20.052  0.00  0.00    +0.000 NA
ATOM      3  C   UNL     1       0.049  12.194  20.404  0.00  0.00    +0.000 A 
ATOM      4  C   UNL     1      -0.917  12.726  19.618  0.00  0.00    +0.000 A 
ATOM      5  C   UNL     1      -1.683  11.709  19.054  0.00  0.00    +0.000 A 
ATOM      6  C   UNL     1      -1.105  10.463  18.709  0.00  0.00    +0.000 A 
ATOM      7  N   UNL     1      -2.150   9.827  18.023  0.00  0.00    +0.000 N 
ATOM      8  C   UNL     1      -3.350  10.568  18.079  0.00  0.00    +0.000 A 
ATOM      9  C   UNL     1      -4.662  10.369  17.593  0.00  0.00    +0.000 A 
ATOM     10  C   UNL     1      -5.658  11.332  17.889  0.00  0.00    +0.000 A 
ATOM     11  C   UNL     1      -5.388  12.449  18.678  0.00  0.00    +0.000 A 
ATOM     12  C   UNL     1      -4.091  12.647  19.129  0.00  0.00    +0.000 A 
ATOM     13  C   UNL     1      -3.070  11.724  18.792  0.00  0.00    +0.000 A 
ATOM     14  H   UNL     1      -2.093   8.914  17.596  0.00  0.00    +0.000 HD
ENDROOT
BRANCH   1  18
ATOM     15  C   UNL     1       3.018   6.734  18.691  0.00  0.00    +0.000 A 
ATOM     16  C   UNL     1       2.977   7.736  17.694  0.00  0.00    +0.000 A 
ATOM     17  C   UNL     1       2.161   8.933  17.768  0.00  0.00    +0.000 A 
ATOM     18  C   UNL     1       1.351   9.190  18.870  0.00  0.00    +0.000 A 
ATOM     19  C   UNL     1       1.533   8.242  19.921  0.00  0.00    +0.000 A 
ATOM     20  C   UNL     1       2.311   7.059  19.832  0.00  0.00    +0.000 A 
BRANCH  15  22
ATOM     21  C   UNL     1       4.441   5.163  17.377  0.00  0.00    +0.000 C 
ATOM     22  N   UNL     1       3.682   5.516  18.569  0.00  0.00    +0.000 N 
ATOM     23  C   UNL     1       3.550   4.463  19.586  0.00  0.00    +0.000 C 
ENDBRANCH  15  22
ENDBRANCH   1  18
BRANCH   3  24
ATOM     24  C   UNL     1      -0.249  12.240  21.875  0.00  0.00    +0.000 C 
ATOM     25  O   UNL     1      -0.012  11.282  22.603  0.00  0.00    +0.000 OA
ATOM     26  N   UNL     1      -0.727  13.477  22.273  0.00  0.00    +0.000 N 
ATOM     27  H   UNL     1      -0.798  14.205  21.564  0.00  0.00    +0.000 HD
BRANCH  26  28
ATOM     28  N   UNL     1      -0.950  13.727  23.579  0.00  0.00    +0.000 NA
ATOM     29  C   UNL     1      -1.052  14.972  23.894  0.00  0.00    +0.000 C 
BRANCH  29  30
ATOM     30  C   UNL     1      -1.371  15.326  25.326  0.00  0.00    +0.000 C 
ATOM     31  C   UNL     1      -0.914  16.746  25.660  0.00  0.00    +0.000 C 
ATOM     32  C   UNL     1      -1.812  17.820  25.066  0.00  0.00    +0.000 C 
ATOM     33  C   UNL     1      -3.288  17.581  25.379  0.00  0.00    +0.000 C 
ATOM     34  C   UNL     1      -3.742  16.183  24.962  0.00  0.00    +0.000 C 
ATOM     35  C   UNL     1      -2.862  15.100  25.580  0.00  0.00    +0.000 C 
ENDBRANCH  29  30
ENDBRANCH  26  28
ENDBRANCH   3  24
TORSDOF 5
ENDMDL
MODEL 9
REMARK VINA RESULT:      -7.7      1.679      1.986
REMARK  Name = 
REMARK  7 active torsions:
REMARK  status: ('A' for Active; 'I' for Inactive)
REMARK    1  A    between atoms: C_1  and  N_2
REMARK    2  A    between atoms: N_2  and  C_3
REMARK    3  A    between atoms: N_2  and  C_4
REMARK    4  A    between atoms: C_7  and  C_8
REMARK    5  A    between atoms: C_10  and  C_11
REMARK    6  A    between atoms: N_13  and  N_14
REMARK    7  A    between atoms: C_15  and  C_16
REMARK                            x       y       z     vdW  Elec       q    Type
REMARK                         _______ _______ _______ _____ _____    ______ ____
ROOT
ATOM      1  C   UNL     1       0.991  10.963  19.699  0.00  0.00    +0.000 A 
ATOM      2  N   UNL     1      -0.245  11.048  20.302  0.00  0.00    +0.000 NA
ATOM      3  C   UNL     1      -0.786  12.208  20.711  0.00  0.00    +0.000 A 
ATOM      4  C   UNL     1      -0.037  13.327  20.864  0.00  0.00    +0.000 A 
ATOM      5  C   UNL     1       0.901  13.414  19.839  0.00  0.00    +0.000 A 
ATOM      6  C   UNL     1       1.484  12.251  19.280  0.00  0.00    +0.000 A 
ATOM      7  N   UNL     1       2.475  12.786  18.443  0.00  0.00    +0.000 N 
ATOM      8  C   UNL     1       2.404  14.193  18.368  0.00  0.00    +0.000 A 
ATOM      9  C   UNL     1       3.126  15.187  17.669  0.00  0.00    +0.000 A 
ATOM     10  C   UNL     1       2.733  16.542  17.799  0.00  0.00    +0.000 A 
ATOM     11  C   UNL     1       1.632  16.917  18.567  0.00  0.00    +0.000 A 
ATOM     12  C   UNL     1       0.946  15.936  19.269  0.00  0.00    +0.000 A 
ATOM     13  C   UNL     1       1.363  14.583  19.196  0.00  0.00    +0.000 A 
ATOM     14  H   UNL     1       3.125  12.243  17.893  0.00  0.00    +0.000 HD
ENDROOT
BRANCH   1  18
ATOM     15  C   UNL     1       2.484   6.839  18.931  0.00  0.00    +0.000 A 
ATOM     16  C   UNL     1       1.847   7.161  20.153  0.00  0.00    +0.000 A 
ATOM     17  C   UNL     1       1.275   8.458  20.461  0.00  0.00    +0.000 A 
ATOM     18  C   UNL     1       1.301   9.499  19.537  0.00  0.00    +0.000 A 
ATOM     19  C   UNL     1       1.808   9.095  18.267  0.00  0.00    +0.000 A 
ATOM     20  C   UNL     1       2.391   7.835  17.978  0.00  0.00    +0.000 A 
BRANCH  15  22
ATOM     21  C   UNL     1       4.593   5.507  18.909  0.00  0.00    +0.000 C 
ATOM     22  N   UNL     1       3.162   5.649  18.676  0.00  0.00    +0.000 N 
ATOM     23  C   UNL     1       2.495   4.507  18.034  0.00  0.00    +0.000 C 
ENDBRANCH  15  22
ENDBRANCH   1  18
BRANCH   3  24
ATOM     24  C   UNL     1      -2.145  12.444  20.120  0.00  0.00    +0.000 C 
ATOM     25  O   UNL     1      -2.462  11.962  19.038  0.00  0.00    +0.000 OA
ATOM     26  N   UNL     1      -2.962  13.177  20.964  0.00  0.00    +0.000 N 
ATOM     27  H   UNL     1      -2.584  13.444  21.871  0.00  0.00    +0.000 HD
BRANCH  26  28
ATOM     28  N   UNL     1      -4.252  13.394  20.636  0.00  0.00    +0.000 NA
ATOM     29  C   UNL     1      -5.114  12.692  21.286  0.00  0.00    +0.000 C 
BRANCH  29  30
ATOM     30  C   UNL     1      -6.580  12.931  21.022  0.00  0.00    +0.000 C 
ATOM     31  C   UNL     1      -7.451  11.948  21.804  0.00  0.00    +0.000 C 
ATOM     32  C   UNL     1      -7.539  12.276  23.287  0.00  0.00    +0.000 C 
ATOM     33  C   UNL     1      -7.915  13.734  23.539  0.00  0.00    +0.000 C 
ATOM     34  C   UNL     1      -6.981  14.699  22.811  0.00  0.00    +0.000 C 
ATOM     35  C   UNL     1      -6.912  14.394  21.317  0.00  0.00    +0.000 C 
ENDBRANCH  29  30
ENDBRANCH  26  28
ENDBRANCH   3  24
TORSDOF 5
ENDMDL
