MODEL 1
REMARK VINA RESULT:      -7.0      0.000      0.000
REMARK  Name = 
REMARK  3 active torsions:
REMARK  status: ('A' for Active; 'I' for Inactive)
REMARK    1  A    between atoms: C_1  and  C_2
REMARK    2  A    between atoms: C_13  and  O_14
REMARK    3  A    between atoms: C_22  and  C_23
REMARK                            x       y       z     vdW  Elec       q    Type
REMARK                         _______ _______ _______ _____ _____    ______ ____
ROOT
ATOM      1  C   UNL     1      -0.762  15.941  24.390  0.00  0.00    +0.000 C 
ATOM      2  C   UNL     1      -1.134  15.060  23.256  0.00  0.00    +0.000 C 
ATOM      3  C   UNL     1      -2.372  14.692  22.878  0.00  0.00    +0.000 C 
ATOM      4  O   UNL     1      -3.434  15.534  23.322  0.00  0.00    +0.000 OA
ATOM      5  C   UNL     1      -4.657  14.886  23.567  0.00  0.00    +0.000 C 
ATOM      6  C   UNL     1      -5.979  15.573  23.844  0.00  0.00    +0.000 C 
ATOM      7  C   UNL     1      -7.102  14.464  23.853  0.00  0.00    +0.000 C 
ATOM      8  C   UNL     1      -7.656  13.896  22.495  0.00  0.00    +0.000 C 
ATOM      9  C   UNL     1      -7.160  12.532  21.864  0.00  0.00    +0.000 C 
ATOM     10  N   UNL     1      -5.912  12.652  21.154  0.00  0.00    +0.000 N 
ATOM     11  C   UNL     1      -4.745  12.716  21.891  0.00  0.00    +0.000 C 
ATOM     12  O   UNL     1      -4.610  12.275  23.020  0.00  0.00    +0.000 OA
ATOM     13  C   UNL     1      -3.707  13.416  20.927  0.00  0.00    +0.000 C 
ATOM     14  C   UNL     1      -4.078  12.530  19.759  0.00  0.00    +0.000 A 
ATOM     15  C   UNL     1      -3.315  12.018  18.729  0.00  0.00    +0.000 A 
ATOM     16  C   UNL     1      -3.957  11.154  17.842  0.00  0.00    +0.000 A 
ATOM     17  I   UNL     1      -2.818  10.159  16.405  0.00  0.00    +0.000 I 
ATOM     18  C   UNL     1      -5.342  10.881  17.936  0.00  0.00    +0.000 A 
ATOM     19  C   UNL     1      -6.125  11.431  18.961  0.00  0.00    +0.000 A 
ATOM     20  C   UNL     1      -5.473  12.210  19.889  0.00  0.00    +0.000 A 
ATOM     21  C   UNL     1      -2.399  13.576  21.743  0.00  0.00    +0.000 C 
ATOM     22  C   UNL     1      -1.918  12.180  22.250  0.00  0.00    +0.000 C 
ATOM     23  S   UNL     1      -0.916  14.149  20.758  0.00  0.00    +0.000 S 
ATOM     24  C   UNL     1      -0.124  14.618  22.271  0.00  0.00    +0.000 C 
ATOM     25  O   UNL     1       1.080  14.585  22.456  0.00  0.00    +0.000 OA
ENDROOT
BRANCH  13  26
ATOM     26  O   UNL     1      -4.094  14.740  20.486  0.00  0.00    +0.000 OA
ATOM     27  H   UNL     1      -3.874  15.386  21.177  0.00  0.00    +0.000 HD
ENDBRANCH  13  26
TORSDOF 1
ENDMDL
MODEL 2
REMARK VINA RESULT:      -6.9      1.914      2.436
REMARK  Name = 
REMARK  3 active torsions:
REMARK  status: ('A' for Active; 'I' for Inactive)
REMARK    1  A    between atoms: C_1  and  C_2
REMARK    2  A    between atoms: C_13  and  O_14
REMARK    3  A    between atoms: C_22  and  C_23
REMARK                            x       y       z     vdW  Elec       q    Type
REMARK                         _______ _______ _______ _____ _____    ______ ____
ROOT
ATOM      1  C   UNL     1      -3.486  16.376  25.084  0.00  0.00    +0.000 C 
ATOM      2  C   UNL     1      -2.916  15.395  24.129  0.00  0.00    +0.000 C 
ATOM      3  C   UNL     1      -3.507  14.882  23.034  0.00  0.00    +0.000 C 
ATOM      4  O   UNL     1      -4.593  15.637  22.500  0.00  0.00    +0.000 OA
ATOM      5  C   UNL     1      -5.608  14.883  21.885  0.00  0.00    +0.000 C 
ATOM      6  C   UNL     1      -6.754  15.448  21.070  0.00  0.00    +0.000 C 
ATOM      7  C   UNL     1      -7.517  14.232  20.412  0.00  0.00    +0.000 C 
ATOM      8  C   UNL     1      -6.925  13.532  19.136  0.00  0.00    +0.000 C 
ATOM      9  C   UNL     1      -6.088  12.189  19.199  0.00  0.00    +0.000 C 
ATOM     10  N   UNL     1      -4.709  12.393  19.566  0.00  0.00    +0.000 N 
ATOM     11  C   UNL     1      -4.416  12.620  20.897  0.00  0.00    +0.000 C 
ATOM     12  O   UNL     1      -5.110  12.263  21.834  0.00  0.00    +0.000 OA
ATOM     13  C   UNL     1      -3.021  13.362  20.873  0.00  0.00    +0.000 C 
ATOM     14  C   UNL     1      -2.426  12.375  19.894  0.00  0.00    +0.000 A 
ATOM     15  C   UNL     1      -1.143  11.882  19.768  0.00  0.00    +0.000 A 
ATOM     16  C   UNL     1      -0.938  10.905  18.793  0.00  0.00    +0.000 A 
ATOM     17  I   UNL     1       0.912   9.948  18.702  0.00  0.00    +0.000 I 
ATOM     18  C   UNL     1      -1.970  10.500  17.915  0.00  0.00    +0.000 A 
ATOM     19  C   UNL     1      -3.266  11.027  18.019  0.00  0.00    +0.000 A 
ATOM     20  C   UNL     1      -3.490  11.923  19.039  0.00  0.00    +0.000 A 
ATOM     21  C   UNL     1      -2.687  13.703  22.347  0.00  0.00    +0.000 C 
ATOM     22  C   UNL     1      -2.668  12.396  23.201  0.00  0.00    +0.000 C 
ATOM     23  S   UNL     1      -0.961  14.364  22.635  0.00  0.00    +0.000 S 
ATOM     24  C   UNL     1      -1.493  15.000  24.199  0.00  0.00    +0.000 C 
ATOM     25  O   UNL     1      -0.778  15.101  25.181  0.00  0.00    +0.000 OA
ENDROOT
BRANCH  13  26
ATOM     26  O   UNL     1      -3.018  14.611  20.139  0.00  0.00    +0.000 OA
ATOM     27  H   UNL     1      -2.629  15.308  20.692  0.00  0.00    +0.000 HD
ENDBRANCH  13  26
TORSDOF 1
ENDMDL
MODEL 3
REMARK VINA RESULT:      -6.5      4.408      6.885
REMARK  Name = 
REMARK  3 active torsions:
REMARK  status: ('A' for Active; 'I' for Inactive)
REMARK    1  A    between atoms: C_1  and  C_2
REMARK    2  A    between atoms: C_13  and  O_14
REMARK    3  A    between atoms: C_22  and  C_23
REMARK                            x       y       z     vdW  Elec       q    Type
REMARK                         _______ _______ _______ _____ _____    ______ ____
ROOT
ATOM      1  C   UNL     1       3.676  15.716  17.145  0.00  0.00    +0.000 C 
ATOM      2  C   UNL     1       2.713  15.606  18.269  0.00  0.00    +0.000 C 
ATOM      3  C   UNL     1       2.126  14.488  18.735  0.00  0.00    +0.000 C 
ATOM      4  O   UNL     1       2.782  13.262  18.421  0.00  0.00    +0.000 OA
ATOM      5  C   UNL     1       1.938  12.150  18.255  0.00  0.00    +0.000 C 
ATOM      6  C   UNL     1       2.392  10.710  18.122  0.00  0.00    +0.000 C 
ATOM      7  C   UNL     1       1.105   9.798  18.163  0.00  0.00    +0.000 C 
ATOM      8  C   UNL     1       0.413   9.477  19.538  0.00  0.00    +0.000 C 
ATOM      9  C   UNL     1      -0.861  10.254  20.065  0.00  0.00    +0.000 C 
ATOM     10  N   UNL     1      -0.545  11.523  20.670  0.00  0.00    +0.000 N 
ATOM     11  C   UNL     1      -0.258  12.589  19.839  0.00  0.00    +0.000 C 
ATOM     12  O   UNL     1      -0.639  12.693  18.685  0.00  0.00    +0.000 OA
ATOM     13  C   UNL     1       0.585  13.577  20.738  0.00  0.00    +0.000 C 
ATOM     14  C   UNL     1      -0.383  13.471  21.895  0.00  0.00    +0.000 A 
ATOM     15  C   UNL     1      -0.782  14.402  22.833  0.00  0.00    +0.000 A 
ATOM     16  C   UNL     1      -1.768  14.002  23.735  0.00  0.00    +0.000 A 
ATOM     17  I   UNL     1      -2.588  15.421  25.025  0.00  0.00    +0.000 I 
ATOM     18  C   UNL     1      -2.275  12.681  23.749  0.00  0.00    +0.000 A 
ATOM     19  C   UNL     1      -1.843  11.724  22.819  0.00  0.00    +0.000 A 
ATOM     20  C   UNL     1      -0.937  12.145  21.872  0.00  0.00    +0.000 A 
ATOM     21  C   UNL     1       0.992  14.757  19.820  0.00  0.00    +0.000 C 
ATOM     22  C   UNL     1      -0.285  15.421  19.215  0.00  0.00    +0.000 C 
ATOM     23  S   UNL     1       1.788  16.205  20.698  0.00  0.00    +0.000 S 
ATOM     24  C   UNL     1       2.428  16.762  19.144  0.00  0.00    +0.000 C 
ATOM     25  O   UNL     1       2.610  17.932  18.854  0.00  0.00    +0.000 OA
ENDROOT
BRANCH  13  26
ATOM     26  O   UNL     1       1.809  13.011  21.267  0.00  0.00    +0.000 OA
ATOM     27  H   UNL     1       2.308  13.703  21.732  0.00  0.00    +0.000 HD
ENDBRANCH  13  26
TORSDOF 1
ENDMDL
MODEL 4
REMARK VINA RESULT:      -6.4      3.794      5.500
REMARK  Name = 
REMARK  3 active torsions:
REMARK  status: ('A' for Active; 'I' for Inactive)
REMARK    1  A    between atoms: C_1  and  C_2
REMARK    2  A    between atoms: C_13  and  O_14
REMARK    3  A    between atoms: C_22  and  C_23
REMARK                            x       y       z     vdW  Elec       q    Type
REMARK                         _______ _______ _______ _____ _____    ______ ____
ROOT
ATOM      1  C   UNL     1       1.041   9.023  20.033  0.00  0.00    +0.000 C 
ATOM      2  C   UNL     1       0.839  10.426  19.596  0.00  0.00    +0.000 C 
ATOM      3  C   UNL     1       0.069  11.361  20.183  0.00  0.00    +0.000 C 
ATOM      4  O   UNL     1      -0.248  11.137  21.555  0.00  0.00    +0.000 OA
ATOM      5  C   UNL     1      -1.501  11.618  21.973  0.00  0.00    +0.000 C 
ATOM      6  C   UNL     1      -1.984  11.689  23.408  0.00  0.00    +0.000 C 
ATOM      7  C   UNL     1      -3.350  12.481  23.413  0.00  0.00    +0.000 C 
ATOM      8  C   UNL     1      -3.348  14.050  23.312  0.00  0.00    +0.000 C 
ATOM      9  C   UNL     1      -3.600  14.827  21.956  0.00  0.00    +0.000 C 
ATOM     10  N   UNL     1      -2.432  14.903  21.116  0.00  0.00    +0.000 N 
ATOM     11  C   UNL     1      -2.077  13.783  20.390  0.00  0.00    +0.000 C 
ATOM     12  O   UNL     1      -2.846  12.897  20.056  0.00  0.00    +0.000 OA
ATOM     13  C   UNL     1      -0.538  13.977  20.091  0.00  0.00    +0.000 C 
ATOM     14  C   UNL     1      -0.725  15.410  19.648  0.00  0.00    +0.000 A 
ATOM     15  C   UNL     1      -0.080  16.154  18.682  0.00  0.00    +0.000 A 
ATOM     16  C   UNL     1      -0.556  17.449  18.463  0.00  0.00    +0.000 A 
ATOM     17  I   UNL     1       0.211  18.545  16.864  0.00  0.00    +0.000 I 
ATOM     18  C   UNL     1      -1.590  18.006  19.251  0.00  0.00    +0.000 A 
ATOM     19  C   UNL     1      -2.222  17.262  20.258  0.00  0.00    +0.000 A 
ATOM     20  C   UNL     1      -1.814  15.956  20.412  0.00  0.00    +0.000 A 
ATOM     21  C   UNL     1      -0.079  12.702  19.338  0.00  0.00    +0.000 C 
ATOM     22  C   UNL     1      -0.934  12.516  18.044  0.00  0.00    +0.000 C 
ATOM     23  S   UNL     1       1.653  12.778  18.635  0.00  0.00    +0.000 S 
ATOM     24  C   UNL     1       1.651  11.011  18.509  0.00  0.00    +0.000 C 
ATOM     25  O   UNL     1       2.245  10.382  17.651  0.00  0.00    +0.000 OA
ENDROOT
BRANCH  13  26
ATOM     26  O   UNL     1       0.294  14.092  21.271  0.00  0.00    +0.000 OA
ATOM     27  H   UNL     1       1.023  14.709  21.091  0.00  0.00    +0.000 HD
ENDBRANCH  13  26
TORSDOF 1
ENDMDL
MODEL 5
REMARK VINA RESULT:      -6.2      2.349      3.320
REMARK  Name = 
REMARK  3 active torsions:
REMARK  status: ('A' for Active; 'I' for Inactive)
REMARK    1  A    between atoms: C_1  and  C_2
REMARK    2  A    between atoms: C_13  and  O_14
REMARK    3  A    between atoms: C_22  and  C_23
REMARK                            x       y       z     vdW  Elec       q    Type
REMARK                         _______ _______ _______ _____ _____    ______ ____
ROOT
ATOM      1  C   UNL     1      -5.284  16.556  24.543  0.00  0.00    +0.000 C 
ATOM      2  C   UNL     1      -4.459  15.523  23.868  0.00  0.00    +0.000 C 
ATOM      3  C   UNL     1      -4.655  14.990  22.648  0.00  0.00    +0.000 C 
ATOM      4  O   UNL     1      -5.455  15.759  21.752  0.00  0.00    +0.000 OA
ATOM      5  C   UNL     1      -6.224  15.017  20.840  0.00  0.00    +0.000 C 
ATOM      6  C   UNL     1      -6.990  15.589  19.664  0.00  0.00    +0.000 C 
ATOM      7  C   UNL     1      -7.529  14.376  18.809  0.00  0.00    +0.000 C 
ATOM      8  C   UNL     1      -6.561  13.610  17.835  0.00  0.00    +0.000 C 
ATOM      9  C   UNL     1      -5.857  12.244  18.217  0.00  0.00    +0.000 C 
ATOM     10  N   UNL     1      -4.684  12.416  19.036  0.00  0.00    +0.000 N 
ATOM     11  C   UNL     1      -4.861  12.682  20.380  0.00  0.00    +0.000 C 
ATOM     12  O   UNL     1      -5.852  12.382  21.025  0.00  0.00    +0.000 OA
ATOM     13  C   UNL     1      -3.515  13.377  20.827  0.00  0.00    +0.000 C 
ATOM     14  C   UNL     1      -2.659  12.337  20.140  0.00  0.00    +0.000 A 
ATOM     15  C   UNL     1      -1.435  11.798  20.480  0.00  0.00    +0.000 A 
ATOM     16  C   UNL     1      -0.946  10.780  19.659  0.00  0.00    +0.000 A 
ATOM     17  I   UNL     1       0.778   9.761  20.241  0.00  0.00    +0.000 I 
ATOM     18  C   UNL     1      -1.626  10.377  18.487  0.00  0.00    +0.000 A 
ATOM     19  C   UNL     1      -2.853  10.950  18.121  0.00  0.00    +0.000 A 
ATOM     20  C   UNL     1      -3.378  11.889  18.978  0.00  0.00    +0.000 A 
ATOM     21  C   UNL     1      -3.699  13.760  22.317  0.00  0.00    +0.000 C 
ATOM     22  C   UNL     1      -4.034  12.485  23.154  0.00  0.00    +0.000 C 
ATOM     23  S   UNL     1      -2.153  14.375  23.173  0.00  0.00    +0.000 S 
ATOM     24  C   UNL     1      -3.168  15.085  24.439  0.00  0.00    +0.000 C 
ATOM     25  O   UNL     1      -2.835  15.198  25.606  0.00  0.00    +0.000 OA
ENDROOT
BRANCH  13  26
ATOM     26  O   UNL     1      -3.203  14.598  20.112  0.00  0.00    +0.000 OA
ATOM     27  H   UNL     1      -2.258  14.606  19.887  0.00  0.00    +0.000 HD
ENDBRANCH  13  26
TORSDOF 1
ENDMDL
MODEL 6
REMARK VINA RESULT:      -6.2      3.082      4.379
REMARK  Name = 
REMARK  3 active torsions:
REMARK  status: ('A' for Active; 'I' for Inactive)
REMARK    1  A    between atoms: C_1  and  C_2
REMARK    2  A    between atoms: C_13  and  O_14
REMARK    3  A    between atoms: C_22  and  C_23
REMARK                            x       y       z     vdW  Elec       q    Type
REMARK                         _______ _______ _______ _____ _____    ______ ____
ROOT
ATOM      1  C   UNL     1      -0.491   9.441  22.762  0.00  0.00    +0.000 C 
ATOM      2  C   UNL     1      -0.536  10.717  22.007  0.00  0.00    +0.000 C 
ATOM      3  C   UNL     1      -1.421  11.721  22.151  0.00  0.00    +0.000 C 
ATOM      4  O   UNL     1      -2.114  11.768  23.396  0.00  0.00    +0.000 OA
ATOM      5  C   UNL     1      -3.424  12.275  23.340  0.00  0.00    +0.000 C 
ATOM      6  C   UNL     1      -4.288  12.617  24.537  0.00  0.00    +0.000 C 
ATOM      7  C   UNL     1      -5.585  13.339  23.999  0.00  0.00    +0.000 C 
ATOM      8  C   UNL     1      -5.524  14.854  23.581  0.00  0.00    +0.000 C 
ATOM      9  C   UNL     1      -5.371  15.328  22.079  0.00  0.00    +0.000 C 
ATOM     10  N   UNL     1      -4.012  15.278  21.600  0.00  0.00    +0.000 N 
ATOM     11  C   UNL     1      -3.490  14.048  21.248  0.00  0.00    +0.000 C 
ATOM     12  O   UNL     1      -4.153  13.083  20.904  0.00  0.00    +0.000 OA
ATOM     13  C   UNL     1      -1.926  14.238  21.356  0.00  0.00    +0.000 C 
ATOM     14  C   UNL     1      -1.954  15.543  20.593  0.00  0.00    +0.000 A 
ATOM     15  C   UNL     1      -1.049  16.100  19.712  0.00  0.00    +0.000 A 
ATOM     16  C   UNL     1      -1.419  17.303  19.108  0.00  0.00    +0.000 A 
ATOM     17  I   UNL     1      -0.213  18.080  17.595  0.00  0.00    +0.000 I 
ATOM     18  C   UNL     1      -2.621  17.967  19.445  0.00  0.00    +0.000 A 
ATOM     19  C   UNL     1      -3.524  17.419  20.368  0.00  0.00    +0.000 A 
ATOM     20  C   UNL     1      -3.202  16.189  20.895  0.00  0.00    +0.000 A 
ATOM     21  C   UNL     1      -1.300  12.856  21.040  0.00  0.00    +0.000 C 
ATOM     22  C   UNL     1      -1.761  12.377  19.627  0.00  0.00    +0.000 C 
ATOM     23  S   UNL     1       0.561  12.855  20.847  0.00  0.00    +0.000 S 
ATOM     24  C   UNL     1       0.560  11.101  21.092  0.00  0.00    +0.000 C 
ATOM     25  O   UNL     1       1.358  10.334  20.582  0.00  0.00    +0.000 OA
ENDROOT
BRANCH  13  26
ATOM     26  O   UNL     1      -1.456  14.623  22.671  0.00  0.00    +0.000 OA
ATOM     27  H   UNL     1      -2.210  14.920  23.207  0.00  0.00    +0.000 HD
ENDBRANCH  13  26
TORSDOF 1
ENDMDL
MODEL 7
REMARK VINA RESULT:      -5.9      3.365      5.854
REMARK  Name = 
REMARK  3 active torsions:
REMARK  status: ('A' for Active; 'I' for Inactive)
REMARK    1  A    between atoms: C_1  and  C_2
REMARK    2  A    between atoms: C_13  and  O_14
REMARK    3  A    between atoms: C_22  and  C_23
REMARK                            x       y       z     vdW  Elec       q    Type
REMARK                         _______ _______ _______ _____ _____    ______ ____
ROOT
ATOM      1  C   UNL     1      -3.579  14.812  24.753  0.00  0.00    +0.000 C 
ATOM      2  C   UNL     1      -2.807  14.071  23.725  0.00  0.00    +0.000 C 
ATOM      3  C   UNL     1      -1.822  14.547  22.943  0.00  0.00    +0.000 C 
ATOM      4  O   UNL     1      -1.169  15.726  23.410  0.00  0.00    +0.000 OA
ATOM      5  C   UNL     1      -0.699  16.594  22.409  0.00  0.00    +0.000 C 
ATOM      6  C   UNL     1       0.198  17.795  22.634  0.00  0.00    +0.000 C 
ATOM      7  C   UNL     1       0.630  18.340  21.217  0.00  0.00    +0.000 C 
ATOM      8  C   UNL     1       1.767  17.614  20.410  0.00  0.00    +0.000 C 
ATOM      9  C   UNL     1       1.473  16.578  19.250  0.00  0.00    +0.000 C 
ATOM     10  N   UNL     1       1.153  15.258  19.731  0.00  0.00    +0.000 N 
ATOM     11  C   UNL     1      -0.116  15.035  20.229  0.00  0.00    +0.000 C 
ATOM     12  O   UNL     1      -1.104  15.687  19.933  0.00  0.00    +0.000 OA
ATOM     13  C   UNL     1       0.043  13.776  21.169  0.00  0.00    +0.000 C 
ATOM     14  C   UNL     1       0.837  13.009  20.135  0.00  0.00    +0.000 A 
ATOM     15  C   UNL     1       0.879  11.661  19.839  0.00  0.00    +0.000 A 
ATOM     16  C   UNL     1       1.670  11.281  18.754  0.00  0.00    +0.000 A 
ATOM     17  I   UNL     1       1.600   9.301  18.103  0.00  0.00    +0.000 I 
ATOM     18  C   UNL     1       2.459  12.215  18.043  0.00  0.00    +0.000 A 
ATOM     19  C   UNL     1       2.444  13.580  18.367  0.00  0.00    +0.000 A 
ATOM     20  C   UNL     1       1.595  13.967  19.378  0.00  0.00    +0.000 A 
ATOM     21  C   UNL     1      -1.348  13.535  21.809  0.00  0.00    +0.000 C 
ATOM     22  C   UNL     1      -2.417  13.330  20.689  0.00  0.00    +0.000 C 
ATOM     23  S   UNL     1      -1.509  11.942  22.776  0.00  0.00    +0.000 S 
ATOM     24  C   UNL     1      -2.940  12.606  23.581  0.00  0.00    +0.000 C 
ATOM     25  O   UNL     1      -3.886  11.939  23.963  0.00  0.00    +0.000 OA
ENDROOT
BRANCH  13  26
ATOM     26  O   UNL     1       0.984  13.952  22.256  0.00  0.00    +0.000 OA
ATOM     27  H   UNL     1       0.748  14.750  22.758  0.00  0.00    +0.000 HD
ENDBRANCH  13  26
TORSDOF 1
ENDMDL
MODEL 8
REMARK VINA RESULT:      -5.8      2.028      2.905
REMARK  Name = 
REMARK  3 active torsions:
REMARK  status: ('A' for Active; 'I' for Inactive)
REMARK    1  A    between atoms: C_1  and  C_2
REMARK    2  A    between atoms: C_13  and  O_14
REMARK    3  A    between atoms: C_22  and  C_23
REMARK                            x       y       z     vdW  Elec       q    Type
REMARK                         _______ _______ _______ _____ _____    ______ ____
ROOT
ATOM      1  C   UNL     1       2.878  15.132  21.980  0.00  0.00    +0.000 C 
ATOM      2  C   UNL     1       1.955  14.378  21.096  0.00  0.00    +0.000 C 
ATOM      3  C   UNL     1       0.631  14.201  21.258  0.00  0.00    +0.000 C 
ATOM      4  O   UNL     1      -0.026  15.147  22.098  0.00  0.00    +0.000 OA
ATOM      5  C   UNL     1      -1.125  14.652  22.822  0.00  0.00    +0.000 C 
ATOM      6  C   UNL     1      -2.107  15.490  23.616  0.00  0.00    +0.000 C 
ATOM      7  C   UNL     1      -3.278  14.540  24.082  0.00  0.00    +0.000 C 
ATOM      8  C   UNL     1      -4.410  14.134  23.070  0.00  0.00    +0.000 C 
ATOM      9  C   UNL     1      -4.416  12.757  22.289  0.00  0.00    +0.000 C 
ATOM     10  N   UNL     1      -3.559  12.754  21.130  0.00  0.00    +0.000 N 
ATOM     11  C   UNL     1      -2.198  12.619  21.326  0.00  0.00    +0.000 C 
ATOM     12  O   UNL     1      -1.683  12.096  22.300  0.00  0.00    +0.000 OA
ATOM     13  C   UNL     1      -1.549  13.232  20.023  0.00  0.00    +0.000 C 
ATOM     14  C   UNL     1      -2.486  12.476  19.107  0.00  0.00    +0.000 A 
ATOM     15  C   UNL     1      -2.288  11.931  17.855  0.00  0.00    +0.000 A 
ATOM     16  C   UNL     1      -3.353  11.214  17.307  0.00  0.00    +0.000 A 
ATOM     17  I   UNL     1      -3.050  10.167  15.529  0.00  0.00    +0.000 I 
ATOM     18  C   UNL     1      -4.604  11.122  17.959  0.00  0.00    +0.000 A 
ATOM     19  C   UNL     1      -4.817  11.707  19.216  0.00  0.00    +0.000 A 
ATOM     20  C   UNL     1      -3.739  12.336  19.797  0.00  0.00    +0.000 A 
ATOM     21  C   UNL     1      -0.015  13.169  20.232  0.00  0.00    +0.000 C 
ATOM     22  C   UNL     1       0.422  11.693  20.496  0.00  0.00    +0.000 C 
ATOM     23  S   UNL     1       1.008  13.600  18.727  0.00  0.00    +0.000 S 
ATOM     24  C   UNL     1       2.404  13.867  19.784  0.00  0.00    +0.000 C 
ATOM     25  O   UNL     1       3.561  13.664  19.460  0.00  0.00    +0.000 OA
ENDROOT
BRANCH  13  26
ATOM     26  O   UNL     1      -1.886  14.621  19.780  0.00  0.00    +0.000 OA
ATOM     27  H   UNL     1      -1.069  15.129  19.641  0.00  0.00    +0.000 HD
ENDBRANCH  13  26
TORSDOF 1
ENDMDL
MODEL 9
REMARK VINA RESULT:      -5.8      3.909      5.555
REMARK  Name = 
REMARK  3 active torsions:
REMARK  status: ('A' for Active; 'I' for Inactive)
REMARK    1  A    between atoms: C_1  and  C_2
REMARK    2  A    between atoms: C_13  and  O_14
REMARK    3  A    between atoms: C_22  and  C_23
REMARK                            x       y       z     vdW  Elec       q    Type
REMARK                         _______ _______ _______ _____ _____    ______ ____
ROOT
ATOM      1  C   UNL     1       2.968  17.075  17.129  0.00  0.00    +0.000 C 
ATOM      2  C   UNL     1       2.464  16.017  18.040  0.00  0.00    +0.000 C 
ATOM      3  C   UNL     1       1.284  15.991  18.687  0.00  0.00    +0.000 C 
ATOM      4  O   UNL     1       0.256  16.816  18.144  0.00  0.00    +0.000 OA
ATOM      5  C   UNL     1      -0.650  17.346  19.079  0.00  0.00    +0.000 C 
ATOM      6  C   UNL     1      -1.936  18.075  18.743  0.00  0.00    +0.000 C 
ATOM      7  C   UNL     1      -2.722  18.303  20.093  0.00  0.00    +0.000 C 
ATOM      8  C   UNL     1      -3.534  17.121  20.738  0.00  0.00    +0.000 C 
ATOM      9  C   UNL     1      -2.971  16.231  21.920  0.00  0.00    +0.000 C 
ATOM     10  N   UNL     1      -2.070  15.197  21.478  0.00  0.00    +0.000 N 
ATOM     11  C   UNL     1      -0.776  15.555  21.152  0.00  0.00    +0.000 C 
ATOM     12  O   UNL     1      -0.197  16.540  21.581  0.00  0.00    +0.000 OA
ATOM     13  C   UNL     1      -0.277  14.405  20.192  0.00  0.00    +0.000 C 
ATOM     14  C   UNL     1      -0.790  13.314  21.106  0.00  0.00    +0.000 A 
ATOM     15  C   UNL     1      -0.296  12.056  21.385  0.00  0.00    +0.000 A 
ATOM     16  C   UNL     1      -0.976  11.315  22.353  0.00  0.00    +0.000 A 
ATOM     17  I   UNL     1      -0.156   9.509  22.996  0.00  0.00    +0.000 I 
ATOM     18  C   UNL     1      -2.163  11.790  22.958  0.00  0.00    +0.000 A 
ATOM     19  C   UNL     1      -2.685  13.054  22.648  0.00  0.00    +0.000 A 
ATOM     20  C   UNL     1      -1.965  13.821  21.761  0.00  0.00    +0.000 A 
ATOM     21  C   UNL     1       1.150  14.805  19.742  0.00  0.00    +0.000 C 
ATOM     22  C   UNL     1       2.065  14.996  20.993  0.00  0.00    +0.000 C 
ATOM     23  S   UNL     1       2.081  13.487  18.795  0.00  0.00    +0.000 S 
ATOM     24  C   UNL     1       3.184  14.735  18.192  0.00  0.00    +0.000 C 
ATOM     25  O   UNL     1       4.360  14.548  17.936  0.00  0.00    +0.000 OA
ENDROOT
BRANCH  13  26
ATOM     26  O   UNL     1      -1.069  14.240  18.990  0.00  0.00    +0.000 OA
ATOM     27  H   UNL     1      -0.839  14.938  18.356  0.00  0.00    +0.000 HD
ENDBRANCH  13  26
TORSDOF 1
ENDMDL
