MODEL 1
REMARK VINA RESULT:      -5.1      0.000      0.000
REMARK  Name = 
REMARK  16 active torsions:
REMARK  status: ('A' for Active; 'I' for Inactive)
REMARK    1  A    between atoms: C_1  and  C_2
REMARK    2  A    between atoms: C_2  and  C_3
REMARK    3  A    between atoms: C_3  and  C_4
REMARK    4  A    between atoms: C_4  and  C_5
REMARK    5  A    between atoms: C_5  and  C_6
REMARK    6  A    between atoms: C_6  and  C_7
REMARK    7  A    between atoms: C_7  and  C_8
REMARK    8  A    between atoms: C_8  and  C_9
REMARK    9  A    between atoms: C_9  and  C_10
REMARK   10  A    between atoms: C_10  and  C_11
REMARK   11  A    between atoms: C_11  and  C_12
REMARK   12  A    between atoms: C_12  and  C_13
REMARK   13  A    between atoms: C_13  and  C_14
REMARK   14  A    between atoms: C_14  and  C_15
REMARK   15  A    between atoms: C_15  and  C_16
REMARK   16  A    between atoms: C_16  and  O_17
REMARK                            x       y       z     vdW  Elec       q    Type
REMARK                         _______ _______ _______ _____ _____    ______ ____
ROOT
ATOM      1  C   UNL     1       2.335   6.870  20.092  0.00  0.00    +0.000 C 
ENDROOT
BRANCH   1   2
ATOM      2  C   UNL     1       1.409   5.891  20.782  0.00  0.00    +0.000 C 
BRANCH   2   3
ATOM      3  C   UNL     1       2.162   4.619  21.125  0.00  0.00    +0.000 C 
BRANCH   3   4
ATOM      4  C   UNL     1       1.251   3.421  20.938  0.00  0.00    +0.000 C 
BRANCH   4   5
ATOM      5  C   UNL     1       0.687   3.405  19.527  0.00  0.00    +0.000 C 
BRANCH   5   6
ATOM      6  C   UNL     1       1.273   2.242  18.747  0.00  0.00    +0.000 C 
BRANCH   6   7
ATOM      7  C   UNL     1       2.111   2.754  17.586  0.00  0.00    +0.000 C 
BRANCH   7   8
ATOM      8  C   UNL     1       3.581   2.421  17.804  0.00  0.00    +0.000 C 
BRANCH   8  10
ATOM      9  C   UNL     1       4.633   2.099  20.058  0.00  0.00    +0.000 C 
ATOM     10  C   UNL     1       3.755   1.477  18.995  0.00  0.00    +0.000 C 
ENDBRANCH   8  10
ENDBRANCH   7   8
ENDBRANCH   6   7
ENDBRANCH   5   6
ENDBRANCH   4   5
ENDBRANCH   3   4
ENDBRANCH   2   3
ENDBRANCH   1   2
BRANCH   1  11
ATOM     11  C   UNL     1       3.407   6.121  19.319  0.00  0.00    +0.000 C 
BRANCH  11  12
ATOM     12  C   UNL     1       3.180   6.338  17.837  0.00  0.00    +0.000 C 
BRANCH  12  13
ATOM     13  C   UNL     1       4.351   5.820  17.017  0.00  0.00    +0.000 C 
BRANCH  13  14
ATOM     14  C   UNL     1       5.628   6.458  17.550  0.00  0.00    +0.000 C 
BRANCH  14  15
ATOM     15  C   UNL     1       6.757   5.484  17.676  0.00  0.00    +0.000 C 
ATOM     16  C   UNL     1       7.701   5.664  18.848  0.00  0.00    +0.000 C 
ATOM     17  O   UNL     1       6.694   4.647  18.840  0.00  0.00    +0.000 OA
BRANCH  15  18
ATOM     18  C   UNL     1       7.172   4.736  16.434  0.00  0.00    +0.000 C 
BRANCH  18  19
ATOM     19  O   UNL     1       6.369   3.572  16.270  0.00  0.00    +0.000 OA
ATOM     20  H   UNL     1       6.590   3.180  15.410  0.00  0.00    +0.000 HD
ENDBRANCH  18  19
ENDBRANCH  15  18
ENDBRANCH  14  15
ENDBRANCH  13  14
ENDBRANCH  12  13
ENDBRANCH  11  12
ENDBRANCH   1  11
TORSDOF 15
ENDMDL
MODEL 2
REMARK VINA RESULT:      -4.9      2.200      5.676
REMARK  Name = 
REMARK  16 active torsions:
REMARK  status: ('A' for Active; 'I' for Inactive)
REMARK    1  A    between atoms: C_1  and  C_2
REMARK    2  A    between atoms: C_2  and  C_3
REMARK    3  A    between atoms: C_3  and  C_4
REMARK    4  A    between atoms: C_4  and  C_5
REMARK    5  A    between atoms: C_5  and  C_6
REMARK    6  A    between atoms: C_6  and  C_7
REMARK    7  A    between atoms: C_7  and  C_8
REMARK    8  A    between atoms: C_8  and  C_9
REMARK    9  A    between atoms: C_9  and  C_10
REMARK   10  A    between atoms: C_10  and  C_11
REMARK   11  A    between atoms: C_11  and  C_12
REMARK   12  A    between atoms: C_12  and  C_13
REMARK   13  A    between atoms: C_13  and  C_14
REMARK   14  A    between atoms: C_14  and  C_15
REMARK   15  A    between atoms: C_15  and  C_16
REMARK   16  A    between atoms: C_16  and  O_17
REMARK                            x       y       z     vdW  Elec       q    Type
REMARK                         _______ _______ _______ _____ _____    ______ ____
ROOT
ATOM      1  C   UNL     1       4.397   5.199  19.497  0.00  0.00    +0.000 C 
ENDROOT
BRANCH   1   2
ATOM      2  C   UNL     1       4.843   4.113  18.541  0.00  0.00    +0.000 C 
BRANCH   2   3
ATOM      3  C   UNL     1       4.166   4.299  17.195  0.00  0.00    +0.000 C 
BRANCH   3   4
ATOM      4  C   UNL     1       4.994   3.634  16.112  0.00  0.00    +0.000 C 
BRANCH   4   5
ATOM      5  C   UNL     1       5.461   4.666  15.099  0.00  0.00    +0.000 C 
BRANCH   5   6
ATOM      6  C   UNL     1       6.977   4.746  15.100  0.00  0.00    +0.000 C 
BRANCH   6   7
ATOM      7  C   UNL     1       7.488   5.064  16.498  0.00  0.00    +0.000 C 
BRANCH   7   8
ATOM      8  C   UNL     1       7.261   6.535  16.824  0.00  0.00    +0.000 C 
BRANCH   8  10
ATOM      9  C   UNL     1       8.042   5.582  19.008  0.00  0.00    +0.000 C 
ATOM     10  C   UNL     1       7.483   6.803  18.313  0.00  0.00    +0.000 C 
ENDBRANCH   8  10
ENDBRANCH   7   8
ENDBRANCH   6   7
ENDBRANCH   5   6
ENDBRANCH   4   5
ENDBRANCH   3   4
ENDBRANCH   2   3
ENDBRANCH   1   2
BRANCH   1  11
ATOM     11  C   UNL     1       3.528   6.212  18.773  0.00  0.00    +0.000 C 
BRANCH  11  12
ATOM     12  C   UNL     1       2.342   6.553  19.652  0.00  0.00    +0.000 C 
BRANCH  12  13
ATOM     13  C   UNL     1       2.066   5.449  20.660  0.00  0.00    +0.000 C 
BRANCH  13  14
ATOM     14  C   UNL     1       0.931   4.584  20.125  0.00  0.00    +0.000 C 
BRANCH  14  15
ATOM     15  C   UNL     1       1.180   3.119  20.305  0.00  0.00    +0.000 C 
ATOM     16  C   UNL     1       0.700   2.194  19.206  0.00  0.00    +0.000 C 
ATOM     17  O   UNL     1       2.081   2.546  19.346  0.00  0.00    +0.000 OA
BRANCH  15  18
ATOM     18  C   UNL     1       1.420   2.622  21.708  0.00  0.00    +0.000 C 
BRANCH  18  19
ATOM     19  O   UNL     1       2.816   2.473  21.945  0.00  0.00    +0.000 OA
ATOM     20  H   UNL     1       3.185   1.946  21.218  0.00  0.00    +0.000 HD
ENDBRANCH  18  19
ENDBRANCH  15  18
ENDBRANCH  14  15
ENDBRANCH  13  14
ENDBRANCH  12  13
ENDBRANCH  11  12
ENDBRANCH   1  11
TORSDOF 15
ENDMDL
MODEL 3
REMARK VINA RESULT:      -4.9      3.970      6.733
REMARK  Name = 
REMARK  16 active torsions:
REMARK  status: ('A' for Active; 'I' for Inactive)
REMARK    1  A    between atoms: C_1  and  C_2
REMARK    2  A    between atoms: C_2  and  C_3
REMARK    3  A    between atoms: C_3  and  C_4
REMARK    4  A    between atoms: C_4  and  C_5
REMARK    5  A    between atoms: C_5  and  C_6
REMARK    6  A    between atoms: C_6  and  C_7
REMARK    7  A    between atoms: C_7  and  C_8
REMARK    8  A    between atoms: C_8  and  C_9
REMARK    9  A    between atoms: C_9  and  C_10
REMARK   10  A    between atoms: C_10  and  C_11
REMARK   11  A    between atoms: C_11  and  C_12
REMARK   12  A    between atoms: C_12  and  C_13
REMARK   13  A    between atoms: C_13  and  C_14
REMARK   14  A    between atoms: C_14  and  C_15
REMARK   15  A    between atoms: C_15  and  C_16
REMARK   16  A    between atoms: C_16  and  O_17
REMARK                            x       y       z     vdW  Elec       q    Type
REMARK                         _______ _______ _______ _____ _____    ______ ____
ROOT
ATOM      1  C   UNL     1       5.611   5.874  16.569  0.00  0.00    +0.000 C 
ENDROOT
BRANCH   1   2
ATOM      2  C   UNL     1       7.008   5.320  16.391  0.00  0.00    +0.000 C 
BRANCH   2   3
ATOM      3  C   UNL     1       7.100   4.559  15.081  0.00  0.00    +0.000 C 
BRANCH   3   4
ATOM      4  C   UNL     1       5.935   4.940  14.188  0.00  0.00    +0.000 C 
BRANCH   4   5
ATOM      5  C   UNL     1       5.298   3.695  13.594  0.00  0.00    +0.000 C 
BRANCH   5   6
ATOM      6  C   UNL     1       6.038   3.283  12.334  0.00  0.00    +0.000 C 
BRANCH   6   7
ATOM      7  C   UNL     1       5.068   2.693  11.321  0.00  0.00    +0.000 C 
BRANCH   7   8
ATOM      8  C   UNL     1       3.845   3.588  11.175  0.00  0.00    +0.000 C 
BRANCH   8  10
ATOM      9  C   UNL     1       2.539   4.594   9.285  0.00  0.00    +0.000 C 
ATOM     10  C   UNL     1       3.129   3.321   9.850  0.00  0.00    +0.000 C 
ENDBRANCH   8  10
ENDBRANCH   7   8
ENDBRANCH   6   7
ENDBRANCH   5   6
ENDBRANCH   4   5
ENDBRANCH   3   4
ENDBRANCH   2   3
ENDBRANCH   1   2
BRANCH   1  11
ATOM     11  C   UNL     1       5.367   6.223  18.027  0.00  0.00    +0.000 C 
BRANCH  11  12
ATOM     12  C   UNL     1       4.633   5.073  18.687  0.00  0.00    +0.000 C 
BRANCH  12  13
ATOM     13  C   UNL     1       3.667   4.407  17.721  0.00  0.00    +0.000 C 
BRANCH  13  14
ATOM     14  C   UNL     1       2.249   4.808  18.108  0.00  0.00    +0.000 C 
BRANCH  14  15
ATOM     15  C   UNL     1       1.668   3.935  19.176  0.00  0.00    +0.000 C 
ATOM     16  C   UNL     1       1.030   2.633  18.736  0.00  0.00    +0.000 C 
ATOM     17  O   UNL     1       2.329   2.672  19.337  0.00  0.00    +0.000 OA
BRANCH  15  18
ATOM     18  C   UNL     1       1.312   4.585  20.489  0.00  0.00    +0.000 C 
BRANCH  18  19
ATOM     19  O   UNL     1       2.469   5.172  21.077  0.00  0.00    +0.000 OA
ATOM     20  H   UNL     1       2.565   6.066  20.711  0.00  0.00    +0.000 HD
ENDBRANCH  18  19
ENDBRANCH  15  18
ENDBRANCH  14  15
ENDBRANCH  13  14
ENDBRANCH  12  13
ENDBRANCH  11  12
ENDBRANCH   1  11
TORSDOF 15
ENDMDL
MODEL 4
REMARK VINA RESULT:      -4.9      1.331      3.600
REMARK  Name = 
REMARK  16 active torsions:
REMARK  status: ('A' for Active; 'I' for Inactive)
REMARK    1  A    between atoms: C_1  and  C_2
REMARK    2  A    between atoms: C_2  and  C_3
REMARK    3  A    between atoms: C_3  and  C_4
REMARK    4  A    between atoms: C_4  and  C_5
REMARK    5  A    between atoms: C_5  and  C_6
REMARK    6  A    between atoms: C_6  and  C_7
REMARK    7  A    between atoms: C_7  and  C_8
REMARK    8  A    between atoms: C_8  and  C_9
REMARK    9  A    between atoms: C_9  and  C_10
REMARK   10  A    between atoms: C_10  and  C_11
REMARK   11  A    between atoms: C_11  and  C_12
REMARK   12  A    between atoms: C_12  and  C_13
REMARK   13  A    between atoms: C_13  and  C_14
REMARK   14  A    between atoms: C_14  and  C_15
REMARK   15  A    between atoms: C_15  and  C_16
REMARK   16  A    between atoms: C_16  and  O_17
REMARK                            x       y       z     vdW  Elec       q    Type
REMARK                         _______ _______ _______ _____ _____    ______ ____
ROOT
ATOM      1  C   UNL     1       2.190   2.563  17.965  0.00  0.00    +0.000 C 
ENDROOT
BRANCH   1   2
ATOM      2  C   UNL     1       0.834   2.455  18.632  0.00  0.00    +0.000 C 
BRANCH   2   3
ATOM      3  C   UNL     1       1.005   2.334  20.135  0.00  0.00    +0.000 C 
BRANCH   3   4
ATOM      4  C   UNL     1       2.363   2.875  20.539  0.00  0.00    +0.000 C 
BRANCH   4   5
ATOM      5  C   UNL     1       2.200   4.124  21.389  0.00  0.00    +0.000 C 
BRANCH   5   6
ATOM      6  C   UNL     1       2.520   5.358  20.565  0.00  0.00    +0.000 C 
BRANCH   6   7
ATOM      7  C   UNL     1       1.516   6.463  20.858  0.00  0.00    +0.000 C 
BRANCH   7   8
ATOM      8  C   UNL     1       1.854   7.713  20.056  0.00  0.00    +0.000 C 
BRANCH   8  10
ATOM      9  C   UNL     1       2.439   8.539  17.762  0.00  0.00    +0.000 C 
ATOM     10  C   UNL     1       2.431   7.344  18.689  0.00  0.00    +0.000 C 
ENDBRANCH   8  10
ENDBRANCH   7   8
ENDBRANCH   6   7
ENDBRANCH   5   6
ENDBRANCH   4   5
ENDBRANCH   3   4
ENDBRANCH   2   3
ENDBRANCH   1   2
BRANCH   1  11
ATOM     11  C   UNL     1       2.423   3.981  17.476  0.00  0.00    +0.000 C 
BRANCH  11  12
ATOM     12  C   UNL     1       3.830   4.081  16.924  0.00  0.00    +0.000 C 
BRANCH  12  13
ATOM     13  C   UNL     1       4.868   3.907  18.022  0.00  0.00    +0.000 C 
BRANCH  13  14
ATOM     14  C   UNL     1       5.407   5.283  18.394  0.00  0.00    +0.000 C 
BRANCH  14  15
ATOM     15  C   UNL     1       6.835   5.477  17.991  0.00  0.00    +0.000 C 
ATOM     16  C   UNL     1       7.799   5.953  19.059  0.00  0.00    +0.000 C 
ATOM     17  O   UNL     1       7.761   4.588  18.632  0.00  0.00    +0.000 OA
BRANCH  15  18
ATOM     18  C   UNL     1       7.124   5.670  16.524  0.00  0.00    +0.000 C 
BRANCH  18  19
ATOM     19  O   UNL     1       7.750   4.509  15.989  0.00  0.00    +0.000 OA
ATOM     20  H   UNL     1       8.353   4.796  15.284  0.00  0.00    +0.000 HD
ENDBRANCH  18  19
ENDBRANCH  15  18
ENDBRANCH  14  15
ENDBRANCH  13  14
ENDBRANCH  12  13
ENDBRANCH  11  12
ENDBRANCH   1  11
TORSDOF 15
ENDMDL
MODEL 5
REMARK VINA RESULT:      -4.9      1.147      1.909
REMARK  Name = 
REMARK  16 active torsions:
REMARK  status: ('A' for Active; 'I' for Inactive)
REMARK    1  A    between atoms: C_1  and  C_2
REMARK    2  A    between atoms: C_2  and  C_3
REMARK    3  A    between atoms: C_3  and  C_4
REMARK    4  A    between atoms: C_4  and  C_5
REMARK    5  A    between atoms: C_5  and  C_6
REMARK    6  A    between atoms: C_6  and  C_7
REMARK    7  A    between atoms: C_7  and  C_8
REMARK    8  A    between atoms: C_8  and  C_9
REMARK    9  A    between atoms: C_9  and  C_10
REMARK   10  A    between atoms: C_10  and  C_11
REMARK   11  A    between atoms: C_11  and  C_12
REMARK   12  A    between atoms: C_12  and  C_13
REMARK   13  A    between atoms: C_13  and  C_14
REMARK   14  A    between atoms: C_14  and  C_15
REMARK   15  A    between atoms: C_15  and  C_16
REMARK   16  A    between atoms: C_16  and  O_17
REMARK                            x       y       z     vdW  Elec       q    Type
REMARK                         _______ _______ _______ _____ _____    ______ ____
ROOT
ATOM      1  C   UNL     1       1.867   7.715  18.571  0.00  0.00    +0.000 C 
ENDROOT
BRANCH   1   2
ATOM      2  C   UNL     1       2.058   7.376  20.034  0.00  0.00    +0.000 C 
BRANCH   2   3
ATOM      3  C   UNL     1       1.582   5.961  20.304  0.00  0.00    +0.000 C 
BRANCH   3   4
ATOM      4  C   UNL     1       2.755   5.101  20.733  0.00  0.00    +0.000 C 
BRANCH   4   5
ATOM      5  C   UNL     1       2.266   3.901  21.527  0.00  0.00    +0.000 C 
BRANCH   5   6
ATOM      6  C   UNL     1       1.063   3.280  20.840  0.00  0.00    +0.000 C 
BRANCH   6   7
ATOM      7  C   UNL     1       1.513   2.234  19.831  0.00  0.00    +0.000 C 
BRANCH   7   8
ATOM      8  C   UNL     1       1.016   2.592  18.437  0.00  0.00    +0.000 C 
BRANCH   8  10
ATOM      9  C   UNL     1       3.459   2.727  17.890  0.00  0.00    +0.000 C 
ATOM     10  C   UNL     1       2.095   3.332  17.646  0.00  0.00    +0.000 C 
ENDBRANCH   8  10
ENDBRANCH   7   8
ENDBRANCH   6   7
ENDBRANCH   5   6
ENDBRANCH   4   5
ENDBRANCH   3   4
ENDBRANCH   2   3
ENDBRANCH   1   2
BRANCH   1  11
ATOM     11  C   UNL     1       3.215   7.841  17.882  0.00  0.00    +0.000 C 
BRANCH  11  12
ATOM     12  C   UNL     1       3.736   6.452  17.575  0.00  0.00    +0.000 C 
BRANCH  12  13
ATOM     13  C   UNL     1       4.834   6.494  16.523  0.00  0.00    +0.000 C 
BRANCH  13  14
ATOM     14  C   UNL     1       6.180   6.527  17.236  0.00  0.00    +0.000 C 
BRANCH  14  15
ATOM     15  C   UNL     1       6.898   5.215  17.185  0.00  0.00    +0.000 C 
ATOM     16  C   UNL     1       7.888   4.923  18.295  0.00  0.00    +0.000 C 
ATOM     17  O   UNL     1       6.588   4.324  18.266  0.00  0.00    +0.000 OA
BRANCH  15  18
ATOM     18  C   UNL     1       6.978   4.517  15.851  0.00  0.00    +0.000 C 
BRANCH  18  19
ATOM     19  O   UNL     1       7.513   5.397  14.867  0.00  0.00    +0.000 OA
ATOM     20  H   UNL     1       8.099   6.025  15.319  0.00  0.00    +0.000 HD
ENDBRANCH  18  19
ENDBRANCH  15  18
ENDBRANCH  14  15
ENDBRANCH  13  14
ENDBRANCH  12  13
ENDBRANCH  11  12
ENDBRANCH   1  11
TORSDOF 15
ENDMDL
MODEL 6
REMARK VINA RESULT:      -4.8      1.391      3.662
REMARK  Name = 
REMARK  16 active torsions:
REMARK  status: ('A' for Active; 'I' for Inactive)
REMARK    1  A    between atoms: C_1  and  C_2
REMARK    2  A    between atoms: C_2  and  C_3
REMARK    3  A    between atoms: C_3  and  C_4
REMARK    4  A    between atoms: C_4  and  C_5
REMARK    5  A    between atoms: C_5  and  C_6
REMARK    6  A    between atoms: C_6  and  C_7
REMARK    7  A    between atoms: C_7  and  C_8
REMARK    8  A    between atoms: C_8  and  C_9
REMARK    9  A    between atoms: C_9  and  C_10
REMARK   10  A    between atoms: C_10  and  C_11
REMARK   11  A    between atoms: C_11  and  C_12
REMARK   12  A    between atoms: C_12  and  C_13
REMARK   13  A    between atoms: C_13  and  C_14
REMARK   14  A    between atoms: C_14  and  C_15
REMARK   15  A    between atoms: C_15  and  C_16
REMARK   16  A    between atoms: C_16  and  O_17
REMARK                            x       y       z     vdW  Elec       q    Type
REMARK                         _______ _______ _______ _____ _____    ______ ____
ROOT
ATOM      1  C   UNL     1       2.291   2.275  18.313  0.00  0.00    +0.000 C 
ENDROOT
BRANCH   1   2
ATOM      2  C   UNL     1       3.466   1.859  19.173  0.00  0.00    +0.000 C 
BRANCH   2   3
ATOM      3  C   UNL     1       3.560   2.759  20.391  0.00  0.00    +0.000 C 
BRANCH   3   4
ATOM      4  C   UNL     1       2.298   2.623  21.223  0.00  0.00    +0.000 C 
BRANCH   4   5
ATOM      5  C   UNL     1       1.387   3.818  20.996  0.00  0.00    +0.000 C 
BRANCH   5   6
ATOM      6  C   UNL     1       2.215   5.082  20.850  0.00  0.00    +0.000 C 
BRANCH   6   7
ATOM      7  C   UNL     1       1.596   6.002  19.809  0.00  0.00    +0.000 C 
BRANCH   7   8
ATOM      8  C   UNL     1       2.503   7.198  19.550  0.00  0.00    +0.000 C 
BRANCH   8  10
ATOM      9  C   UNL     1       1.620   9.046  18.103  0.00  0.00    +0.000 C 
ATOM     10  C   UNL     1       2.333   7.712  18.120  0.00  0.00    +0.000 C 
ENDBRANCH   8  10
ENDBRANCH   7   8
ENDBRANCH   6   7
ENDBRANCH   5   6
ENDBRANCH   4   5
ENDBRANCH   3   4
ENDBRANCH   2   3
ENDBRANCH   1   2
BRANCH   1  11
ATOM     11  C   UNL     1       2.783   2.859  17.000  0.00  0.00    +0.000 C 
BRANCH  11  12
ATOM     12  C   UNL     1       3.239   4.284  17.240  0.00  0.00    +0.000 C 
BRANCH  12  13
ATOM     13  C   UNL     1       4.681   4.484  16.802  0.00  0.00    +0.000 C 
BRANCH  13  14
ATOM     14  C   UNL     1       5.275   5.627  17.617  0.00  0.00    +0.000 C 
BRANCH  14  15
ATOM     15  C   UNL     1       6.758   5.748  17.455  0.00  0.00    +0.000 C 
ATOM     16  C   UNL     1       7.346   7.144  17.482  0.00  0.00    +0.000 C 
ATOM     17  O   UNL     1       7.442   6.264  18.606  0.00  0.00    +0.000 OA
BRANCH  15  18
ATOM     18  C   UNL     1       7.483   4.597  16.805  0.00  0.00    +0.000 C 
BRANCH  18  19
ATOM     19  O   UNL     1       8.364   3.981  17.739  0.00  0.00    +0.000 OA
ATOM     20  H   UNL     1       9.180   4.507  17.767  0.00  0.00    +0.000 HD
ENDBRANCH  18  19
ENDBRANCH  15  18
ENDBRANCH  14  15
ENDBRANCH  13  14
ENDBRANCH  12  13
ENDBRANCH  11  12
ENDBRANCH   1  11
TORSDOF 15
ENDMDL
MODEL 7
REMARK VINA RESULT:      -4.7      1.744      3.774
REMARK  Name = 
REMARK  16 active torsions:
REMARK  status: ('A' for Active; 'I' for Inactive)
REMARK    1  A    between atoms: C_1  and  C_2
REMARK    2  A    between atoms: C_2  and  C_3
REMARK    3  A    between atoms: C_3  and  C_4
REMARK    4  A    between atoms: C_4  and  C_5
REMARK    5  A    between atoms: C_5  and  C_6
REMARK    6  A    between atoms: C_6  and  C_7
REMARK    7  A    between atoms: C_7  and  C_8
REMARK    8  A    between atoms: C_8  and  C_9
REMARK    9  A    between atoms: C_9  and  C_10
REMARK   10  A    between atoms: C_10  and  C_11
REMARK   11  A    between atoms: C_11  and  C_12
REMARK   12  A    between atoms: C_12  and  C_13
REMARK   13  A    between atoms: C_13  and  C_14
REMARK   14  A    between atoms: C_14  and  C_15
REMARK   15  A    between atoms: C_15  and  C_16
REMARK   16  A    between atoms: C_16  and  O_17
REMARK                            x       y       z     vdW  Elec       q    Type
REMARK                         _______ _______ _______ _____ _____    ______ ____
ROOT
ATOM      1  C   UNL     1       3.633   4.138  17.528  0.00  0.00    +0.000 C 
ENDROOT
BRANCH   1   2
ATOM      2  C   UNL     1       2.813   2.875  17.375  0.00  0.00    +0.000 C 
BRANCH   2   3
ATOM      3  C   UNL     1       1.470   3.042  18.061  0.00  0.00    +0.000 C 
BRANCH   3   4
ATOM      4  C   UNL     1       1.406   2.144  19.281  0.00  0.00    +0.000 C 
BRANCH   4   5
ATOM      5  C   UNL     1       1.400   2.980  20.550  0.00  0.00    +0.000 C 
BRANCH   5   6
ATOM      6  C   UNL     1       1.034   4.416  20.224  0.00  0.00    +0.000 C 
BRANCH   6   7
ATOM      7  C   UNL     1       2.031   5.373  20.860  0.00  0.00    +0.000 C 
BRANCH   7   8
ATOM      8  C   UNL     1       1.841   6.781  20.310  0.00  0.00    +0.000 C 
BRANCH   8  10
ATOM      9  C   UNL     1       2.130   8.236  18.289  0.00  0.00    +0.000 C 
ATOM     10  C   UNL     1       2.510   6.927  18.943  0.00  0.00    +0.000 C 
ENDBRANCH   8  10
ENDBRANCH   7   8
ENDBRANCH   6   7
ENDBRANCH   5   6
ENDBRANCH   4   5
ENDBRANCH   3   4
ENDBRANCH   2   3
ENDBRANCH   1   2
BRANCH   1  11
ATOM     11  C   UNL     1       5.008   3.807  18.081  0.00  0.00    +0.000 C 
BRANCH  11  12
ATOM     12  C   UNL     1       6.026   3.941  16.967  0.00  0.00    +0.000 C 
BRANCH  12  13
ATOM     13  C   UNL     1       7.320   4.561  17.472  0.00  0.00    +0.000 C 
BRANCH  13  14
ATOM     14  C   UNL     1       6.969   5.787  18.306  0.00  0.00    +0.000 C 
BRANCH  14  15
ATOM     15  C   UNL     1       6.835   7.031  17.485  0.00  0.00    +0.000 C 
ATOM     16  C   UNL     1       7.838   8.139  17.735  0.00  0.00    +0.000 C 
ATOM     17  O   UNL     1       7.934   7.278  16.595  0.00  0.00    +0.000 OA
BRANCH  15  18
ATOM     18  C   UNL     1       5.493   7.307  16.855  0.00  0.00    +0.000 C 
BRANCH  18  19
ATOM     19  O   UNL     1       5.484   6.862  15.502  0.00  0.00    +0.000 OA
ATOM     20  H   UNL     1       6.390   6.600  15.271  0.00  0.00    +0.000 HD
ENDBRANCH  18  19
ENDBRANCH  15  18
ENDBRANCH  14  15
ENDBRANCH  13  14
ENDBRANCH  12  13
ENDBRANCH  11  12
ENDBRANCH   1  11
TORSDOF 15
ENDMDL
MODEL 8
REMARK VINA RESULT:      -4.7      3.028      5.779
REMARK  Name = 
REMARK  16 active torsions:
REMARK  status: ('A' for Active; 'I' for Inactive)
REMARK    1  A    between atoms: C_1  and  C_2
REMARK    2  A    between atoms: C_2  and  C_3
REMARK    3  A    between atoms: C_3  and  C_4
REMARK    4  A    between atoms: C_4  and  C_5
REMARK    5  A    between atoms: C_5  and  C_6
REMARK    6  A    between atoms: C_6  and  C_7
REMARK    7  A    between atoms: C_7  and  C_8
REMARK    8  A    between atoms: C_8  and  C_9
REMARK    9  A    between atoms: C_9  and  C_10
REMARK   10  A    between atoms: C_10  and  C_11
REMARK   11  A    between atoms: C_11  and  C_12
REMARK   12  A    between atoms: C_12  and  C_13
REMARK   13  A    between atoms: C_13  and  C_14
REMARK   14  A    between atoms: C_14  and  C_15
REMARK   15  A    between atoms: C_15  and  C_16
REMARK   16  A    between atoms: C_16  and  O_17
REMARK                            x       y       z     vdW  Elec       q    Type
REMARK                         _______ _______ _______ _____ _____    ______ ____
ROOT
ATOM      1  C   UNL     1       3.500   7.297  17.704  0.00  0.00    +0.000 C 
ENDROOT
BRANCH   1   2
ATOM      2  C   UNL     1       4.441   6.565  16.771  0.00  0.00    +0.000 C 
BRANCH   2   3
ATOM      3  C   UNL     1       5.879   6.910  17.111  0.00  0.00    +0.000 C 
BRANCH   3   4
ATOM      4  C   UNL     1       6.804   5.841  16.561  0.00  0.00    +0.000 C 
BRANCH   4   5
ATOM      5  C   UNL     1       6.000   4.768  15.845  0.00  0.00    +0.000 C 
BRANCH   5   6
ATOM      6  C   UNL     1       6.676   4.399  14.537  0.00  0.00    +0.000 C 
BRANCH   6   7
ATOM      7  C   UNL     1       5.638   3.978  13.507  0.00  0.00    +0.000 C 
BRANCH   7   8
ATOM      8  C   UNL     1       6.306   3.247  12.349  0.00  0.00    +0.000 C 
BRANCH   8  10
ATOM      9  C   UNL     1       4.053   3.443  11.267  0.00  0.00    +0.000 C 
ATOM     10  C   UNL     1       5.265   2.560  11.465  0.00  0.00    +0.000 C 
ENDBRANCH   8  10
ENDBRANCH   7   8
ENDBRANCH   6   7
ENDBRANCH   5   6
ENDBRANCH   4   5
ENDBRANCH   3   4
ENDBRANCH   2   3
ENDBRANCH   1   2
BRANCH   1  11
ATOM     11  C   UNL     1       2.778   6.309  18.603  0.00  0.00    +0.000 C 
BRANCH  11  12
ATOM     12  C   UNL     1       3.112   4.903  18.149  0.00  0.00    +0.000 C 
BRANCH  12  13
ATOM     13  C   UNL     1       1.853   4.111  17.834  0.00  0.00    +0.000 C 
BRANCH  13  14
ATOM     14  C   UNL     1       1.208   3.693  19.150  0.00  0.00    +0.000 C 
BRANCH  14  15
ATOM     15  C   UNL     1       2.060   2.751  19.942  0.00  0.00    +0.000 C 
ATOM     16  C   UNL     1       2.517   3.213  21.311  0.00  0.00    +0.000 C 
ATOM     17  O   UNL     1       1.451   2.272  21.150  0.00  0.00    +0.000 OA
BRANCH  15  18
ATOM     18  C   UNL     1       2.795   1.674  19.185  0.00  0.00    +0.000 C 
BRANCH  18  19
ATOM     19  O   UNL     1       4.200   1.895  19.255  0.00  0.00    +0.000 OA
ATOM     20  H   UNL     1       4.484   1.709  20.165  0.00  0.00    +0.000 HD
ENDBRANCH  18  19
ENDBRANCH  15  18
ENDBRANCH  14  15
ENDBRANCH  13  14
ENDBRANCH  12  13
ENDBRANCH  11  12
ENDBRANCH   1  11
TORSDOF 15
ENDMDL
MODEL 9
REMARK VINA RESULT:      -4.7      1.653      3.830
REMARK  Name = 
REMARK  16 active torsions:
REMARK  status: ('A' for Active; 'I' for Inactive)
REMARK    1  A    between atoms: C_1  and  C_2
REMARK    2  A    between atoms: C_2  and  C_3
REMARK    3  A    between atoms: C_3  and  C_4
REMARK    4  A    between atoms: C_4  and  C_5
REMARK    5  A    between atoms: C_5  and  C_6
REMARK    6  A    between atoms: C_6  and  C_7
REMARK    7  A    between atoms: C_7  and  C_8
REMARK    8  A    between atoms: C_8  and  C_9
REMARK    9  A    between atoms: C_9  and  C_10
REMARK   10  A    between atoms: C_10  and  C_11
REMARK   11  A    between atoms: C_11  and  C_12
REMARK   12  A    between atoms: C_12  and  C_13
REMARK   13  A    between atoms: C_13  and  C_14
REMARK   14  A    between atoms: C_14  and  C_15
REMARK   15  A    between atoms: C_15  and  C_16
REMARK   16  A    between atoms: C_16  and  O_17
REMARK                            x       y       z     vdW  Elec       q    Type
REMARK                         _______ _______ _______ _____ _____    ______ ____
ROOT
ATOM      1  C   UNL     1       2.655   2.790  18.066  0.00  0.00    +0.000 C 
ENDROOT
BRANCH   1   2
ATOM      2  C   UNL     1       1.211   3.145  18.355  0.00  0.00    +0.000 C 
BRANCH   2   3
ATOM      3  C   UNL     1       0.813   2.621  19.722  0.00  0.00    +0.000 C 
BRANCH   3   4
ATOM      4  C   UNL     1       1.505   3.434  20.800  0.00  0.00    +0.000 C 
BRANCH   4   5
ATOM      5  C   UNL     1       1.234   4.915  20.597  0.00  0.00    +0.000 C 
BRANCH   5   6
ATOM      6  C   UNL     1       2.545   5.670  20.468  0.00  0.00    +0.000 C 
BRANCH   6   7
ATOM      7  C   UNL     1       2.321   7.000  19.764  0.00  0.00    +0.000 C 
BRANCH   7   8
ATOM      8  C   UNL     1       2.660   6.880  18.284  0.00  0.00    +0.000 C 
BRANCH   8  10
ATOM      9  C   UNL     1       1.456   9.079  18.267  0.00  0.00    +0.000 C 
ATOM     10  C   UNL     1       2.495   8.225  17.576  0.00  0.00    +0.000 C 
ENDBRANCH   8  10
ENDBRANCH   7   8
ENDBRANCH   6   7
ENDBRANCH   5   6
ENDBRANCH   4   5
ENDBRANCH   3   4
ENDBRANCH   2   3
ENDBRANCH   1   2
BRANCH   1  11
ATOM     11  C   UNL     1       3.228   3.732  17.021  0.00  0.00    +0.000 C 
BRANCH  11  12
ATOM     12  C   UNL     1       4.725   3.515  16.938  0.00  0.00    +0.000 C 
BRANCH  12  13
ATOM     13  C   UNL     1       5.441   4.150  18.120  0.00  0.00    +0.000 C 
BRANCH  13  14
ATOM     14  C   UNL     1       6.816   4.614  17.653  0.00  0.00    +0.000 C 
BRANCH  14  15
ATOM     15  C   UNL     1       6.746   5.686  16.612  0.00  0.00    +0.000 C 
ATOM     16  C   UNL     1       6.245   7.047  17.050  0.00  0.00    +0.000 C 
ATOM     17  O   UNL     1       7.636   6.790  16.833  0.00  0.00    +0.000 OA
BRANCH  15  18
ATOM     18  C   UNL     1       6.694   5.253  15.169  0.00  0.00    +0.000 C 
BRANCH  18  19
ATOM     19  O   UNL     1       7.933   5.534  14.525  0.00  0.00    +0.000 OA
ATOM     20  H   UNL     1       7.929   5.083  13.665  0.00  0.00    +0.000 HD
ENDBRANCH  18  19
ENDBRANCH  15  18
ENDBRANCH  14  15
ENDBRANCH  13  14
ENDBRANCH  12  13
ENDBRANCH  11  12
ENDBRANCH   1  11
TORSDOF 15
ENDMDL
