MODEL 1
REMARK VINA RESULT:      -9.4      0.000      0.000
REMARK  Name = 
REMARK  5 active torsions:
REMARK  status: ('A' for Active; 'I' for Inactive)
REMARK    1  A    between atoms: C_1  and  N_2
REMARK    2  A    between atoms: C_8  and  N_9
REMARK    3  A    between atoms: N_12  and  C_13
REMARK    4  A    between atoms: C_15  and  C_16
REMARK    5  A    between atoms: C_15  and  C_17
REMARK                            x       y       z     vdW  Elec       q    Type
REMARK                         _______ _______ _______ _____ _____    ______ ____
ROOT
ATOM      1  N   UNL     1       1.440   9.230  18.159  0.00  0.00    +0.000 N 
ATOM      2  C   UNL     1       2.124   8.180  18.732  0.00  0.00    +0.000 C 
ATOM      3  O   UNL     1       2.096   7.887  19.920  0.00  0.00    +0.000 OA
ATOM      4  N   UNL     1       2.893   7.442  17.843  0.00  0.00    +0.000 N 
ATOM      5  H   UNL     1       1.915   9.641  17.368  0.00  0.00    +0.000 HD
ATOM      6  H   UNL     1       2.983   7.703  16.874  0.00  0.00    +0.000 HD
ENDROOT
BRANCH   1  14
ATOM      7  C   UNL     1      -4.082  12.172  19.113  0.00  0.00    +0.000 C 
ATOM      8  N   UNL     1      -3.083  11.427  18.359  0.00  0.00    +0.000 N 
ATOM      9  C   UNL     1      -3.442  11.017  17.093  0.00  0.00    +0.000 C 
ATOM     10  O   UNL     1      -4.514  11.284  16.544  0.00  0.00    +0.000 OA
ATOM     11  N   UNL     1      -2.534  10.295  16.398  0.00  0.00    +0.000 N 
ATOM     12  C   UNL     1      -1.412   9.638  16.997  0.00  0.00    +0.000 C 
ATOM     13  C   UNL     1      -0.889  10.299  18.233  0.00  0.00    +0.000 A 
ATOM     14  C   UNL     1       0.413  10.047  18.749  0.00  0.00    +0.000 A 
ATOM     15  C   UNL     1       0.781  10.697  19.942  0.00  0.00    +0.000 A 
ATOM     16  C   UNL     1      -0.111  11.527  20.626  0.00  0.00    +0.000 A 
ATOM     17  C   UNL     1      -1.386  11.753  20.121  0.00  0.00    +0.000 A 
ATOM     18  C   UNL     1      -1.789  11.161  18.917  0.00  0.00    +0.000 A 
ATOM     19  H   UNL     1      -2.916   9.895  15.553  0.00  0.00    +0.000 HD
ENDBRANCH   1  14
BRANCH   4  20
ATOM     20  C   UNL     1       3.658   6.304  18.373  0.00  0.00    +0.000 C 
ATOM     21  C   UNL     1       5.159   6.437  18.084  0.00  0.00    +0.000 C 
ATOM     22  C   UNL     1       5.664   5.477  17.001  0.00  0.00    +0.000 C 
ATOM     23  C   UNL     1       5.126   5.776  15.591  0.00  0.00    +0.000 C 
ATOM     24  O   UNL     1       5.345   4.122  17.357  0.00  0.00    +0.000 OA
ATOM     25  C   UNL     1       4.024   3.904  17.650  0.00  0.00    +0.000 A 
ATOM     26  C   UNL     1       3.610   2.575  17.562  0.00  0.00    +0.000 A 
ATOM     27  C   UNL     1       2.287   2.240  17.832  0.00  0.00    +0.000 A 
ATOM     28  C   UNL     1       1.383   3.239  18.189  0.00  0.00    +0.000 A 
ATOM     29  C   UNL     1       1.803   4.570  18.296  0.00  0.00    +0.000 A 
ATOM     30  C   UNL     1       3.137   4.921  18.041  0.00  0.00    +0.000 A 
BRANCH  22  31
ATOM     31  C   UNL     1       7.200   5.568  16.953  0.00  0.00    +0.000 C 
ATOM     32  F   UNL     1       7.748   4.410  17.409  0.00  0.00    +0.000 F 
ENDBRANCH  22  31
ENDBRANCH   4  20
TORSDOF 3
ENDMDL
MODEL 2
REMARK VINA RESULT:      -9.3      3.190      8.917
REMARK  Name = 
REMARK  5 active torsions:
REMARK  status: ('A' for Active; 'I' for Inactive)
REMARK    1  A    between atoms: C_1  and  N_2
REMARK    2  A    between atoms: C_8  and  N_9
REMARK    3  A    between atoms: N_12  and  C_13
REMARK    4  A    between atoms: C_15  and  C_16
REMARK    5  A    between atoms: C_15  and  C_17
REMARK                            x       y       z     vdW  Elec       q    Type
REMARK                         _______ _______ _______ _____ _____    ______ ____
ROOT
ATOM      1  N   UNL     1       2.360   7.249  18.978  0.00  0.00    +0.000 N 
ATOM      2  C   UNL     1       1.920   8.449  18.465  0.00  0.00    +0.000 C 
ATOM      3  O   UNL     1       2.060   8.812  17.304  0.00  0.00    +0.000 OA
ATOM      4  N   UNL     1       1.285   9.271  19.386  0.00  0.00    +0.000 N 
ATOM      5  H   UNL     1       2.629   7.297  19.951  0.00  0.00    +0.000 HD
ATOM      6  H   UNL     1       1.215   9.022  20.360  0.00  0.00    +0.000 HD
ENDROOT
BRANCH   1  14
ATOM      7  C   UNL     1       6.150   3.473  15.597  0.00  0.00    +0.000 C 
ATOM      8  N   UNL     1       5.701   4.728  16.183  0.00  0.00    +0.000 N 
ATOM      9  C   UNL     1       6.521   5.822  16.011  0.00  0.00    +0.000 C 
ATOM     10  O   UNL     1       7.566   5.820  15.355  0.00  0.00    +0.000 OA
ATOM     11  N   UNL     1       6.130   6.983  16.581  0.00  0.00    +0.000 N 
ATOM     12  C   UNL     1       5.148   7.069  17.618  0.00  0.00    +0.000 C 
ATOM     13  C   UNL     1       4.109   5.994  17.585  0.00  0.00    +0.000 A 
ATOM     14  C   UNL     1       2.861   6.108  18.260  0.00  0.00    +0.000 A 
ATOM     15  C   UNL     1       1.977   5.014  18.189  0.00  0.00    +0.000 A 
ATOM     16  C   UNL     1       2.324   3.838  17.520  0.00  0.00    +0.000 A 
ATOM     17  C   UNL     1       3.552   3.732  16.878  0.00  0.00    +0.000 A 
ATOM     18  C   UNL     1       4.452   4.805  16.885  0.00  0.00    +0.000 A 
ATOM     19  H   UNL     1       6.847   7.694  16.552  0.00  0.00    +0.000 HD
ENDBRANCH   1  14
BRANCH   4  20
ATOM     20  C   UNL     1       0.786  10.573  18.920  0.00  0.00    +0.000 C 
ATOM     21  C   UNL     1       1.205  11.715  19.856  0.00  0.00    +0.000 C 
ATOM     22  C   UNL     1       0.053  12.270  20.701  0.00  0.00    +0.000 C 
ATOM     23  C   UNL     1      -0.487  11.289  21.757  0.00  0.00    +0.000 C 
ATOM     24  O   UNL     1      -1.023  12.695  19.849  0.00  0.00    +0.000 OA
ATOM     25  C   UNL     1      -1.459  11.745  18.963  0.00  0.00    +0.000 A 
ATOM     26  C   UNL     1      -2.741  11.955  18.453  0.00  0.00    +0.000 A 
ATOM     27  C   UNL     1      -3.286  11.049  17.550  0.00  0.00    +0.000 A 
ATOM     28  C   UNL     1      -2.545   9.934  17.160  0.00  0.00    +0.000 A 
ATOM     29  C   UNL     1      -1.252   9.734  17.656  0.00  0.00    +0.000 A 
ATOM     30  C   UNL     1      -0.682  10.647  18.557  0.00  0.00    +0.000 A 
BRANCH  22  31
ATOM     31  C   UNL     1       0.554  13.528  21.434  0.00  0.00    +0.000 C 
ATOM     32  F   UNL     1      -0.137  13.698  22.592  0.00  0.00    +0.000 F 
ENDBRANCH  22  31
ENDBRANCH   4  20
TORSDOF 3
ENDMDL
MODEL 3
REMARK VINA RESULT:      -9.2      1.865      2.617
REMARK  Name = 
REMARK  5 active torsions:
REMARK  status: ('A' for Active; 'I' for Inactive)
REMARK    1  A    between atoms: C_1  and  N_2
REMARK    2  A    between atoms: C_8  and  N_9
REMARK    3  A    between atoms: N_12  and  C_13
REMARK    4  A    between atoms: C_15  and  C_16
REMARK    5  A    between atoms: C_15  and  C_17
REMARK                            x       y       z     vdW  Elec       q    Type
REMARK                         _______ _______ _______ _____ _____    ______ ____
ROOT
ATOM      1  N   UNL     1       1.302   9.231  17.581  0.00  0.00    +0.000 N 
ATOM      2  C   UNL     1       1.985   8.251  18.268  0.00  0.00    +0.000 C 
ATOM      3  O   UNL     1       1.857   8.009  19.461  0.00  0.00    +0.000 OA
ATOM      4  N   UNL     1       2.879   7.523  17.494  0.00  0.00    +0.000 N 
ATOM      5  H   UNL     1       1.828   9.635  16.819  0.00  0.00    +0.000 HD
ATOM      6  H   UNL     1       3.049   7.747  16.526  0.00  0.00    +0.000 HD
ENDROOT
BRANCH   1  14
ATOM      7  C   UNL     1      -2.182  13.547  20.629  0.00  0.00    +0.000 C 
ATOM      8  N   UNL     1      -0.996  12.748  20.351  0.00  0.00    +0.000 N 
ATOM      9  C   UNL     1       0.127  13.025  21.100  0.00  0.00    +0.000 C 
ATOM     10  O   UNL     1       0.177  13.853  22.014  0.00  0.00    +0.000 OA
ATOM     11  N   UNL     1       1.243  12.313  20.825  0.00  0.00    +0.000 N 
ATOM     12  C   UNL     1       1.439  11.577  19.614  0.00  0.00    +0.000 C 
ATOM     13  C   UNL     1       0.183  11.059  18.988  0.00  0.00    +0.000 A 
ATOM     14  C   UNL     1       0.177  10.008  18.029  0.00  0.00    +0.000 A 
ATOM     15  C   UNL     1      -1.063   9.631  17.479  0.00  0.00    +0.000 A 
ATOM     16  C   UNL     1      -2.245  10.291  17.824  0.00  0.00    +0.000 A 
ATOM     17  C   UNL     1      -2.225  11.327  18.750  0.00  0.00    +0.000 A 
ATOM     18  C   UNL     1      -1.023  11.716  19.355  0.00  0.00    +0.000 A 
ATOM     19  H   UNL     1       2.062  12.673  21.294  0.00  0.00    +0.000 HD
ENDBRANCH   1  14
BRANCH   4  20
ATOM     20  C   UNL     1       3.651   6.459  18.151  0.00  0.00    +0.000 C 
ATOM     21  C   UNL     1       5.157   6.599  17.890  0.00  0.00    +0.000 C 
ATOM     22  C   UNL     1       5.712   5.552  16.917  0.00  0.00    +0.000 C 
ATOM     23  C   UNL     1       5.208   5.703  15.471  0.00  0.00    +0.000 C 
ATOM     24  O   UNL     1       5.410   4.230  17.392  0.00  0.00    +0.000 OA
ATOM     25  C   UNL     1       4.087   4.011  17.669  0.00  0.00    +0.000 A 
ATOM     26  C   UNL     1       3.702   2.669  17.699  0.00  0.00    +0.000 A 
ATOM     27  C   UNL     1       2.380   2.332  17.964  0.00  0.00    +0.000 A 
ATOM     28  C   UNL     1       1.445   3.339  18.200  0.00  0.00    +0.000 A 
ATOM     29  C   UNL     1       1.835   4.683  18.191  0.00  0.00    +0.000 A 
ATOM     30  C   UNL     1       3.169   5.039  17.938  0.00  0.00    +0.000 A 
BRANCH  22  31
ATOM     31  C   UNL     1       7.246   5.673  16.902  0.00  0.00    +0.000 C 
ATOM     32  F   UNL     1       7.811   4.450  17.084  0.00  0.00    +0.000 F 
ENDBRANCH  22  31
ENDBRANCH   4  20
TORSDOF 3
ENDMDL
MODEL 4
REMARK VINA RESULT:      -8.9      2.159      2.867
REMARK  Name = 
REMARK  5 active torsions:
REMARK  status: ('A' for Active; 'I' for Inactive)
REMARK    1  A    between atoms: C_1  and  N_2
REMARK    2  A    between atoms: C_8  and  N_9
REMARK    3  A    between atoms: N_12  and  C_13
REMARK    4  A    between atoms: C_15  and  C_16
REMARK    5  A    between atoms: C_15  and  C_17
REMARK                            x       y       z     vdW  Elec       q    Type
REMARK                         _______ _______ _______ _____ _____    ______ ____
ROOT
ATOM      1  N   UNL     1       1.833   9.257  17.691  0.00  0.00    +0.000 N 
ATOM      2  C   UNL     1       2.374   8.205  18.397  0.00  0.00    +0.000 C 
ATOM      3  O   UNL     1       2.224   8.010  19.597  0.00  0.00    +0.000 OA
ATOM      4  N   UNL     1       3.147   7.339  17.636  0.00  0.00    +0.000 N 
ATOM      5  H   UNL     1       2.404   9.564  16.917  0.00  0.00    +0.000 HD
ATOM      6  H   UNL     1       3.339   7.514  16.662  0.00  0.00    +0.000 HD
ENDROOT
BRANCH   1  14
ATOM      7  C   UNL     1      -0.915  14.577  19.741  0.00  0.00    +0.000 C 
ATOM      8  N   UNL     1       0.194  13.681  19.442  0.00  0.00    +0.000 N 
ATOM      9  C   UNL     1       1.463  14.180  19.637  0.00  0.00    +0.000 C 
ATOM     10  O   UNL     1       1.718  15.298  20.093  0.00  0.00    +0.000 OA
ATOM     11  N   UNL     1       2.499  13.368  19.329  0.00  0.00    +0.000 N 
ATOM     12  C   UNL     1       2.381  12.205  18.503  0.00  0.00    +0.000 C 
ATOM     13  C   UNL     1       1.043  11.540  18.550  0.00  0.00    +0.000 A 
ATOM     14  C   UNL     1       0.835  10.197  18.127  0.00  0.00    +0.000 A 
ATOM     15  C   UNL     1      -0.478   9.690  18.181  0.00  0.00    +0.000 A 
ATOM     16  C   UNL     1      -1.551  10.485  18.590  0.00  0.00    +0.000 A 
ATOM     17  C   UNL     1      -1.338  11.800  18.986  0.00  0.00    +0.000 A 
ATOM     18  C   UNL     1      -0.047  12.342  18.988  0.00  0.00    +0.000 A 
ATOM     19  H   UNL     1       3.389  13.847  19.342  0.00  0.00    +0.000 HD
ENDBRANCH   1  14
BRANCH   4  20
ATOM     20  C   UNL     1       3.765   6.190  18.313  0.00  0.00    +0.000 C 
ATOM     21  C   UNL     1       5.289   6.165  18.127  0.00  0.00    +0.000 C 
ATOM     22  C   UNL     1       5.773   5.073  17.166  0.00  0.00    +0.000 C 
ATOM     23  C   UNL     1       5.360   5.292  15.700  0.00  0.00    +0.000 C 
ATOM     24  O   UNL     1       5.305   3.788  17.607  0.00  0.00    +0.000 OA
ATOM     25  C   UNL     1       3.954   3.713  17.817  0.00  0.00    +0.000 A 
ATOM     26  C   UNL     1       3.424   2.422  17.809  0.00  0.00    +0.000 A 
ATOM     27  C   UNL     1       2.060   2.230  18.006  0.00  0.00    +0.000 A 
ATOM     28  C   UNL     1       1.232   3.332  18.211  0.00  0.00    +0.000 A 
ATOM     29  C   UNL     1       1.766   4.625  18.240  0.00  0.00    +0.000 A 
ATOM     30  C   UNL     1       3.141   4.834  18.057  0.00  0.00    +0.000 A 
BRANCH  22  31
ATOM     31  C   UNL     1       7.310   5.025  17.226  0.00  0.00    +0.000 C 
ATOM     32  F   UNL     1       7.806   6.270  17.452  0.00  0.00    +0.000 F 
ENDBRANCH  22  31
ENDBRANCH   4  20
TORSDOF 3
ENDMDL
MODEL 5
REMARK VINA RESULT:      -8.3      3.263      8.814
REMARK  Name = 
REMARK  5 active torsions:
REMARK  status: ('A' for Active; 'I' for Inactive)
REMARK    1  A    between atoms: C_1  and  N_2
REMARK    2  A    between atoms: C_8  and  N_9
REMARK    3  A    between atoms: N_12  and  C_13
REMARK    4  A    between atoms: C_15  and  C_16
REMARK    5  A    between atoms: C_15  and  C_17
REMARK                            x       y       z     vdW  Elec       q    Type
REMARK                         _______ _______ _______ _____ _____    ______ ____
ROOT
ATOM      1  N   UNL     1       2.179   7.960  19.192  0.00  0.00    +0.000 N 
ATOM      2  C   UNL     1       1.557   9.026  18.581  0.00  0.00    +0.000 C 
ATOM      3  O   UNL     1       1.597   9.272  17.383  0.00  0.00    +0.000 OA
ATOM      4  N   UNL     1       0.856   9.855  19.446  0.00  0.00    +0.000 N 
ATOM      5  H   UNL     1       2.480   8.151  20.137  0.00  0.00    +0.000 HD
ATOM      6  H   UNL     1       0.863   9.710  20.444  0.00  0.00    +0.000 HD
ENDROOT
BRANCH   1  14
ATOM      7  C   UNL     1       3.547   1.985  17.614  0.00  0.00    +0.000 C 
ATOM      8  N   UNL     1       2.936   3.048  18.401  0.00  0.00    +0.000 N 
ATOM      9  C   UNL     1       2.088   2.659  19.415  0.00  0.00    +0.000 C 
ATOM     10  O   UNL     1       1.862   1.488  19.733  0.00  0.00    +0.000 OA
ATOM     11  N   UNL     1       1.489   3.638  20.128  0.00  0.00    +0.000 N 
ATOM     12  C   UNL     1       1.389   4.996  19.687  0.00  0.00    +0.000 C 
ATOM     13  C   UNL     1       2.503   5.447  18.798  0.00  0.00    +0.000 A 
ATOM     14  C   UNL     1       2.800   6.820  18.570  0.00  0.00    +0.000 A 
ATOM     15  C   UNL     1       3.849   7.125  17.681  0.00  0.00    +0.000 A 
ATOM     16  C   UNL     1       4.548   6.121  17.007  0.00  0.00    +0.000 A 
ATOM     17  C   UNL     1       4.239   4.783  17.225  0.00  0.00    +0.000 A 
ATOM     18  C   UNL     1       3.230   4.425  18.128  0.00  0.00    +0.000 A 
ATOM     19  H   UNL     1       0.766   3.289  20.742  0.00  0.00    +0.000 HD
ENDBRANCH   1  14
BRANCH   4  20
ATOM     20  C   UNL     1       0.164  11.020  18.875  0.00  0.00    +0.000 C 
ATOM     21  C   UNL     1       0.500  12.314  19.631  0.00  0.00    +0.000 C 
ATOM     22  C   UNL     1      -0.651  12.832  20.501  0.00  0.00    +0.000 C 
ATOM     23  C   UNL     1      -0.986  11.936  21.706  0.00  0.00    +0.000 C 
ATOM     24  O   UNL     1      -1.829  13.017  19.700  0.00  0.00    +0.000 OA
ATOM     25  C   UNL     1      -2.202  11.918  18.972  0.00  0.00    +0.000 A 
ATOM     26  C   UNL     1      -3.533  11.909  18.553  0.00  0.00    +0.000 A 
ATOM     27  C   UNL     1      -4.022  10.838  17.812  0.00  0.00    +0.000 A 
ATOM     28  C   UNL     1      -3.174   9.778  17.494  0.00  0.00    +0.000 A 
ATOM     29  C   UNL     1      -1.834   9.795  17.897  0.00  0.00    +0.000 A 
ATOM     30  C   UNL     1      -1.323  10.876  18.633  0.00  0.00    +0.000 A 
BRANCH  22  31
ATOM     31  C   UNL     1      -0.262  14.223  21.036  0.00  0.00    +0.000 C 
ATOM     32  F   UNL     1       0.131  14.128  22.334  0.00  0.00    +0.000 F 
ENDBRANCH  22  31
ENDBRANCH   4  20
TORSDOF 3
ENDMDL
MODEL 6
REMARK VINA RESULT:      -8.3      3.689      9.106
REMARK  Name = 
REMARK  5 active torsions:
REMARK  status: ('A' for Active; 'I' for Inactive)
REMARK    1  A    between atoms: C_1  and  N_2
REMARK    2  A    between atoms: C_8  and  N_9
REMARK    3  A    between atoms: N_12  and  C_13
REMARK    4  A    between atoms: C_15  and  C_16
REMARK    5  A    between atoms: C_15  and  C_17
REMARK                            x       y       z     vdW  Elec       q    Type
REMARK                         _______ _______ _______ _____ _____    ______ ____
ROOT
ATOM      1  N   UNL     1       2.003   7.624  17.988  0.00  0.00    +0.000 N 
ATOM      2  C   UNL     1       1.669   8.619  18.880  0.00  0.00    +0.000 C 
ATOM      3  O   UNL     1       1.944   8.618  20.073  0.00  0.00    +0.000 OA
ATOM      4  N   UNL     1       0.958   9.674  18.324  0.00  0.00    +0.000 N 
ATOM      5  H   UNL     1       1.332   7.504  17.243  0.00  0.00    +0.000 HD
ATOM      6  H   UNL     1       0.664   9.667  17.360  0.00  0.00    +0.000 HD
ENDROOT
BRANCH   1  14
ATOM      7  C   UNL     1       4.458   2.204  20.147  0.00  0.00    +0.000 C 
ATOM      8  N   UNL     1       3.537   3.332  20.123  0.00  0.00    +0.000 N 
ATOM      9  C   UNL     1       2.509   3.313  21.042  0.00  0.00    +0.000 C 
ATOM     10  O   UNL     1       2.354   2.446  21.905  0.00  0.00    +0.000 OA
ATOM     11  N   UNL     1       1.630   4.338  21.004  0.00  0.00    +0.000 N 
ATOM     12  C   UNL     1       1.481   5.220  19.887  0.00  0.00    +0.000 C 
ATOM     13  C   UNL     1       2.724   5.419  19.079  0.00  0.00    +0.000 A 
ATOM     14  C   UNL     1       2.899   6.516  18.191  0.00  0.00    +0.000 A 
ATOM     15  C   UNL     1       4.097   6.577  17.453  0.00  0.00    +0.000 A 
ATOM     16  C   UNL     1       5.065   5.575  17.551  0.00  0.00    +0.000 A 
ATOM     17  C   UNL     1       4.877   4.499  18.410  0.00  0.00    +0.000 A 
ATOM     18  C   UNL     1       3.720   4.410  19.195  0.00  0.00    +0.000 A 
ATOM     19  H   UNL     1       0.821   4.182  21.590  0.00  0.00    +0.000 HD
ENDBRANCH   1  14
BRANCH   4  20
ATOM     20  C   UNL     1       0.559  10.779  19.208  0.00  0.00    +0.000 C 
ATOM     21  C   UNL     1      -0.941  10.741  19.533  0.00  0.00    +0.000 C 
ATOM     22  C   UNL     1      -1.750  11.833  18.825  0.00  0.00    +0.000 C 
ATOM     23  C   UNL     1      -1.836  11.667  17.298  0.00  0.00    +0.000 C 
ATOM     24  O   UNL     1      -1.207  13.127  19.135  0.00  0.00    +0.000 OA
ATOM     25  C   UNL     1       0.135  13.256  18.893  0.00  0.00    +0.000 A 
ATOM     26  C   UNL     1       0.589  14.569  18.758  0.00  0.00    +0.000 A 
ATOM     27  C   UNL     1       1.934  14.816  18.504  0.00  0.00    +0.000 A 
ATOM     28  C   UNL     1       2.820  13.747  18.385  0.00  0.00    +0.000 A 
ATOM     29  C   UNL     1       2.369  12.431  18.541  0.00  0.00    +0.000 A 
ATOM     30  C   UNL     1       1.018  12.166  18.811  0.00  0.00    +0.000 A 
BRANCH  22  31
ATOM     31  C   UNL     1      -3.183  11.813  19.387  0.00  0.00    +0.000 C 
ATOM     32  F   UNL     1      -4.083  11.815  18.368  0.00  0.00    +0.000 F 
ENDBRANCH  22  31
ENDBRANCH   4  20
TORSDOF 3
ENDMDL
MODEL 7
REMARK VINA RESULT:      -8.2      2.705      4.131
REMARK  Name = 
REMARK  5 active torsions:
REMARK  status: ('A' for Active; 'I' for Inactive)
REMARK    1  A    between atoms: C_1  and  N_2
REMARK    2  A    between atoms: C_8  and  N_9
REMARK    3  A    between atoms: N_12  and  C_13
REMARK    4  A    between atoms: C_15  and  C_16
REMARK    5  A    between atoms: C_15  and  C_17
REMARK                            x       y       z     vdW  Elec       q    Type
REMARK                         _______ _______ _______ _____ _____    ______ ____
ROOT
ATOM      1  N   UNL     1       1.494   9.196  19.772  0.00  0.00    +0.000 N 
ATOM      2  C   UNL     1       1.742   8.379  18.692  0.00  0.00    +0.000 C 
ATOM      3  O   UNL     1       1.266   8.526  17.573  0.00  0.00    +0.000 OA
ATOM      4  N   UNL     1       2.600   7.320  18.957  0.00  0.00    +0.000 N 
ATOM      5  H   UNL     1       1.517   8.715  20.660  0.00  0.00    +0.000 HD
ATOM      6  H   UNL     1       2.952   7.141  19.884  0.00  0.00    +0.000 HD
ENDROOT
BRANCH   1  14
ATOM      7  C   UNL     1       0.184  15.291  18.680  0.00  0.00    +0.000 C 
ATOM      8  N   UNL     1       1.008  14.090  18.705  0.00  0.00    +0.000 N 
ATOM      9  C   UNL     1       2.266  14.189  18.150  0.00  0.00    +0.000 C 
ATOM     10  O   UNL     1       2.753  15.226  17.692  0.00  0.00    +0.000 OA
ATOM     11  N   UNL     1       3.024  13.071  18.137  0.00  0.00    +0.000 N 
ATOM     12  C   UNL     1       2.501  11.752  18.320  0.00  0.00    +0.000 C 
ATOM     13  C   UNL     1       1.274  11.679  19.173  0.00  0.00    +0.000 A 
ATOM     14  C   UNL     1       0.831  10.473  19.784  0.00  0.00    +0.000 A 
ATOM     15  C   UNL     1      -0.360  10.519  20.534  0.00  0.00    +0.000 A 
ATOM     16  C   UNL     1      -1.110  11.692  20.641  0.00  0.00    +0.000 A 
ATOM     17  C   UNL     1      -0.675  12.861  20.027  0.00  0.00    +0.000 A 
ATOM     18  C   UNL     1       0.522  12.879  19.301  0.00  0.00    +0.000 A 
ATOM     19  H   UNL     1       3.860  13.171  17.579  0.00  0.00    +0.000 HD
ENDBRANCH   1  14
BRANCH   4  20
ATOM     20  C   UNL     1       2.916   6.396  17.857  0.00  0.00    +0.000 C 
ATOM     21  C   UNL     1       2.050   5.130  17.905  0.00  0.00    +0.000 C 
ATOM     22  C   UNL     1       2.815   3.879  18.353  0.00  0.00    +0.000 C 
ATOM     23  C   UNL     1       3.269   3.909  19.823  0.00  0.00    +0.000 C 
ATOM     24  O   UNL     1       3.956   3.670  17.505  0.00  0.00    +0.000 OA
ATOM     25  C   UNL     1       4.785   4.754  17.385  0.00  0.00    +0.000 A 
ATOM     26  C   UNL     1       6.081   4.463  16.956  0.00  0.00    +0.000 A 
ATOM     27  C   UNL     1       7.009   5.488  16.806  0.00  0.00    +0.000 A 
ATOM     28  C   UNL     1       6.636   6.802  17.087  0.00  0.00    +0.000 A 
ATOM     29  C   UNL     1       5.331   7.096  17.498  0.00  0.00    +0.000 A 
ATOM     30  C   UNL     1       4.379   6.074  17.641  0.00  0.00    +0.000 A 
BRANCH  22  31
ATOM     31  C   UNL     1       1.898   2.658  18.164  0.00  0.00    +0.000 C 
ATOM     32  F   UNL     1       2.494   1.751  17.345  0.00  0.00    +0.000 F 
ENDBRANCH  22  31
ENDBRANCH   4  20
TORSDOF 3
ENDMDL
MODEL 8
REMARK VINA RESULT:      -8.2      2.920      4.139
REMARK  Name = 
REMARK  5 active torsions:
REMARK  status: ('A' for Active; 'I' for Inactive)
REMARK    1  A    between atoms: C_1  and  N_2
REMARK    2  A    between atoms: C_8  and  N_9
REMARK    3  A    between atoms: N_12  and  C_13
REMARK    4  A    between atoms: C_15  and  C_16
REMARK    5  A    between atoms: C_15  and  C_17
REMARK                            x       y       z     vdW  Elec       q    Type
REMARK                         _______ _______ _______ _____ _____    ______ ____
ROOT
ATOM      1  N   UNL     1       1.610   8.838  19.873  0.00  0.00    +0.000 N 
ATOM      2  C   UNL     1       1.926   8.094  18.757  0.00  0.00    +0.000 C 
ATOM      3  O   UNL     1       1.643   8.398  17.605  0.00  0.00    +0.000 OA
ATOM      4  N   UNL     1       2.609   6.916  19.026  0.00  0.00    +0.000 N 
ATOM      5  H   UNL     1       1.444   8.281  20.699  0.00  0.00    +0.000 HD
ATOM      6  H   UNL     1       2.794   6.613  19.969  0.00  0.00    +0.000 HD
ENDROOT
BRANCH   1  14
ATOM      7  C   UNL     1      -1.338  14.064  21.886  0.00  0.00    +0.000 C 
ATOM      8  N   UNL     1      -0.988  12.650  21.883  0.00  0.00    +0.000 N 
ATOM      9  C   UNL     1      -1.510  11.881  22.901  0.00  0.00    +0.000 C 
ATOM     10  O   UNL     1      -2.286  12.292  23.767  0.00  0.00    +0.000 OA
ATOM     11  N   UNL     1      -1.162  10.574  22.927  0.00  0.00    +0.000 N 
ATOM     12  C   UNL     1      -0.045  10.033  22.215  0.00  0.00    +0.000 C 
ATOM     13  C   UNL     1       0.303  10.760  20.954  0.00  0.00    +0.000 A 
ATOM     14  C   UNL     1       1.100  10.182  19.927  0.00  0.00    +0.000 A 
ATOM     15  C   UNL     1       1.395  10.977  18.803  0.00  0.00    +0.000 A 
ATOM     16  C   UNL     1       0.962  12.301  18.712  0.00  0.00    +0.000 A 
ATOM     17  C   UNL     1       0.197  12.860  19.729  0.00  0.00    +0.000 A 
ATOM     18  C   UNL     1      -0.157  12.101  20.851  0.00  0.00    +0.000 A 
ATOM     19  H   UNL     1      -1.446  10.111  23.778  0.00  0.00    +0.000 HD
ENDBRANCH   1  14
BRANCH   4  20
ATOM     20  C   UNL     1       2.982   6.060  17.890  0.00  0.00    +0.000 C 
ATOM     21  C   UNL     1       2.207   4.735  17.891  0.00  0.00    +0.000 C 
ATOM     22  C   UNL     1       3.061   3.525  18.287  0.00  0.00    +0.000 C 
ATOM     23  C   UNL     1       3.521   3.529  19.756  0.00  0.00    +0.000 C 
ATOM     24  O   UNL     1       4.208   3.429  17.427  0.00  0.00    +0.000 OA
ATOM     25  C   UNL     1       4.959   4.573  17.347  0.00  0.00    +0.000 A 
ATOM     26  C   UNL     1       6.269   4.391  16.902  0.00  0.00    +0.000 A 
ATOM     27  C   UNL     1       7.122   5.483  16.789  0.00  0.00    +0.000 A 
ATOM     28  C   UNL     1       6.660   6.756  17.122  0.00  0.00    +0.000 A 
ATOM     29  C   UNL     1       5.340   6.941  17.550  0.00  0.00    +0.000 A 
ATOM     30  C   UNL     1       4.463   5.851  17.656  0.00  0.00    +0.000 A 
BRANCH  22  31
ATOM     31  C   UNL     1       2.230   2.251  18.053  0.00  0.00    +0.000 C 
ATOM     32  F   UNL     1       0.949   2.449  18.464  0.00  0.00    +0.000 F 
ENDBRANCH  22  31
ENDBRANCH   4  20
TORSDOF 3
ENDMDL
MODEL 9
REMARK VINA RESULT:      -8.0      2.823      3.906
REMARK  Name = 
REMARK  5 active torsions:
REMARK  status: ('A' for Active; 'I' for Inactive)
REMARK    1  A    between atoms: C_1  and  N_2
REMARK    2  A    between atoms: C_8  and  N_9
REMARK    3  A    between atoms: N_12  and  C_13
REMARK    4  A    between atoms: C_15  and  C_16
REMARK    5  A    between atoms: C_15  and  C_17
REMARK                            x       y       z     vdW  Elec       q    Type
REMARK                         _______ _______ _______ _____ _____    ______ ____
ROOT
ATOM      1  N   UNL     1       1.847   8.138  20.909  0.00  0.00    +0.000 N 
ATOM      2  C   UNL     1       1.950   7.534  19.675  0.00  0.00    +0.000 C 
ATOM      3  O   UNL     1       1.188   7.719  18.735  0.00  0.00    +0.000 OA
ATOM      4  N   UNL     1       3.016   6.653  19.554  0.00  0.00    +0.000 N 
ATOM      5  H   UNL     1       2.177   7.564  21.672  0.00  0.00    +0.000 HD
ATOM      6  H   UNL     1       3.617   6.435  20.333  0.00  0.00    +0.000 HD
ENDROOT
BRANCH   1  14
ATOM      7  C   UNL     1      -1.136  13.720  20.855  0.00  0.00    +0.000 C 
ATOM      8  N   UNL     1      -0.150  12.733  20.436  0.00  0.00    +0.000 N 
ATOM      9  C   UNL     1       0.652  13.073  19.368  0.00  0.00    +0.000 C 
ATOM     10  O   UNL     1       0.628  14.163  18.789  0.00  0.00    +0.000 OA
ATOM     11  N   UNL     1       1.546  12.150  18.949  0.00  0.00    +0.000 N 
ATOM     12  C   UNL     1       1.474  10.761  19.286  0.00  0.00    +0.000 C 
ATOM     13  C   UNL     1       0.830  10.472  20.605  0.00  0.00    +0.000 A 
ATOM     14  C   UNL     1       1.000   9.236  21.291  0.00  0.00    +0.000 A 
ATOM     15  C   UNL     1       0.313   9.064  22.507  0.00  0.00    +0.000 A 
ATOM     16  C   UNL     1      -0.543  10.048  23.008  0.00  0.00    +0.000 A 
ATOM     17  C   UNL     1      -0.713  11.244  22.322  0.00  0.00    +0.000 A 
ATOM     18  C   UNL     1      -0.023  11.482  21.127  0.00  0.00    +0.000 A 
ATOM     19  H   UNL     1       1.984  12.399  18.073  0.00  0.00    +0.000 HD
ENDBRANCH   1  14
BRANCH   4  20
ATOM     20  C   UNL     1       3.197   5.963  18.268  0.00  0.00    +0.000 C 
ATOM     21  C   UNL     1       2.397   4.654  18.202  0.00  0.00    +0.000 C 
ATOM     22  C   UNL     1       3.269   3.396  18.297  0.00  0.00    +0.000 C 
ATOM     23  C   UNL     1       3.939   3.193  19.667  0.00  0.00    +0.000 C 
ATOM     24  O   UNL     1       4.275   3.416  17.271  0.00  0.00    +0.000 OA
ATOM     25  C   UNL     1       5.034   4.556  17.238  0.00  0.00    +0.000 A 
ATOM     26  C   UNL     1       6.260   4.432  16.583  0.00  0.00    +0.000 A 
ATOM     27  C   UNL     1       7.115   5.525  16.495  0.00  0.00    +0.000 A 
ATOM     28  C   UNL     1       6.739   6.741  17.066  0.00  0.00    +0.000 A 
ATOM     29  C   UNL     1       5.501   6.871  17.705  0.00  0.00    +0.000 A 
ATOM     30  C   UNL     1       4.622   5.781  17.790  0.00  0.00    +0.000 A 
BRANCH  22  31
ATOM     31  C   UNL     1       2.380   2.171  18.016  0.00  0.00    +0.000 C 
ATOM     32  F   UNL     1       1.960   1.623  19.187  0.00  0.00    +0.000 F 
ENDBRANCH  22  31
ENDBRANCH   4  20
TORSDOF 3
ENDMDL
