MODEL 1
REMARK VINA RESULT:      -7.1      0.000      0.000
REMARK  Name = 
REMARK  3 active torsions:
REMARK  status: ('A' for Active; 'I' for Inactive)
REMARK    1  A    between atoms: N_1  and  C_2
REMARK    2  A    between atoms: C_4  and  N_5
REMARK    3  A    between atoms: C_15  and  O_16
REMARK                            x       y       z     vdW  Elec       q    Type
REMARK                         _______ _______ _______ _____ _____    ______ ____
ROOT
ATOM      1  C   UNL     1       1.543   3.147  21.122  0.00  0.00    +0.000 A 
ATOM      2  C   UNL     1       1.759   4.514  21.063  0.00  0.00    +0.000 A 
ATOM      3  C   UNL     1       2.451   5.122  19.992  0.00  0.00    +0.000 A 
ATOM      4  C   UNL     1       3.074   4.331  18.958  0.00  0.00    +0.000 A 
ATOM      5  C   UNL     1       2.891   2.926  19.097  0.00  0.00    +0.000 A 
ATOM      6  C   UNL     1       3.467   2.041  18.187  0.00  0.00    +0.000 A 
ATOM      7  C   UNL     1       4.241   2.506  17.132  0.00  0.00    +0.000 A 
ATOM      8  C   UNL     1       4.463   3.849  16.927  0.00  0.00    +0.000 A 
ATOM      9  N   UNL     1       5.240   4.145  15.876  0.00  0.00    +0.000 NA
ATOM     10  C   UNL     1       5.496   5.422  15.628  0.00  0.00    +0.000 A 
ATOM     11  N   UNL     1       6.319   5.724  14.566  0.00  0.00    +0.000 N 
ATOM     12  N   UNL     1       4.973   6.429  16.306  0.00  0.00    +0.000 NA
ATOM     13  C   UNL     1       4.194   6.084  17.343  0.00  0.00    +0.000 A 
ATOM     14  C   UNL     1       3.881   4.787  17.793  0.00  0.00    +0.000 A 
ATOM     15  C   UNL     1       2.155   2.364  20.155  0.00  0.00    +0.000 A 
ATOM     16  H   UNL     1       6.318   4.969  13.896  0.00  0.00    +0.000 HD
ATOM     17  H   UNL     1       6.132   6.655  14.222  0.00  0.00    +0.000 HD
ENDROOT
BRANCH   1  18
ATOM     18  N   UNL     1       0.964   2.565  22.254  0.00  0.00    +0.000 N 
ATOM     19  H   UNL     1       1.515   2.670  23.099  0.00  0.00    +0.000 HD
ATOM     20  H   UNL     1      -0.012   2.805  22.395  0.00  0.00    +0.000 HD
ENDBRANCH   1  18
BRANCH   3  21
ATOM     21  N   UNL     1       2.707   6.499  20.162  0.00  0.00    +0.000 N 
ATOM     22  H   UNL     1       3.127   6.943  19.354  0.00  0.00    +0.000 HD
ATOM     23  H   UNL     1       3.231   6.704  21.011  0.00  0.00    +0.000 HD
ENDBRANCH   3  21
BRANCH  13  24
ATOM     24  O   UNL     1       3.679   7.208  17.903  0.00  0.00    +0.000 OA
ATOM     25  H   UNL     1       3.741   6.957  18.844  0.00  0.00    +0.000 HD
ENDBRANCH  13  24
TORSDOF 3
ENDMDL
MODEL 2
REMARK VINA RESULT:      -7.0      1.964      3.189
REMARK  Name = 
REMARK  3 active torsions:
REMARK  status: ('A' for Active; 'I' for Inactive)
REMARK    1  A    between atoms: N_1  and  C_2
REMARK    2  A    between atoms: C_4  and  N_5
REMARK    3  A    between atoms: C_15  and  O_16
REMARK                            x       y       z     vdW  Elec       q    Type
REMARK                         _______ _______ _______ _____ _____    ______ ____
ROOT
ATOM      1  C   UNL     1       1.646   4.079  19.642  0.00  0.00    +0.000 A 
ATOM      2  C   UNL     1       2.118   2.944  19.005  0.00  0.00    +0.000 A 
ATOM      3  C   UNL     1       3.177   2.989  18.072  0.00  0.00    +0.000 A 
ATOM      4  C   UNL     1       3.748   4.245  17.647  0.00  0.00    +0.000 A 
ATOM      5  C   UNL     1       3.183   5.393  18.271  0.00  0.00    +0.000 A 
ATOM      6  C   UNL     1       3.616   6.672  17.930  0.00  0.00    +0.000 A 
ATOM      7  C   UNL     1       4.598   6.861  16.966  0.00  0.00    +0.000 A 
ATOM      8  C   UNL     1       5.195   5.803  16.318  0.00  0.00    +0.000 A 
ATOM      9  N   UNL     1       6.116   6.140  15.405  0.00  0.00    +0.000 NA
ATOM     10  C   UNL     1       6.725   5.166  14.743  0.00  0.00    +0.000 A 
ATOM     11  N   UNL     1       7.649   5.513  13.783  0.00  0.00    +0.000 N 
ATOM     12  N   UNL     1       6.537   3.878  14.977  0.00  0.00    +0.000 NA
ATOM     13  C   UNL     1       5.613   3.590  15.907  0.00  0.00    +0.000 A 
ATOM     14  C   UNL     1       4.822   4.490  16.646  0.00  0.00    +0.000 A 
ATOM     15  C   UNL     1       2.157   5.300  19.230  0.00  0.00    +0.000 A 
ATOM     16  H   UNL     1       8.014   6.437  13.966  0.00  0.00    +0.000 HD
ATOM     17  H   UNL     1       8.314   4.768  13.641  0.00  0.00    +0.000 HD
ENDROOT
BRANCH   1  18
ATOM     18  N   UNL     1       0.516   4.018  20.464  0.00  0.00    +0.000 N 
ATOM     19  H   UNL     1       0.719   3.769  21.427  0.00  0.00    +0.000 HD
ATOM     20  H   UNL     1      -0.097   4.824  20.394  0.00  0.00    +0.000 HD
ENDBRANCH   1  18
BRANCH   3  21
ATOM     21  N   UNL     1       3.435   1.769  17.413  0.00  0.00    +0.000 N 
ATOM     22  H   UNL     1       2.671   1.104  17.462  0.00  0.00    +0.000 HD
ATOM     23  H   UNL     1       4.315   1.341  17.698  0.00  0.00    +0.000 HD
ENDBRANCH   3  21
BRANCH  13  24
ATOM     24  O   UNL     1       5.571   2.245  16.087  0.00  0.00    +0.000 OA
ATOM     25  H   UNL     1       4.685   2.065  15.719  0.00  0.00    +0.000 HD
ENDBRANCH  13  24
TORSDOF 3
ENDMDL
MODEL 3
REMARK VINA RESULT:      -6.9      1.253      5.231
REMARK  Name = 
REMARK  3 active torsions:
REMARK  status: ('A' for Active; 'I' for Inactive)
REMARK    1  A    between atoms: N_1  and  C_2
REMARK    2  A    between atoms: C_4  and  N_5
REMARK    3  A    between atoms: C_15  and  O_16
REMARK                            x       y       z     vdW  Elec       q    Type
REMARK                         _______ _______ _______ _____ _____    ______ ____
ROOT
ATOM      1  C   UNL     1       5.478   5.459  15.570  0.00  0.00    +0.000 A 
ATOM      2  C   UNL     1       4.894   6.446  16.346  0.00  0.00    +0.000 A 
ATOM      3  C   UNL     1       4.188   6.151  17.533  0.00  0.00    +0.000 A 
ATOM      4  C   UNL     1       3.939   4.789  17.938  0.00  0.00    +0.000 A 
ATOM      5  C   UNL     1       4.494   3.804  17.073  0.00  0.00    +0.000 A 
ATOM      6  C   UNL     1       4.302   2.447  17.325  0.00  0.00    +0.000 A 
ATOM      7  C   UNL     1       3.557   2.022  18.417  0.00  0.00    +0.000 A 
ATOM      8  C   UNL     1       2.990   2.911  19.302  0.00  0.00    +0.000 A 
ATOM      9  N   UNL     1       2.290   2.355  20.300  0.00  0.00    +0.000 NA
ATOM     10  C   UNL     1       1.714   3.158  21.184  0.00  0.00    +0.000 A 
ATOM     11  N   UNL     1       0.969   2.587  22.191  0.00  0.00    +0.000 N 
ATOM     12  N   UNL     1       1.848   4.473  21.189  0.00  0.00    +0.000 NA
ATOM     13  C   UNL     1       2.567   4.984  20.177  0.00  0.00    +0.000 A 
ATOM     14  C   UNL     1       3.178   4.290  19.116  0.00  0.00    +0.000 A 
ATOM     15  C   UNL     1       5.230   4.142  15.922  0.00  0.00    +0.000 A 
ATOM     16  H   UNL     1       1.262   1.633  22.346  0.00  0.00    +0.000 HD
ATOM     17  H   UNL     1       0.925   3.198  22.993  0.00  0.00    +0.000 HD
ENDROOT
BRANCH   1  18
ATOM     18  N   UNL     1       6.062   5.773  14.338  0.00  0.00    +0.000 N 
ATOM     19  H   UNL     1       5.760   5.176  13.575  0.00  0.00    +0.000 HD
ATOM     20  H   UNL     1       6.026   6.758  14.096  0.00  0.00    +0.000 HD
ENDBRANCH   1  18
BRANCH   3  21
ATOM     21  N   UNL     1       3.536   7.256  18.120  0.00  0.00    +0.000 N 
ATOM     22  H   UNL     1       3.198   7.084  19.061  0.00  0.00    +0.000 HD
ATOM     23  H   UNL     1       2.801   7.644  17.530  0.00  0.00    +0.000 HD
ENDBRANCH   3  21
BRANCH  13  24
ATOM     24  O   UNL     1       2.673   6.327  20.344  0.00  0.00    +0.000 OA
ATOM     25  H   UNL     1       2.862   6.352  21.301  0.00  0.00    +0.000 HD
ENDBRANCH  13  24
TORSDOF 3
ENDMDL
MODEL 4
REMARK VINA RESULT:      -6.8      1.882      2.684
REMARK  Name = 
REMARK  3 active torsions:
REMARK  status: ('A' for Active; 'I' for Inactive)
REMARK    1  A    between atoms: N_1  and  C_2
REMARK    2  A    between atoms: C_4  and  N_5
REMARK    3  A    between atoms: C_15  and  O_16
REMARK                            x       y       z     vdW  Elec       q    Type
REMARK                         _______ _______ _______ _____ _____    ______ ____
ROOT
ATOM      1  C   UNL     1       1.825   2.980  21.636  0.00  0.00    +0.000 A 
ATOM      2  C   UNL     1       3.029   2.396  21.278  0.00  0.00    +0.000 A 
ATOM      3  C   UNL     1       3.890   2.973  20.319  0.00  0.00    +0.000 A 
ATOM      4  C   UNL     1       3.503   4.147  19.575  0.00  0.00    +0.000 A 
ATOM      5  C   UNL     1       2.226   4.673  19.921  0.00  0.00    +0.000 A 
ATOM      6  C   UNL     1       1.712   5.785  19.257  0.00  0.00    +0.000 A 
ATOM      7  C   UNL     1       2.424   6.400  18.236  0.00  0.00    +0.000 A 
ATOM      8  C   UNL     1       3.666   5.954  17.843  0.00  0.00    +0.000 A 
ATOM      9  N   UNL     1       4.226   6.640  16.838  0.00  0.00    +0.000 NA
ATOM     10  C   UNL     1       5.422   6.257  16.409  0.00  0.00    +0.000 A 
ATOM     11  N   UNL     1       5.983   6.941  15.355  0.00  0.00    +0.000 N 
ATOM     12  N   UNL     1       6.132   5.287  16.960  0.00  0.00    +0.000 NA
ATOM     13  C   UNL     1       5.534   4.637  17.971  0.00  0.00    +0.000 A 
ATOM     14  C   UNL     1       4.248   4.858  18.499  0.00  0.00    +0.000 A 
ATOM     15  C   UNL     1       1.418   4.092  20.915  0.00  0.00    +0.000 A 
ATOM     16  H   UNL     1       5.589   7.869  15.291  0.00  0.00    +0.000 HD
ATOM     17  H   UNL     1       6.989   6.862  15.373  0.00  0.00    +0.000 HD
ENDROOT
BRANCH   1  18
ATOM     18  N   UNL     1       0.940   2.321  22.495  0.00  0.00    +0.000 N 
ATOM     19  H   UNL     1       1.210   1.367  22.712  0.00  0.00    +0.000 HD
ATOM     20  H   UNL     1       0.689   2.850  23.324  0.00  0.00    +0.000 HD
ENDBRANCH   1  18
BRANCH   3  21
ATOM     21  N   UNL     1       5.001   2.177  19.970  0.00  0.00    +0.000 N 
ATOM     22  H   UNL     1       5.892   2.561  20.260  0.00  0.00    +0.000 HD
ATOM     23  H   UNL     1       5.012   1.922  18.983  0.00  0.00    +0.000 HD
ENDBRANCH   3  21
BRANCH  13  24
ATOM     24  O   UNL     1       6.396   3.719  18.478  0.00  0.00    +0.000 OA
ATOM     25  H   UNL     1       7.059   4.322  18.864  0.00  0.00    +0.000 HD
ENDBRANCH  13  24
TORSDOF 3
ENDMDL
MODEL 5
REMARK VINA RESULT:      -6.7      1.650      2.808
REMARK  Name = 
REMARK  3 active torsions:
REMARK  status: ('A' for Active; 'I' for Inactive)
REMARK    1  A    between atoms: N_1  and  C_2
REMARK    2  A    between atoms: C_4  and  N_5
REMARK    3  A    between atoms: C_15  and  O_16
REMARK                            x       y       z     vdW  Elec       q    Type
REMARK                         _______ _______ _______ _____ _____    ______ ____
ROOT
ATOM      1  C   UNL     1       1.802   2.960  21.420  0.00  0.00    +0.000 A 
ATOM      2  C   UNL     1       2.458   2.138  20.520  0.00  0.00    +0.000 A 
ATOM      3  C   UNL     1       3.196   2.652  19.430  0.00  0.00    +0.000 A 
ATOM      4  C   UNL     1       3.207   4.064  19.132  0.00  0.00    +0.000 A 
ATOM      5  C   UNL     1       2.459   4.866  20.039  0.00  0.00    +0.000 A 
ATOM      6  C   UNL     1       2.356   6.243  19.852  0.00  0.00    +0.000 A 
ATOM      7  C   UNL     1       2.968   6.864  18.772  0.00  0.00    +0.000 A 
ATOM      8  C   UNL     1       3.711   6.160  17.851  0.00  0.00    +0.000 A 
ATOM      9  N   UNL     1       4.231   6.892  16.857  0.00  0.00    +0.000 NA
ATOM     10  C   UNL     1       4.953   6.271  15.934  0.00  0.00    +0.000 A 
ATOM     11  N   UNL     1       5.461   7.019  14.896  0.00  0.00    +0.000 N 
ATOM     12  N   UNL     1       5.258   4.985  15.972  0.00  0.00    +0.000 NA
ATOM     13  C   UNL     1       4.724   4.295  16.992  0.00  0.00    +0.000 A 
ATOM     14  C   UNL     1       3.876   4.775  18.008  0.00  0.00    +0.000 A 
ATOM     15  C   UNL     1       1.774   4.318  21.139  0.00  0.00    +0.000 A 
ATOM     16  H   UNL     1       5.536   7.990  15.167  0.00  0.00    +0.000 HD
ATOM     17  H   UNL     1       6.282   6.579  14.507  0.00  0.00    +0.000 HD
ENDROOT
BRANCH   1  18
ATOM     18  N   UNL     1       0.980   2.418  22.413  0.00  0.00    +0.000 N 
ATOM     19  H   UNL     1      -0.012   2.474  22.203  0.00  0.00    +0.000 HD
ATOM     20  H   UNL     1       1.257   1.494  22.727  0.00  0.00    +0.000 HD
ENDBRANCH   1  18
BRANCH   3  21
ATOM     21  N   UNL     1       3.678   1.676  18.533  0.00  0.00    +0.000 N 
ATOM     22  H   UNL     1       3.405   0.728  18.767  0.00  0.00    +0.000 HD
ATOM     23  H   UNL     1       4.683   1.742  18.375  0.00  0.00    +0.000 HD
ENDBRANCH   3  21
BRANCH  13  24
ATOM     24  O   UNL     1       5.168   3.014  16.939  0.00  0.00    +0.000 OA
ATOM     25  H   UNL     1       6.119   3.171  17.093  0.00  0.00    +0.000 HD
ENDBRANCH  13  24
TORSDOF 3
ENDMDL
MODEL 6
REMARK VINA RESULT:      -6.7      2.460      3.201
REMARK  Name = 
REMARK  3 active torsions:
REMARK  status: ('A' for Active; 'I' for Inactive)
REMARK    1  A    between atoms: N_1  and  C_2
REMARK    2  A    between atoms: C_4  and  N_5
REMARK    3  A    between atoms: C_15  and  O_16
REMARK                            x       y       z     vdW  Elec       q    Type
REMARK                         _______ _______ _______ _____ _____    ______ ____
ROOT
ATOM      1  C   UNL     1       1.511   3.169  19.480  0.00  0.00    +0.000 A 
ATOM      2  C   UNL     1       2.769   2.639  19.716  0.00  0.00    +0.000 A 
ATOM      3  C   UNL     1       3.953   3.363  19.454  0.00  0.00    +0.000 A 
ATOM      4  C   UNL     1       3.914   4.657  18.816  0.00  0.00    +0.000 A 
ATOM      5  C   UNL     1       2.605   5.133  18.523  0.00  0.00    +0.000 A 
ATOM      6  C   UNL     1       2.421   6.353  17.877  0.00  0.00    +0.000 A 
ATOM      7  C   UNL     1       3.507   7.128  17.492  0.00  0.00    +0.000 A 
ATOM      8  C   UNL     1       4.804   6.740  17.741  0.00  0.00    +0.000 A 
ATOM      9  N   UNL     1       5.747   7.584  17.301  0.00  0.00    +0.000 NA
ATOM     10  C   UNL     1       7.018   7.264  17.505  0.00  0.00    +0.000 A 
ATOM     11  N   UNL     1       7.986   8.116  17.026  0.00  0.00    +0.000 N 
ATOM     12  N   UNL     1       7.415   6.201  18.183  0.00  0.00    +0.000 NA
ATOM     13  C   UNL     1       6.435   5.391  18.613  0.00  0.00    +0.000 A 
ATOM     14  C   UNL     1       5.048   5.535  18.419  0.00  0.00    +0.000 A 
ATOM     15  C   UNL     1       1.448   4.398  18.841  0.00  0.00    +0.000 A 
ATOM     16  H   UNL     1       7.610   9.047  16.914  0.00  0.00    +0.000 HD
ATOM     17  H   UNL     1       8.841   8.019  17.553  0.00  0.00    +0.000 HD
ENDROOT
BRANCH   1  18
ATOM     18  N   UNL     1       0.365   2.382  19.632  0.00  0.00    +0.000 N 
ATOM     19  H   UNL     1       0.546   1.462  20.020  0.00  0.00    +0.000 HD
ATOM     20  H   UNL     1      -0.407   2.852  20.092  0.00  0.00    +0.000 HD
ENDBRANCH   1  18
BRANCH   3  21
ATOM     21  N   UNL     1       5.143   2.624  19.615  0.00  0.00    +0.000 N 
ATOM     22  H   UNL     1       5.889   3.136  20.071  0.00  0.00    +0.000 HD
ATOM     23  H   UNL     1       5.466   2.196  18.748  0.00  0.00    +0.000 HD
ENDBRANCH   3  21
BRANCH  13  24
ATOM     24  O   UNL     1       6.981   4.384  19.341  0.00  0.00    +0.000 OA
ATOM     25  H   UNL     1       7.369   4.907  20.068  0.00  0.00    +0.000 HD
ENDBRANCH  13  24
TORSDOF 3
ENDMDL
MODEL 7
REMARK VINA RESULT:      -6.6      1.814      5.923
REMARK  Name = 
REMARK  3 active torsions:
REMARK  status: ('A' for Active; 'I' for Inactive)
REMARK    1  A    between atoms: N_1  and  C_2
REMARK    2  A    between atoms: C_4  and  N_5
REMARK    3  A    between atoms: C_15  and  O_16
REMARK                            x       y       z     vdW  Elec       q    Type
REMARK                         _______ _______ _______ _____ _____    ______ ____
ROOT
ATOM      1  C   UNL     1       5.032   5.865  15.951  0.00  0.00    +0.000 A 
ATOM      2  C   UNL     1       5.035   4.480  15.969  0.00  0.00    +0.000 A 
ATOM      3  C   UNL     1       4.322   3.738  16.936  0.00  0.00    +0.000 A 
ATOM      4  C   UNL     1       3.643   4.391  18.030  0.00  0.00    +0.000 A 
ATOM      5  C   UNL     1       3.727   5.812  18.015  0.00  0.00    +0.000 A 
ATOM      6  C   UNL     1       3.145   6.569  19.030  0.00  0.00    +0.000 A 
ATOM      7  C   UNL     1       2.482   5.957  20.085  0.00  0.00    +0.000 A 
ATOM      8  C   UNL     1       2.355   4.590  20.172  0.00  0.00    +0.000 A 
ATOM      9  N   UNL     1       1.699   4.144  21.252  0.00  0.00    +0.000 NA
ATOM     10  C   UNL     1       1.548   2.835  21.397  0.00  0.00    +0.000 A 
ATOM     11  N   UNL     1       0.902   2.377  22.523  0.00  0.00    +0.000 N 
ATOM     12  N   UNL     1       1.937   1.940  20.505  0.00  0.00    +0.000 NA
ATOM     13  C   UNL     1       2.578   2.434  19.434  0.00  0.00    +0.000 A 
ATOM     14  C   UNL     1       2.893   3.779  19.160  0.00  0.00    +0.000 A 
ATOM     15  C   UNL     1       4.412   6.514  17.007  0.00  0.00    +0.000 A 
ATOM     16  H   UNL     1       0.304   3.097  22.901  0.00  0.00    +0.000 HD
ATOM     17  H   UNL     1       0.491   1.470  22.355  0.00  0.00    +0.000 HD
ENDROOT
BRANCH   1  18
ATOM     18  N   UNL     1       5.848   6.568  15.058  0.00  0.00    +0.000 N 
ATOM     19  H   UNL     1       5.796   7.577  15.159  0.00  0.00    +0.000 HD
ATOM     20  H   UNL     1       6.804   6.232  15.011  0.00  0.00    +0.000 HD
ENDBRANCH   1  18
BRANCH   3  21
ATOM     21  N   UNL     1       4.550   2.347  16.897  0.00  0.00    +0.000 N 
ATOM     22  H   UNL     1       4.272   1.859  17.741  0.00  0.00    +0.000 HD
ATOM     23  H   UNL     1       5.504   2.108  16.631  0.00  0.00    +0.000 HD
ENDBRANCH   3  21
BRANCH  13  24
ATOM     24  O   UNL     1       2.860   1.417  18.579  0.00  0.00    +0.000 OA
ATOM     25  H   UNL     1       3.154   1.938  17.807  0.00  0.00    +0.000 HD
ENDBRANCH  13  24
TORSDOF 3
ENDMDL
MODEL 8
REMARK VINA RESULT:      -6.5      2.822      4.776
REMARK  Name = 
REMARK  3 active torsions:
REMARK  status: ('A' for Active; 'I' for Inactive)
REMARK    1  A    between atoms: N_1  and  C_2
REMARK    2  A    between atoms: C_4  and  N_5
REMARK    3  A    between atoms: C_15  and  O_16
REMARK                            x       y       z     vdW  Elec       q    Type
REMARK                         _______ _______ _______ _____ _____    ______ ____
ROOT
ATOM      1  C   UNL     1       2.011   9.372  18.372  0.00  0.00    +0.000 A 
ATOM      2  C   UNL     1       1.529   8.756  19.515  0.00  0.00    +0.000 A 
ATOM      3  C   UNL     1       1.960   7.473  19.918  0.00  0.00    +0.000 A 
ATOM      4  C   UNL     1       2.844   6.686  19.092  0.00  0.00    +0.000 A 
ATOM      5  C   UNL     1       3.257   7.327  17.890  0.00  0.00    +0.000 A 
ATOM      6  C   UNL     1       4.084   6.669  16.982  0.00  0.00    +0.000 A 
ATOM      7  C   UNL     1       4.516   5.371  17.220  0.00  0.00    +0.000 A 
ATOM      8  C   UNL     1       4.163   4.683  18.360  0.00  0.00    +0.000 A 
ATOM      9  N   UNL     1       4.645   3.436  18.446  0.00  0.00    +0.000 NA
ATOM     10  C   UNL     1       4.336   2.719  19.518  0.00  0.00    +0.000 A 
ATOM     11  N   UNL     1       4.806   1.427  19.592  0.00  0.00    +0.000 N 
ATOM     12  N   UNL     1       3.645   3.181  20.546  0.00  0.00    +0.000 NA
ATOM     13  C   UNL     1       3.193   4.438  20.419  0.00  0.00    +0.000 A 
ATOM     14  C   UNL     1       3.358   5.309  19.325  0.00  0.00    +0.000 A 
ATOM     15  C   UNL     1       2.838   8.625  17.547  0.00  0.00    +0.000 A 
ATOM     16  H   UNL     1       5.624   1.318  19.008  0.00  0.00    +0.000 HD
ATOM     17  H   UNL     1       4.874   1.126  20.553  0.00  0.00    +0.000 HD
ENDROOT
BRANCH   1  18
ATOM     18  N   UNL     1       1.472  10.586  17.935  0.00  0.00    +0.000 N 
ATOM     19  H   UNL     1       0.459  10.587  17.866  0.00  0.00    +0.000 HD
ATOM     20  H   UNL     1       1.827  11.402  18.423  0.00  0.00    +0.000 HD
ENDBRANCH   1  18
BRANCH   3  21
ATOM     21  N   UNL     1       1.264   6.937  21.022  0.00  0.00    +0.000 N 
ATOM     22  H   UNL     1       1.441   7.420  21.895  0.00  0.00    +0.000 HD
ATOM     23  H   UNL     1       1.394   5.932  21.123  0.00  0.00    +0.000 HD
ENDBRANCH   3  21
BRANCH  13  24
ATOM     24  O   UNL     1       2.561   4.799  21.565  0.00  0.00    +0.000 OA
ATOM     25  H   UNL     1       3.042   5.626  21.757  0.00  0.00    +0.000 HD
ENDBRANCH  13  24
TORSDOF 3
ENDMDL
MODEL 9
REMARK VINA RESULT:      -6.5      2.540      5.723
REMARK  Name = 
REMARK  3 active torsions:
REMARK  status: ('A' for Active; 'I' for Inactive)
REMARK    1  A    between atoms: N_1  and  C_2
REMARK    2  A    between atoms: C_4  and  N_5
REMARK    3  A    between atoms: C_15  and  O_16
REMARK                            x       y       z     vdW  Elec       q    Type
REMARK                         _______ _______ _______ _____ _____    ______ ____
ROOT
ATOM      1  C   UNL     1       7.019   7.340  17.340  0.00  0.00    +0.000 A 
ATOM      2  C   UNL     1       7.368   6.134  17.925  0.00  0.00    +0.000 A 
ATOM      3  C   UNL     1       6.402   5.193  18.345  0.00  0.00    +0.000 A 
ATOM      4  C   UNL     1       4.991   5.493  18.290  0.00  0.00    +0.000 A 
ATOM      5  C   UNL     1       4.679   6.772  17.751  0.00  0.00    +0.000 A 
ATOM      6  C   UNL     1       3.357   7.206  17.670  0.00  0.00    +0.000 A 
ATOM      7  C   UNL     1       2.315   6.409  18.124  0.00  0.00    +0.000 A 
ATOM      8  C   UNL     1       2.533   5.158  18.656  0.00  0.00    +0.000 A 
ATOM      9  N   UNL     1       1.433   4.510  19.062  0.00  0.00    +0.000 NA
ATOM     10  C   UNL     1       1.576   3.302  19.589  0.00  0.00    +0.000 A 
ATOM     11  N   UNL     1       0.448   2.650  20.034  0.00  0.00    +0.000 N 
ATOM     12  N   UNL     1       2.729   2.661  19.671  0.00  0.00    +0.000 NA
ATOM     13  C   UNL     1       3.802   3.345  19.242  0.00  0.00    +0.000 A 
ATOM     14  C   UNL     1       3.842   4.656  18.731  0.00  0.00    +0.000 A 
ATOM     15  C   UNL     1       5.672   7.663  17.303  0.00  0.00    +0.000 A 
ATOM     16  H   UNL     1      -0.372   3.010  19.566  0.00  0.00    +0.000 HD
ATOM     17  H   UNL     1       0.588   1.650  20.029  0.00  0.00    +0.000 HD
ENDROOT
BRANCH   1  18
ATOM     18  N   UNL     1       7.994   8.300  17.051  0.00  0.00    +0.000 N 
ATOM     19  H   UNL     1       7.650   9.255  17.069  0.00  0.00    +0.000 HD
ATOM     20  H   UNL     1       8.858   8.190  17.572  0.00  0.00    +0.000 HD
ENDBRANCH   1  18
BRANCH   3  21
ATOM     21  N   UNL     1       6.923   4.087  19.048  0.00  0.00    +0.000 N 
ATOM     22  H   UNL     1       6.886   3.215  18.533  0.00  0.00    +0.000 HD
ATOM     23  H   UNL     1       6.521   3.983  19.979  0.00  0.00    +0.000 HD
ENDBRANCH   3  21
BRANCH  13  24
ATOM     24  O   UNL     1       4.897   2.548  19.327  0.00  0.00    +0.000 OA
ATOM     25  H   UNL     1       5.518   3.176  19.743  0.00  0.00    +0.000 HD
ENDBRANCH  13  24
TORSDOF 3
ENDMDL
