MODEL 1
REMARK VINA RESULT:      -8.7      0.000      0.000
REMARK  Name = 
REMARK  6 active torsions:
REMARK  status: ('A' for Active; 'I' for Inactive)
REMARK    1  A    between atoms: C_2  and  C_14
REMARK    2  A    between atoms: N_3  and  C_4
REMARK    3  A    between atoms: C_19  and  C_20
REMARK    4  A    between atoms: C_22  and  O_23
REMARK    5  A    between atoms: C_24  and  C_25
REMARK    6  A    between atoms: C_25  and  O_26
REMARK                            x       y       z     vdW  Elec       q    Type
REMARK                         _______ _______ _______ _____ _____    ______ ____
ROOT
ATOM      1  C   UNL     1       0.971   9.278  19.984  0.00  0.00    +0.000 A 
ATOM      2  C   UNL     1       1.069   8.835  21.312  0.00  0.00    +0.000 A 
ATOM      3  C   UNL     1       0.356   9.448  22.341  0.00  0.00    +0.000 A 
ATOM      4  C   UNL     1      -0.477  10.520  22.005  0.00  0.00    +0.000 A 
ATOM      5  S   UNL     1      -1.491  11.444  23.039  0.00  0.00    +0.000 S 
ATOM      6  C   UNL     1      -2.031  12.364  21.691  0.00  0.00    +0.000 A 
ATOM      7  N   UNL     1      -1.482  12.045  20.534  0.00  0.00    +0.000 NA
ATOM      8  C   UNL     1      -0.597  10.988  20.694  0.00  0.00    +0.000 A 
ATOM      9  C   UNL     1       0.148  10.363  19.663  0.00  0.00    +0.000 A 
ENDROOT
BRANCH   6  10
ATOM     10  C   UNL     1      -3.023  13.473  21.910  0.00  0.00    +0.000 C 
ATOM     11  C   UNL     1      -4.384  13.213  21.285  0.00  0.00    +0.000 C 
ATOM     12  C   UNL     1      -5.309  13.991  22.189  0.00  0.00    +0.000 C 
ATOM     13  C   UNL     1      -4.660  13.843  23.562  0.00  0.00    +0.000 C 
ATOM     14  O   UNL     1      -3.244  13.637  23.330  0.00  0.00    +0.000 OA
BRANCH  12  15
ATOM     15  O   UNL     1      -5.335  15.356  21.764  0.00  0.00    +0.000 OA
ATOM     16  H   UNL     1      -5.480  15.392  20.801  0.00  0.00    +0.000 HD
ENDBRANCH  12  15
BRANCH  13  17
ATOM     17  C   UNL     1      -5.193  12.636  24.340  0.00  0.00    +0.000 C 
BRANCH  17  18
ATOM     18  O   UNL     1      -4.466  12.483  25.558  0.00  0.00    +0.000 OA
ATOM     19  H   UNL     1      -4.394  13.377  25.944  0.00  0.00    +0.000 HD
ENDBRANCH  17  18
ENDBRANCH  13  17
ENDBRANCH   6  10
BRANCH   1  21
ATOM     20  O   UNL     1       1.536   8.820  17.801  0.00  0.00    +0.000 OA
ATOM     21  C   UNL     1       1.664   8.445  18.964  0.00  0.00    +0.000 C 
ATOM     22  N   UNL     1       2.332   7.304  19.387  0.00  0.00    +0.000 N 
ATOM     23  H   UNL     1       2.171   6.985  20.331  0.00  0.00    +0.000 HD
BRANCH  22  24
ATOM     24  C   UNL     1       3.047   6.422  18.510  0.00  0.00    +0.000 A 
ATOM     25  C   UNL     1       4.113   6.919  17.740  0.00  0.00    +0.000 A 
ATOM     26  C   UNL     1       4.799   6.122  16.832  0.00  0.00    +0.000 A 
ATOM     27  C   UNL     1       4.453   4.789  16.693  0.00  0.00    +0.000 A 
ATOM     28  C   UNL     1       3.431   4.234  17.468  0.00  0.00    +0.000 A 
ATOM     29  C   UNL     1       3.135   2.874  17.302  0.00  0.00    +0.000 A 
ATOM     30  C   UNL     1       2.123   2.265  18.033  0.00  0.00    +0.000 A 
ATOM     31  C   UNL     1       1.389   3.017  18.941  0.00  0.00    +0.000 A 
ATOM     32  C   UNL     1       1.672   4.379  19.121  0.00  0.00    +0.000 A 
ATOM     33  C   UNL     1       2.703   5.036  18.398  0.00  0.00    +0.000 A 
ENDBRANCH  22  24
ENDBRANCH   1  21
TORSDOF 6
ENDMDL
MODEL 2
REMARK VINA RESULT:      -8.7      1.410      2.001
REMARK  Name = 
REMARK  6 active torsions:
REMARK  status: ('A' for Active; 'I' for Inactive)
REMARK    1  A    between atoms: C_2  and  C_14
REMARK    2  A    between atoms: N_3  and  C_4
REMARK    3  A    between atoms: C_19  and  C_20
REMARK    4  A    between atoms: C_22  and  O_23
REMARK    5  A    between atoms: C_24  and  C_25
REMARK    6  A    between atoms: C_25  and  O_26
REMARK                            x       y       z     vdW  Elec       q    Type
REMARK                         _______ _______ _______ _____ _____    ______ ____
ROOT
ATOM      1  C   UNL     1       0.948   8.915  19.935  0.00  0.00    +0.000 A 
ATOM      2  C   UNL     1       0.639   9.804  18.895  0.00  0.00    +0.000 A 
ATOM      3  C   UNL     1      -0.166  10.923  19.105  0.00  0.00    +0.000 A 
ATOM      4  C   UNL     1      -0.648  11.142  20.399  0.00  0.00    +0.000 A 
ATOM      5  S   UNL     1      -1.625  12.437  20.965  0.00  0.00    +0.000 S 
ATOM      6  C   UNL     1      -1.573  11.784  22.555  0.00  0.00    +0.000 A 
ATOM      7  N   UNL     1      -0.903  10.654  22.678  0.00  0.00    +0.000 NA
ATOM      8  C   UNL     1      -0.362  10.277  21.458  0.00  0.00    +0.000 A 
ATOM      9  C   UNL     1       0.444   9.135  21.222  0.00  0.00    +0.000 A 
ENDROOT
BRANCH   6  10
ATOM     10  C   UNL     1      -2.312  12.486  23.660  0.00  0.00    +0.000 C 
ATOM     11  C   UNL     1      -2.394  13.994  23.484  0.00  0.00    +0.000 C 
ATOM     12  C   UNL     1      -3.678  14.334  24.199  0.00  0.00    +0.000 C 
ATOM     13  C   UNL     1      -4.564  13.124  23.917  0.00  0.00    +0.000 C 
ATOM     14  O   UNL     1      -3.673  12.001  23.703  0.00  0.00    +0.000 OA
BRANCH  12  15
ATOM     15  O   UNL     1      -3.411  14.476  25.596  0.00  0.00    +0.000 OA
ATOM     16  H   UNL     1      -2.703  13.859  25.853  0.00  0.00    +0.000 HD
ENDBRANCH  12  15
BRANCH  13  17
ATOM     17  C   UNL     1      -5.418  13.298  22.657  0.00  0.00    +0.000 C 
BRANCH  17  18
ATOM     18  O   UNL     1      -5.208  12.199  21.771  0.00  0.00    +0.000 OA
ATOM     19  H   UNL     1      -4.317  11.855  21.974  0.00  0.00    +0.000 HD
ENDBRANCH  17  18
ENDBRANCH  13  17
ENDBRANCH   6  10
BRANCH   1  21
ATOM     20  O   UNL     1       2.423   7.271  20.581  0.00  0.00    +0.000 OA
ATOM     21  C   UNL     1       1.934   7.849  19.613  0.00  0.00    +0.000 C 
ATOM     22  N   UNL     1       2.266   7.637  18.281  0.00  0.00    +0.000 N 
ATOM     23  H   UNL     1       1.969   8.326  17.605  0.00  0.00    +0.000 HD
BRANCH  22  24
ATOM     24  C   UNL     1       3.192   6.637  17.834  0.00  0.00    +0.000 A 
ATOM     25  C   UNL     1       4.458   7.024  17.360  0.00  0.00    +0.000 A 
ATOM     26  C   UNL     1       5.369   6.102  16.859  0.00  0.00    +0.000 A 
ATOM     27  C   UNL     1       5.047   4.756  16.850  0.00  0.00    +0.000 A 
ATOM     28  C   UNL     1       3.819   4.315  17.352  0.00  0.00    +0.000 A 
ATOM     29  C   UNL     1       3.552   2.938  17.336  0.00  0.00    +0.000 A 
ATOM     30  C   UNL     1       2.347   2.436  17.811  0.00  0.00    +0.000 A 
ATOM     31  C   UNL     1       1.389   3.312  18.304  0.00  0.00    +0.000 A 
ATOM     32  C   UNL     1       1.639   4.692  18.327  0.00  0.00    +0.000 A 
ATOM     33  C   UNL     1       2.862   5.243  17.859  0.00  0.00    +0.000 A 
ENDBRANCH  22  24
ENDBRANCH   1  21
TORSDOF 6
ENDMDL
MODEL 3
REMARK VINA RESULT:      -8.6      4.261     10.697
REMARK  Name = 
REMARK  6 active torsions:
REMARK  status: ('A' for Active; 'I' for Inactive)
REMARK    1  A    between atoms: C_2  and  C_14
REMARK    2  A    between atoms: N_3  and  C_4
REMARK    3  A    between atoms: C_19  and  C_20
REMARK    4  A    between atoms: C_22  and  O_23
REMARK    5  A    between atoms: C_24  and  C_25
REMARK    6  A    between atoms: C_25  and  O_26
REMARK                            x       y       z     vdW  Elec       q    Type
REMARK                         _______ _______ _______ _____ _____    ______ ____
ROOT
ATOM      1  C   UNL     1       0.982   9.962  19.104  0.00  0.00    +0.000 A 
ATOM      2  C   UNL     1       0.716   9.343  20.335  0.00  0.00    +0.000 A 
ATOM      3  C   UNL     1       1.260   8.102  20.661  0.00  0.00    +0.000 A 
ATOM      4  C   UNL     1       2.099   7.493  19.721  0.00  0.00    +0.000 A 
ATOM      5  S   UNL     1       2.931   5.996  19.850  0.00  0.00    +0.000 S 
ATOM      6  C   UNL     1       3.623   6.244  18.296  0.00  0.00    +0.000 A 
ATOM      7  N   UNL     1       3.248   7.351  17.683  0.00  0.00    +0.000 NA
ATOM      8  C   UNL     1       2.383   8.080  18.486  0.00  0.00    +0.000 A 
ATOM      9  C   UNL     1       1.807   9.334  18.164  0.00  0.00    +0.000 A 
ENDROOT
BRANCH   6  10
ATOM     10  C   UNL     1       4.540   5.198  17.726  0.00  0.00    +0.000 C 
ATOM     11  C   UNL     1       5.382   5.688  16.559  0.00  0.00    +0.000 C 
ATOM     12  C   UNL     1       6.612   4.820  16.662  0.00  0.00    +0.000 C 
ATOM     13  C   UNL     1       6.784   4.635  18.167  0.00  0.00    +0.000 C 
ATOM     14  O   UNL     1       5.464   4.768  18.752  0.00  0.00    +0.000 OA
BRANCH  12  15
ATOM     15  O   UNL     1       6.361   3.576  16.004  0.00  0.00    +0.000 OA
ATOM     16  H   UNL     1       7.163   3.295  15.528  0.00  0.00    +0.000 HD
ENDBRANCH  12  15
BRANCH  13  17
ATOM     17  C   UNL     1       7.690   5.699  18.793  0.00  0.00    +0.000 C 
BRANCH  17  18
ATOM     18  O   UNL     1       7.782   5.491  20.202  0.00  0.00    +0.000 OA
ATOM     19  H   UNL     1       7.116   4.811  20.419  0.00  0.00    +0.000 HD
ENDBRANCH  17  18
ENDBRANCH  13  17
ENDBRANCH   6  10
BRANCH   1  21
ATOM     20  O   UNL     1      -0.545  11.456  18.249  0.00  0.00    +0.000 OA
ATOM     21  C   UNL     1       0.463  11.347  18.943  0.00  0.00    +0.000 C 
ATOM     22  N   UNL     1       1.173  12.390  19.522  0.00  0.00    +0.000 N 
ATOM     23  H   UNL     1       2.101  12.193  19.869  0.00  0.00    +0.000 HD
BRANCH  22  24
ATOM     24  C   UNL     1       0.778  13.767  19.451  0.00  0.00    +0.000 A 
ATOM     25  C   UNL     1      -0.417  14.180  20.067  0.00  0.00    +0.000 A 
ATOM     26  C   UNL     1      -0.875  15.489  19.977  0.00  0.00    +0.000 A 
ATOM     27  C   UNL     1      -0.129  16.431  19.291  0.00  0.00    +0.000 A 
ATOM     28  C   UNL     1       1.089  16.082  18.701  0.00  0.00    +0.000 A 
ATOM     29  C   UNL     1       1.815  17.080  18.034  0.00  0.00    +0.000 A 
ATOM     30  C   UNL     1       3.026  16.795  17.417  0.00  0.00    +0.000 A 
ATOM     31  C   UNL     1       3.524  15.500  17.456  0.00  0.00    +0.000 A 
ATOM     32  C   UNL     1       2.812  14.489  18.117  0.00  0.00    +0.000 A 
ATOM     33  C   UNL     1       1.574  14.741  18.767  0.00  0.00    +0.000 A 
ENDBRANCH  22  24
ENDBRANCH   1  21
TORSDOF 6
ENDMDL
MODEL 4
REMARK VINA RESULT:      -8.5      1.054      1.310
REMARK  Name = 
REMARK  6 active torsions:
REMARK  status: ('A' for Active; 'I' for Inactive)
REMARK    1  A    between atoms: C_2  and  C_14
REMARK    2  A    between atoms: N_3  and  C_4
REMARK    3  A    between atoms: C_19  and  C_20
REMARK    4  A    between atoms: C_22  and  O_23
REMARK    5  A    between atoms: C_24  and  C_25
REMARK    6  A    between atoms: C_25  and  O_26
REMARK                            x       y       z     vdW  Elec       q    Type
REMARK                         _______ _______ _______ _____ _____    ______ ____
ROOT
ATOM      1  C   UNL     1       1.045   9.205  19.956  0.00  0.00    +0.000 A 
ATOM      2  C   UNL     1       1.265   8.798  21.281  0.00  0.00    +0.000 A 
ATOM      3  C   UNL     1       0.577   9.375  22.347  0.00  0.00    +0.000 A 
ATOM      4  C   UNL     1      -0.360  10.372  22.051  0.00  0.00    +0.000 A 
ATOM      5  S   UNL     1      -1.373  11.235  23.138  0.00  0.00    +0.000 S 
ATOM      6  C   UNL     1      -2.072  12.082  21.816  0.00  0.00    +0.000 A 
ATOM      7  N   UNL     1      -1.577  11.783  20.629  0.00  0.00    +0.000 NA
ATOM      8  C   UNL     1      -0.603  10.802  20.745  0.00  0.00    +0.000 A 
ATOM      9  C   UNL     1       0.119  10.216  19.675  0.00  0.00    +0.000 A 
ENDROOT
BRANCH   6  10
ATOM     10  C   UNL     1      -3.131  13.115  22.084  0.00  0.00    +0.000 C 
ATOM     11  C   UNL     1      -3.430  14.013  20.895  0.00  0.00    +0.000 C 
ATOM     12  C   UNL     1      -4.874  14.387  21.126  0.00  0.00    +0.000 C 
ATOM     13  C   UNL     1      -5.463  13.128  21.755  0.00  0.00    +0.000 C 
ATOM     14  O   UNL     1      -4.370  12.447  22.420  0.00  0.00    +0.000 OA
BRANCH  12  15
ATOM     15  O   UNL     1      -4.928  15.498  22.024  0.00  0.00    +0.000 OA
ATOM     16  H   UNL     1      -5.068  15.173  22.932  0.00  0.00    +0.000 HD
ENDBRANCH  12  15
BRANCH  13  17
ATOM     17  C   UNL     1      -6.056  12.171  20.716  0.00  0.00    +0.000 C 
BRANCH  17  18
ATOM     18  O   UNL     1      -6.775  11.127  21.371  0.00  0.00    +0.000 OA
ATOM     19  H   UNL     1      -6.699  11.305  22.328  0.00  0.00    +0.000 HD
ENDBRANCH  17  18
ENDBRANCH  13  17
ENDBRANCH   6  10
BRANCH   1  21
ATOM     20  O   UNL     1       1.534   8.776  17.749  0.00  0.00    +0.000 OA
ATOM     21  C   UNL     1       1.731   8.408  18.904  0.00  0.00    +0.000 C 
ATOM     22  N   UNL     1       2.474   7.301  19.294  0.00  0.00    +0.000 N 
ATOM     23  H   UNL     1       2.370   6.974  20.244  0.00  0.00    +0.000 HD
BRANCH  22  24
ATOM     24  C   UNL     1       3.192   6.455  18.384  0.00  0.00    +0.000 A 
ATOM     25  C   UNL     1       4.246   6.989  17.623  0.00  0.00    +0.000 A 
ATOM     26  C   UNL     1       4.934   6.229  16.685  0.00  0.00    +0.000 A 
ATOM     27  C   UNL     1       4.602   4.898  16.506  0.00  0.00    +0.000 A 
ATOM     28  C   UNL     1       3.592   4.307  17.270  0.00  0.00    +0.000 A 
ATOM     29  C   UNL     1       3.310   2.949  17.062  0.00  0.00    +0.000 A 
ATOM     30  C   UNL     1       2.311   2.305  17.780  0.00  0.00    +0.000 A 
ATOM     31  C   UNL     1       1.575   3.020  18.717  0.00  0.00    +0.000 A 
ATOM     32  C   UNL     1       1.844   4.378  18.939  0.00  0.00    +0.000 A 
ATOM     33  C   UNL     1       2.863   5.070  18.230  0.00  0.00    +0.000 A 
ENDBRANCH  22  24
ENDBRANCH   1  21
TORSDOF 6
ENDMDL
MODEL 5
REMARK VINA RESULT:      -8.5      2.749      3.206
REMARK  Name = 
REMARK  6 active torsions:
REMARK  status: ('A' for Active; 'I' for Inactive)
REMARK    1  A    between atoms: C_2  and  C_14
REMARK    2  A    between atoms: N_3  and  C_4
REMARK    3  A    between atoms: C_19  and  C_20
REMARK    4  A    between atoms: C_22  and  O_23
REMARK    5  A    between atoms: C_24  and  C_25
REMARK    6  A    between atoms: C_25  and  O_26
REMARK                            x       y       z     vdW  Elec       q    Type
REMARK                         _______ _______ _______ _____ _____    ______ ____
ROOT
ATOM      1  C   UNL     1       0.604   9.902  18.736  0.00  0.00    +0.000 A 
ATOM      2  C   UNL     1       0.920  10.662  19.872  0.00  0.00    +0.000 A 
ATOM      3  C   UNL     1      -0.002  11.535  20.448  0.00  0.00    +0.000 A 
ATOM      4  C   UNL     1      -1.269  11.621  19.860  0.00  0.00    +0.000 A 
ATOM      5  S   UNL     1      -2.609  12.574  20.357  0.00  0.00    +0.000 S 
ATOM      6  C   UNL     1      -3.550  11.924  19.073  0.00  0.00    +0.000 A 
ATOM      7  N   UNL     1      -2.918  11.071  18.288  0.00  0.00    +0.000 NA
ATOM      8  C   UNL     1      -1.617  10.881  18.728  0.00  0.00    +0.000 A 
ATOM      9  C   UNL     1      -0.661  10.011  18.146  0.00  0.00    +0.000 A 
ENDROOT
BRANCH   6  10
ATOM     10  C   UNL     1      -4.968  12.388  18.896  0.00  0.00    +0.000 C 
ATOM     11  C   UNL     1      -5.685  11.741  17.721  0.00  0.00    +0.000 C 
ATOM     12  C   UNL     1      -7.126  11.767  18.168  0.00  0.00    +0.000 C 
ATOM     13  C   UNL     1      -7.028  11.553  19.676  0.00  0.00    +0.000 C 
ATOM     14  O   UNL     1      -5.728  12.053  20.079  0.00  0.00    +0.000 OA
BRANCH  12  15
ATOM     15  O   UNL     1      -7.689  13.043  17.854  0.00  0.00    +0.000 OA
ATOM     16  H   UNL     1      -7.014  13.595  17.420  0.00  0.00    +0.000 HD
ENDBRANCH  12  15
BRANCH  13  17
ATOM     17  C   UNL     1      -7.110  10.075  20.069  0.00  0.00    +0.000 C 
BRANCH  17  18
ATOM     18  O   UNL     1      -7.557   9.299  18.957  0.00  0.00    +0.000 OA
ATOM     19  H   UNL     1      -7.027   8.480  18.968  0.00  0.00    +0.000 HD
ENDBRANCH  17  18
ENDBRANCH  13  17
ENDBRANCH   6  10
BRANCH   1  21
ATOM     20  O   UNL     1       2.165   9.125  17.234  0.00  0.00    +0.000 OA
ATOM     21  C   UNL     1       1.621   8.903  18.314  0.00  0.00    +0.000 C 
ATOM     22  N   UNL     1       1.829   7.792  19.120  0.00  0.00    +0.000 N 
ATOM     23  H   UNL     1       1.162   7.611  19.857  0.00  0.00    +0.000 HD
BRANCH  22  24
ATOM     24  C   UNL     1       2.785   6.760  18.835  0.00  0.00    +0.000 A 
ATOM     25  C   UNL     1       3.775   6.979  17.860  0.00  0.00    +0.000 A 
ATOM     26  C   UNL     1       4.686   5.992  17.503  0.00  0.00    +0.000 A 
ATOM     27  C   UNL     1       4.650   4.764  18.140  0.00  0.00    +0.000 A 
ATOM     28  C   UNL     1       3.715   4.512  19.148  0.00  0.00    +0.000 A 
ATOM     29  C   UNL     1       3.735   3.257  19.773  0.00  0.00    +0.000 A 
ATOM     30  C   UNL     1       2.826   2.939  20.774  0.00  0.00    +0.000 A 
ATOM     31  C   UNL     1       1.878   3.879  21.158  0.00  0.00    +0.000 A 
ATOM     32  C   UNL     1       1.843   5.139  20.543  0.00  0.00    +0.000 A 
ATOM     33  C   UNL     1       2.760   5.504  19.522  0.00  0.00    +0.000 A 
ENDBRANCH  22  24
ENDBRANCH   1  21
TORSDOF 6
ENDMDL
MODEL 6
REMARK VINA RESULT:      -8.5      1.449      2.085
REMARK  Name = 
REMARK  6 active torsions:
REMARK  status: ('A' for Active; 'I' for Inactive)
REMARK    1  A    between atoms: C_2  and  C_14
REMARK    2  A    between atoms: N_3  and  C_4
REMARK    3  A    between atoms: C_19  and  C_20
REMARK    4  A    between atoms: C_22  and  O_23
REMARK    5  A    between atoms: C_24  and  C_25
REMARK    6  A    between atoms: C_25  and  O_26
REMARK                            x       y       z     vdW  Elec       q    Type
REMARK                         _______ _______ _______ _____ _____    ______ ____
ROOT
ATOM      1  C   UNL     1       1.137   9.931  19.139  0.00  0.00    +0.000 A 
ATOM      2  C   UNL     1       1.592  11.196  18.738  0.00  0.00    +0.000 A 
ATOM      3  C   UNL     1       1.172  12.360  19.380  0.00  0.00    +0.000 A 
ATOM      4  C   UNL     1       0.287  12.226  20.454  0.00  0.00    +0.000 A 
ATOM      5  S   UNL     1      -0.374  13.462  21.448  0.00  0.00    +0.000 S 
ATOM      6  C   UNL     1      -1.204  12.276  22.375  0.00  0.00    +0.000 A 
ATOM      7  N   UNL     1      -1.042  11.030  21.970  0.00  0.00    +0.000 NA
ATOM      8  C   UNL     1      -0.188  10.983  20.878  0.00  0.00    +0.000 A 
ATOM      9  C   UNL     1       0.237   9.811  20.203  0.00  0.00    +0.000 A 
ENDROOT
BRANCH   6  10
ATOM     10  C   UNL     1      -2.076  12.716  23.517  0.00  0.00    +0.000 C 
ATOM     11  C   UNL     1      -2.329  14.214  23.557  0.00  0.00    +0.000 C 
ATOM     12  C   UNL     1      -3.679  14.298  24.225  0.00  0.00    +0.000 C 
ATOM     13  C   UNL     1      -4.399  13.053  23.712  0.00  0.00    +0.000 C 
ATOM     14  O   UNL     1      -3.370  12.082  23.398  0.00  0.00    +0.000 OA
BRANCH  12  15
ATOM     15  O   UNL     1      -3.501  14.255  25.643  0.00  0.00    +0.000 OA
ATOM     16  H   UNL     1      -2.726  14.792  25.887  0.00  0.00    +0.000 HD
ENDBRANCH  12  15
BRANCH  13  17
ATOM     17  C   UNL     1      -5.203  13.321  22.436  0.00  0.00    +0.000 C 
BRANCH  17  18
ATOM     18  O   UNL     1      -5.513  12.087  21.789  0.00  0.00    +0.000 OA
ATOM     19  H   UNL     1      -5.928  12.325  20.937  0.00  0.00    +0.000 HD
ENDBRANCH  17  18
ENDBRANCH  13  17
ENDBRANCH   6  10
BRANCH   1  21
ATOM     20  O   UNL     1       1.855   8.835  17.247  0.00  0.00    +0.000 OA
ATOM     21  C   UNL     1       1.776   8.765  18.471  0.00  0.00    +0.000 C 
ATOM     22  N   UNL     1       2.166   7.687  19.255  0.00  0.00    +0.000 N 
ATOM     23  H   UNL     1       1.840   7.656  20.211  0.00  0.00    +0.000 HD
BRANCH  22  24
ATOM     24  C   UNL     1       2.801   6.508  18.740  0.00  0.00    +0.000 A 
ATOM     25  C   UNL     1       3.828   6.630  17.787  0.00  0.00    +0.000 A 
ATOM     26  C   UNL     1       4.433   5.519  17.213  0.00  0.00    +0.000 A 
ATOM     27  C   UNL     1       4.047   4.250  17.604  0.00  0.00    +0.000 A 
ATOM     28  C   UNL     1       3.063   4.074  18.581  0.00  0.00    +0.000 A 
ATOM     29  C   UNL     1       2.723   2.766  18.954  0.00  0.00    +0.000 A 
ATOM     30  C   UNL     1       1.746   2.524  19.911  0.00  0.00    +0.000 A 
ATOM     31  C   UNL     1       1.091   3.595  20.504  0.00  0.00    +0.000 A 
ATOM     32  C   UNL     1       1.418   4.910  20.144  0.00  0.00    +0.000 A 
ATOM     33  C   UNL     1       2.417   5.199  19.176  0.00  0.00    +0.000 A 
ENDBRANCH  22  24
ENDBRANCH   1  21
TORSDOF 6
ENDMDL
MODEL 7
REMARK VINA RESULT:      -8.4      3.007     10.611
REMARK  Name = 
REMARK  6 active torsions:
REMARK  status: ('A' for Active; 'I' for Inactive)
REMARK    1  A    between atoms: C_2  and  C_14
REMARK    2  A    between atoms: N_3  and  C_4
REMARK    3  A    between atoms: C_19  and  C_20
REMARK    4  A    between atoms: C_22  and  O_23
REMARK    5  A    between atoms: C_24  and  C_25
REMARK    6  A    between atoms: C_25  and  O_26
REMARK                            x       y       z     vdW  Elec       q    Type
REMARK                         _______ _______ _______ _____ _____    ______ ____
ROOT
ATOM      1  C   UNL     1       0.469  10.100  21.326  0.00  0.00    +0.000 A 
ATOM      2  C   UNL     1       0.615  10.804  20.122  0.00  0.00    +0.000 A 
ATOM      3  C   UNL     1       1.208  10.222  19.002  0.00  0.00    +0.000 A 
ATOM      4  C   UNL     1       1.643   8.897  19.113  0.00  0.00    +0.000 A 
ATOM      5  S   UNL     1       2.374   7.914  17.909  0.00  0.00    +0.000 S 
ATOM      6  C   UNL     1       2.439   6.601  19.017  0.00  0.00    +0.000 A 
ATOM      7  N   UNL     1       1.979   6.862  20.227  0.00  0.00    +0.000 NA
ATOM      8  C   UNL     1       1.515   8.167  20.297  0.00  0.00    +0.000 A 
ATOM      9  C   UNL     1       0.925   8.781  21.430  0.00  0.00    +0.000 A 
ENDROOT
BRANCH   6  10
ATOM     10  C   UNL     1       3.040   5.297  18.575  0.00  0.00    +0.000 C 
ATOM     11  C   UNL     1       4.059   4.727  19.549  0.00  0.00    +0.000 C 
ATOM     12  C   UNL     1       3.946   3.243  19.304  0.00  0.00    +0.000 C 
ATOM     13  C   UNL     1       2.464   3.052  18.995  0.00  0.00    +0.000 C 
ATOM     14  O   UNL     1       1.991   4.309  18.450  0.00  0.00    +0.000 OA
BRANCH  12  15
ATOM     15  O   UNL     1       4.765   2.891  18.186  0.00  0.00    +0.000 OA
ATOM     16  H   UNL     1       5.702   3.029  18.416  0.00  0.00    +0.000 HD
ENDBRANCH  12  15
BRANCH  13  17
ATOM     17  C   UNL     1       1.637   2.737  20.245  0.00  0.00    +0.000 C 
BRANCH  17  18
ATOM     18  O   UNL     1       0.657   3.754  20.450  0.00  0.00    +0.000 OA
ATOM     19  H   UNL     1      -0.096   3.524  19.872  0.00  0.00    +0.000 HD
ENDBRANCH  17  18
ENDBRANCH  13  17
ENDBRANCH   6  10
BRANCH   1  21
ATOM     20  O   UNL     1      -0.202  10.303  23.518  0.00  0.00    +0.000 OA
ATOM     21  C   UNL     1      -0.313  10.783  22.392  0.00  0.00    +0.000 C 
ATOM     22  N   UNL     1      -1.134  11.843  22.033  0.00  0.00    +0.000 N 
ATOM     23  H   UNL     1      -1.310  11.991  21.049  0.00  0.00    +0.000 HD
BRANCH  22  24
ATOM     24  C   UNL     1      -1.930  12.592  22.962  0.00  0.00    +0.000 A 
ATOM     25  C   UNL     1      -3.077  12.006  23.526  0.00  0.00    +0.000 A 
ATOM     26  C   UNL     1      -3.916  12.708  24.383  0.00  0.00    +0.000 A 
ATOM     27  C   UNL     1      -3.609  14.014  24.724  0.00  0.00    +0.000 A 
ATOM     28  C   UNL     1      -2.456  14.628  24.226  0.00  0.00    +0.000 A 
ATOM     29  C   UNL     1      -2.182  15.946  24.619  0.00  0.00    +0.000 A 
ATOM     30  C   UNL     1      -1.060  16.616  24.151  0.00  0.00    +0.000 A 
ATOM     31  C   UNL     1      -0.196  15.971  23.275  0.00  0.00    +0.000 A 
ATOM     32  C   UNL     1      -0.453  14.653  22.871  0.00  0.00    +0.000 A 
ATOM     33  C   UNL     1      -1.586  13.932  23.334  0.00  0.00    +0.000 A 
ENDBRANCH  22  24
ENDBRANCH   1  21
TORSDOF 6
ENDMDL
MODEL 8
REMARK VINA RESULT:      -8.3      3.189     10.948
REMARK  Name = 
REMARK  6 active torsions:
REMARK  status: ('A' for Active; 'I' for Inactive)
REMARK    1  A    between atoms: C_2  and  C_14
REMARK    2  A    between atoms: N_3  and  C_4
REMARK    3  A    between atoms: C_19  and  C_20
REMARK    4  A    between atoms: C_22  and  O_23
REMARK    5  A    between atoms: C_24  and  C_25
REMARK    6  A    between atoms: C_25  and  O_26
REMARK                            x       y       z     vdW  Elec       q    Type
REMARK                         _______ _______ _______ _____ _____    ______ ____
ROOT
ATOM      1  C   UNL     1       0.515   9.987  21.316  0.00  0.00    +0.000 A 
ATOM      2  C   UNL     1       0.571  10.611  20.060  0.00  0.00    +0.000 A 
ATOM      3  C   UNL     1       1.156   9.987  18.960  0.00  0.00    +0.000 A 
ATOM      4  C   UNL     1       1.679   8.703  19.143  0.00  0.00    +0.000 A 
ATOM      5  S   UNL     1       2.425   7.682  17.980  0.00  0.00    +0.000 S 
ATOM      6  C   UNL     1       2.615   6.459  19.172  0.00  0.00    +0.000 A 
ATOM      7  N   UNL     1       2.186   6.777  20.380  0.00  0.00    +0.000 NA
ATOM      8  C   UNL     1       1.642   8.053  20.379  0.00  0.00    +0.000 A 
ATOM      9  C   UNL     1       1.058   8.709  21.491  0.00  0.00    +0.000 A 
ENDROOT
BRANCH   6  10
ATOM     10  C   UNL     1       3.281   5.165  18.796  0.00  0.00    +0.000 C 
ATOM     11  C   UNL     1       3.782   5.126  17.361  0.00  0.00    +0.000 C 
ATOM     12  C   UNL     1       4.948   4.172  17.451  0.00  0.00    +0.000 C 
ATOM     13  C   UNL     1       5.528   4.460  18.833  0.00  0.00    +0.000 C 
ATOM     14  O   UNL     1       4.436   4.962  19.642  0.00  0.00    +0.000 OA
BRANCH  12  15
ATOM     15  O   UNL     1       4.460   2.831  17.354  0.00  0.00    +0.000 OA
ATOM     16  H   UNL     1       4.083   2.562  18.211  0.00  0.00    +0.000 HD
ENDBRANCH  12  15
BRANCH  13  17
ATOM     17  C   UNL     1       6.625   5.528  18.801  0.00  0.00    +0.000 C 
BRANCH  17  18
ATOM     18  O   UNL     1       7.905   4.916  18.954  0.00  0.00    +0.000 OA
ATOM     19  H   UNL     1       8.422   5.169  18.165  0.00  0.00    +0.000 HD
ENDBRANCH  17  18
ENDBRANCH  13  17
ENDBRANCH   6  10
BRANCH   1  21
ATOM     20  O   UNL     1      -0.160  10.242  23.501  0.00  0.00    +0.000 OA
ATOM     21  C   UNL     1      -0.267  10.696  22.364  0.00  0.00    +0.000 C 
ATOM     22  N   UNL     1      -1.085  11.749  21.979  0.00  0.00    +0.000 N 
ATOM     23  H   UNL     1      -1.259  11.875  20.992  0.00  0.00    +0.000 HD
BRANCH  22  24
ATOM     24  C   UNL     1      -1.882  12.521  22.888  0.00  0.00    +0.000 A 
ATOM     25  C   UNL     1      -3.048  11.961  23.440  0.00  0.00    +0.000 A 
ATOM     26  C   UNL     1      -3.887  12.686  24.277  0.00  0.00    +0.000 A 
ATOM     27  C   UNL     1      -3.561  13.989  24.612  0.00  0.00    +0.000 A 
ATOM     28  C   UNL     1      -2.390  14.577  24.127  0.00  0.00    +0.000 A 
ATOM     29  C   UNL     1      -2.098  15.893  24.513  0.00  0.00    +0.000 A 
ATOM     30  C   UNL     1      -0.956  16.538  24.057  0.00  0.00    +0.000 A 
ATOM     31  C   UNL     1      -0.091  15.870  23.200  0.00  0.00    +0.000 A 
ATOM     32  C   UNL     1      -0.366  14.554  22.803  0.00  0.00    +0.000 A 
ATOM     33  C   UNL     1      -1.519  13.857  23.254  0.00  0.00    +0.000 A 
ENDBRANCH  22  24
ENDBRANCH   1  21
TORSDOF 6
ENDMDL
MODEL 9
REMARK VINA RESULT:      -8.3      1.408      2.072
REMARK  Name = 
REMARK  6 active torsions:
REMARK  status: ('A' for Active; 'I' for Inactive)
REMARK    1  A    between atoms: C_2  and  C_14
REMARK    2  A    between atoms: N_3  and  C_4
REMARK    3  A    between atoms: C_19  and  C_20
REMARK    4  A    between atoms: C_22  and  O_23
REMARK    5  A    between atoms: C_24  and  C_25
REMARK    6  A    between atoms: C_25  and  O_26
REMARK                            x       y       z     vdW  Elec       q    Type
REMARK                         _______ _______ _______ _____ _____    ______ ____
ROOT
ATOM      1  C   UNL     1       0.804   9.483  18.787  0.00  0.00    +0.000 A 
ATOM      2  C   UNL     1      -0.157  10.053  17.938  0.00  0.00    +0.000 A 
ATOM      3  C   UNL     1      -1.081  10.987  18.402  0.00  0.00    +0.000 A 
ATOM      4  C   UNL     1      -1.012  11.353  19.751  0.00  0.00    +0.000 A 
ATOM      5  S   UNL     1      -1.985  12.490  20.596  0.00  0.00    +0.000 S 
ATOM      6  C   UNL     1      -1.082  12.201  22.029  0.00  0.00    +0.000 A 
ATOM      7  N   UNL     1      -0.129  11.294  21.921  0.00  0.00    +0.000 NA
ATOM      8  C   UNL     1      -0.070  10.805  20.625  0.00  0.00    +0.000 A 
ATOM      9  C   UNL     1       0.851   9.844  20.138  0.00  0.00    +0.000 A 
ENDROOT
BRANCH   6  10
ATOM     10  C   UNL     1      -1.452  12.933  23.289  0.00  0.00    +0.000 C 
ATOM     11  C   UNL     1      -1.652  14.427  23.095  0.00  0.00    +0.000 C 
ATOM     12  C   UNL     1      -2.649  14.763  24.177  0.00  0.00    +0.000 C 
ATOM     13  C   UNL     1      -3.525  13.515  24.243  0.00  0.00    +0.000 C 
ATOM     14  O   UNL     1      -2.703  12.410  23.791  0.00  0.00    +0.000 OA
BRANCH  12  15
ATOM     15  O   UNL     1      -1.949  14.980  25.404  0.00  0.00    +0.000 OA
ATOM     16  H   UNL     1      -2.581  15.259  26.091  0.00  0.00    +0.000 HD
ENDBRANCH  12  15
BRANCH  13  17
ATOM     17  C   UNL     1      -4.748  13.603  23.326  0.00  0.00    +0.000 C 
BRANCH  17  18
ATOM     18  O   UNL     1      -4.928  12.366  22.636  0.00  0.00    +0.000 OA
ATOM     19  H   UNL     1      -4.230  12.333  21.954  0.00  0.00    +0.000 HD
ENDBRANCH  17  18
ENDBRANCH  13  17
ENDBRANCH   6  10
BRANCH   1  21
ATOM     20  O   UNL     1       2.265   9.033  17.067  0.00  0.00    +0.000 OA
ATOM     21  C   UNL     1       1.822   8.617  18.134  0.00  0.00    +0.000 C 
ATOM     22  N   UNL     1       2.140   7.406  18.734  0.00  0.00    +0.000 N 
ATOM     23  H   UNL     1       1.544   7.077  19.481  0.00  0.00    +0.000 HD
BRANCH  22  24
ATOM     24  C   UNL     1       3.110   6.483  18.216  0.00  0.00    +0.000 A 
ATOM     25  C   UNL     1       4.363   6.957  17.790  0.00  0.00    +0.000 A 
ATOM     26  C   UNL     1       5.314   6.117  17.226  0.00  0.00    +0.000 A 
ATOM     27  C   UNL     1       5.045   4.765  17.101  0.00  0.00    +0.000 A 
ATOM     28  C   UNL     1       3.833   4.236  17.551  0.00  0.00    +0.000 A 
ATOM     29  C   UNL     1       3.620   2.856  17.418  0.00  0.00    +0.000 A 
ATOM     30  C   UNL     1       2.432   2.269  17.835  0.00  0.00    +0.000 A 
ATOM     31  C   UNL     1       1.436   3.064  18.388  0.00  0.00    +0.000 A 
ATOM     32  C   UNL     1       1.631   4.445  18.528  0.00  0.00    +0.000 A 
ATOM     33  C   UNL     1       2.835   5.081  18.122  0.00  0.00    +0.000 A 
ENDBRANCH  22  24
ENDBRANCH   1  21
TORSDOF 6
ENDMDL
