MODEL 1
REMARK VINA RESULT:      -8.1      0.000      0.000
REMARK  Name = 
REMARK  5 active torsions:
REMARK  status: ('A' for Active; 'I' for Inactive)
REMARK    1  A    between atoms: C_2  and  O_3
REMARK    2  A    between atoms: C_2  and  C_14
REMARK    3  A    between atoms: O_3  and  C_4
REMARK    4  A    between atoms: C_4  and  C_5
REMARK    5  A    between atoms: C_19  and  O_20
REMARK                            x       y       z     vdW  Elec       q    Type
REMARK                         _______ _______ _______ _____ _____    ______ ____
ROOT
ATOM      1  O   UNL     1       6.820   4.248  16.735  0.00  0.00    +0.000 OA
ENDROOT
BRANCH   1   3
ATOM      2  O   UNL     1       7.509   6.296  15.974  0.00  0.00    +0.000 OA
ATOM      3  C   UNL     1       7.147   5.158  15.767  0.00  0.00    +0.000 C 
BRANCH   3   4
ATOM      4  C   UNL     1       6.952   4.669  14.365  0.00  0.00    +0.000 A 
ATOM      5  C   UNL     1       5.856   3.821  14.102  0.00  0.00    +0.000 A 
ATOM      6  C   UNL     1       5.602   3.351  12.806  0.00  0.00    +0.000 A 
ATOM      7  C   UNL     1       6.394   3.789  11.747  0.00  0.00    +0.000 A 
ATOM      8  C   UNL     1       7.443   4.681  11.981  0.00  0.00    +0.000 A 
ATOM      9  C   UNL     1       7.733   5.099  13.286  0.00  0.00    +0.000 A 
BRANCH   9  10
ATOM     10  O   UNL     1       8.773   5.956  13.492  0.00  0.00    +0.000 OA
ATOM     11  H   UNL     1       8.873   6.124  14.443  0.00  0.00    +0.000 HD
ENDBRANCH   9  10
ENDBRANCH   3   4
ENDBRANCH   1   3
BRANCH   1  12
ATOM     12  C   UNL     1       6.610   4.718  18.097  0.00  0.00    +0.000 C 
BRANCH  12  13
ATOM     13  C   UNL     1       5.235   4.274  18.520  0.00  0.00    +0.000 A 
ATOM     14  N   UNL     1       4.963   3.618  19.630  0.00  0.00    +0.000 NA
ATOM     15  C   UNL     1       3.597   3.398  19.724  0.00  0.00    +0.000 A 
ATOM     16  C   UNL     1       2.935   2.765  20.795  0.00  0.00    +0.000 A 
ATOM     17  C   UNL     1       1.544   2.621  20.766  0.00  0.00    +0.000 A 
ATOM     18  C   UNL     1       0.809   3.088  19.681  0.00  0.00    +0.000 A 
ATOM     19  C   UNL     1       1.443   3.715  18.604  0.00  0.00    +0.000 A 
ATOM     20  C   UNL     1       2.838   3.868  18.650  0.00  0.00    +0.000 A 
ATOM     21  S   UNL     1       3.885   4.616  17.513  0.00  0.00    +0.000 S 
ENDBRANCH  12  13
ENDBRANCH   1  12
TORSDOF 5
ENDMDL
MODEL 2
REMARK VINA RESULT:      -7.8      1.276      1.715
REMARK  Name = 
REMARK  5 active torsions:
REMARK  status: ('A' for Active; 'I' for Inactive)
REMARK    1  A    between atoms: C_2  and  O_3
REMARK    2  A    between atoms: C_2  and  C_14
REMARK    3  A    between atoms: O_3  and  C_4
REMARK    4  A    between atoms: C_4  and  C_5
REMARK    5  A    between atoms: C_19  and  O_20
REMARK                            x       y       z     vdW  Elec       q    Type
REMARK                         _______ _______ _______ _____ _____    ______ ____
ROOT
ATOM      1  O   UNL     1       5.685   6.275  15.855  0.00  0.00    +0.000 OA
ENDROOT
BRANCH   1   3
ATOM      2  O   UNL     1       7.687   5.273  16.343  0.00  0.00    +0.000 OA
ATOM      3  C   UNL     1       6.740   5.441  15.604  0.00  0.00    +0.000 C 
BRANCH   3   4
ATOM      4  C   UNL     1       6.696   4.770  14.266  0.00  0.00    +0.000 A 
ATOM      5  C   UNL     1       5.607   3.918  13.984  0.00  0.00    +0.000 A 
ATOM      6  C   UNL     1       5.493   3.281  12.740  0.00  0.00    +0.000 A 
ATOM      7  C   UNL     1       6.422   3.554  11.739  0.00  0.00    +0.000 A 
ATOM      8  C   UNL     1       7.469   4.446  11.981  0.00  0.00    +0.000 A 
ATOM      9  C   UNL     1       7.616   5.032  13.245  0.00  0.00    +0.000 A 
BRANCH   9  10
ATOM     10  O   UNL     1       8.656   5.886  13.462  0.00  0.00    +0.000 OA
ATOM     11  H   UNL     1       8.316   6.737  13.786  0.00  0.00    +0.000 HD
ENDBRANCH   9  10
ENDBRANCH   3   4
ENDBRANCH   1   3
BRANCH   1  12
ATOM     12  C   UNL     1       5.429   6.689  17.227  0.00  0.00    +0.000 C 
BRANCH  12  13
ATOM     13  C   UNL     1       4.518   5.662  17.844  0.00  0.00    +0.000 A 
ATOM     14  N   UNL     1       3.258   5.472  17.507  0.00  0.00    +0.000 NA
ATOM     15  C   UNL     1       2.725   4.427  18.246  0.00  0.00    +0.000 A 
ATOM     16  C   UNL     1       1.418   3.912  18.125  0.00  0.00    +0.000 A 
ATOM     17  C   UNL     1       1.014   2.841  18.928  0.00  0.00    +0.000 A 
ATOM     18  C   UNL     1       1.891   2.285  19.855  0.00  0.00    +0.000 A 
ATOM     19  C   UNL     1       3.190   2.780  19.998  0.00  0.00    +0.000 A 
ATOM     20  C   UNL     1       3.590   3.847  19.176  0.00  0.00    +0.000 A 
ATOM     21  S   UNL     1       5.112   4.639  19.091  0.00  0.00    +0.000 S 
ENDBRANCH  12  13
ENDBRANCH   1  12
TORSDOF 5
ENDMDL
MODEL 3
REMARK VINA RESULT:      -7.7      2.227      6.844
REMARK  Name = 
REMARK  5 active torsions:
REMARK  status: ('A' for Active; 'I' for Inactive)
REMARK    1  A    between atoms: C_2  and  O_3
REMARK    2  A    between atoms: C_2  and  C_14
REMARK    3  A    between atoms: O_3  and  C_4
REMARK    4  A    between atoms: C_4  and  C_5
REMARK    5  A    between atoms: C_19  and  O_20
REMARK                            x       y       z     vdW  Elec       q    Type
REMARK                         _______ _______ _______ _____ _____    ______ ____
ROOT
ATOM      1  O   UNL     1       5.586   6.028  18.221  0.00  0.00    +0.000 OA
ENDROOT
BRANCH   1   3
ATOM      2  O   UNL     1       6.547   4.846  19.933  0.00  0.00    +0.000 OA
ATOM      3  C   UNL     1       5.573   5.172  19.288  0.00  0.00    +0.000 C 
BRANCH   3   4
ATOM      4  C   UNL     1       4.233   4.571  19.586  0.00  0.00    +0.000 A 
ATOM      5  C   UNL     1       3.107   5.421  19.581  0.00  0.00    +0.000 A 
ATOM      6  C   UNL     1       1.823   4.916  19.825  0.00  0.00    +0.000 A 
ATOM      7  C   UNL     1       1.642   3.546  19.995  0.00  0.00    +0.000 A 
ATOM      8  C   UNL     1       2.738   2.683  19.937  0.00  0.00    +0.000 A 
ATOM      9  C   UNL     1       4.029   3.198  19.756  0.00  0.00    +0.000 A 
BRANCH   9  10
ATOM     10  O   UNL     1       5.086   2.337  19.719  0.00  0.00    +0.000 OA
ATOM     11  H   UNL     1       5.856   2.750  20.145  0.00  0.00    +0.000 HD
ENDBRANCH   9  10
ENDBRANCH   3   4
ENDBRANCH   1   3
BRANCH   1  12
ATOM     12  C   UNL     1       6.824   6.199  17.474  0.00  0.00    +0.000 C 
BRANCH  12  13
ATOM     13  C   UNL     1       6.633   5.544  16.132  0.00  0.00    +0.000 A 
ATOM     14  N   UNL     1       7.463   5.658  15.113  0.00  0.00    +0.000 NA
ATOM     15  C   UNL     1       7.004   4.901  14.045  0.00  0.00    +0.000 A 
ATOM     16  C   UNL     1       7.653   4.746  12.804  0.00  0.00    +0.000 A 
ATOM     17  C   UNL     1       7.082   3.939  11.816  0.00  0.00    +0.000 A 
ATOM     18  C   UNL     1       5.871   3.294  12.045  0.00  0.00    +0.000 A 
ATOM     19  C   UNL     1       5.204   3.435  13.266  0.00  0.00    +0.000 A 
ATOM     20  C   UNL     1       5.794   4.237  14.257  0.00  0.00    +0.000 A 
ATOM     21  S   UNL     1       5.244   4.572  15.849  0.00  0.00    +0.000 S 
ENDBRANCH  12  13
ENDBRANCH   1  12
TORSDOF 5
ENDMDL
MODEL 4
REMARK VINA RESULT:      -7.5      2.248      7.046
REMARK  Name = 
REMARK  5 active torsions:
REMARK  status: ('A' for Active; 'I' for Inactive)
REMARK    1  A    between atoms: C_2  and  O_3
REMARK    2  A    between atoms: C_2  and  C_14
REMARK    3  A    between atoms: O_3  and  C_4
REMARK    4  A    between atoms: C_4  and  C_5
REMARK    5  A    between atoms: C_19  and  O_20
REMARK                            x       y       z     vdW  Elec       q    Type
REMARK                         _______ _______ _______ _____ _____    ______ ____
ROOT
ATOM      1  O   UNL     1       5.028   5.665  18.212  0.00  0.00    +0.000 OA
ENDROOT
BRANCH   1   3
ATOM      2  O   UNL     1       5.853   3.992  19.543  0.00  0.00    +0.000 OA
ATOM      3  C   UNL     1       4.920   4.615  19.082  0.00  0.00    +0.000 C 
BRANCH   3   4
ATOM      4  C   UNL     1       3.512   4.208  19.392  0.00  0.00    +0.000 A 
ATOM      5  C   UNL     1       3.135   2.871  19.146  0.00  0.00    +0.000 A 
ATOM      6  C   UNL     1       1.841   2.421  19.440  0.00  0.00    +0.000 A 
ATOM      7  C   UNL     1       0.937   3.281  20.058  0.00  0.00    +0.000 A 
ATOM      8  C   UNL     1       1.315   4.588  20.368  0.00  0.00    +0.000 A 
ATOM      9  C   UNL     1       2.588   5.054  20.016  0.00  0.00    +0.000 A 
BRANCH   9  10
ATOM     10  O   UNL     1       2.929   6.340  20.314  0.00  0.00    +0.000 OA
ATOM     11  H   UNL     1       3.685   6.344  20.924  0.00  0.00    +0.000 HD
ENDBRANCH   9  10
ENDBRANCH   3   4
ENDBRANCH   1   3
BRANCH   1  12
ATOM     12  C   UNL     1       6.333   5.973  17.643  0.00  0.00    +0.000 C 
BRANCH  12  13
ATOM     13  C   UNL     1       6.354   5.422  16.242  0.00  0.00    +0.000 A 
ATOM     14  N   UNL     1       7.265   5.708  15.334  0.00  0.00    +0.000 NA
ATOM     15  C   UNL     1       7.005   5.004  14.168  0.00  0.00    +0.000 A 
ATOM     16  C   UNL     1       7.790   5.025  12.998  0.00  0.00    +0.000 A 
ATOM     17  C   UNL     1       7.417   4.252  11.894  0.00  0.00    +0.000 A 
ATOM     18  C   UNL     1       6.268   3.469  11.939  0.00  0.00    +0.000 A 
ATOM     19  C   UNL     1       5.469   3.434  13.085  0.00  0.00    +0.000 A 
ATOM     20  C   UNL     1       5.861   4.203  14.193  0.00  0.00    +0.000 A 
ATOM     21  S   UNL     1       5.118   4.340  15.735  0.00  0.00    +0.000 S 
ENDBRANCH  12  13
ENDBRANCH   1  12
TORSDOF 5
ENDMDL
MODEL 5
REMARK VINA RESULT:      -7.5      1.219      1.349
REMARK  Name = 
REMARK  5 active torsions:
REMARK  status: ('A' for Active; 'I' for Inactive)
REMARK    1  A    between atoms: C_2  and  O_3
REMARK    2  A    between atoms: C_2  and  C_14
REMARK    3  A    between atoms: O_3  and  C_4
REMARK    4  A    between atoms: C_4  and  C_5
REMARK    5  A    between atoms: C_19  and  O_20
REMARK                            x       y       z     vdW  Elec       q    Type
REMARK                         _______ _______ _______ _____ _____    ______ ____
ROOT
ATOM      1  O   UNL     1       5.808   6.228  16.009  0.00  0.00    +0.000 OA
ENDROOT
BRANCH   1   3
ATOM      2  O   UNL     1       7.776   5.130  16.420  0.00  0.00    +0.000 OA
ATOM      3  C   UNL     1       6.823   5.362  15.707  0.00  0.00    +0.000 C 
BRANCH   3   4
ATOM      4  C   UNL     1       6.727   4.743  14.347  0.00  0.00    +0.000 A 
ATOM      5  C   UNL     1       5.621   3.912  14.070  0.00  0.00    +0.000 A 
ATOM      6  C   UNL     1       5.458   3.325  12.808  0.00  0.00    +0.000 A 
ATOM      7  C   UNL     1       6.355   3.627  11.787  0.00  0.00    +0.000 A 
ATOM      8  C   UNL     1       7.418   4.500  12.026  0.00  0.00    +0.000 A 
ATOM      9  C   UNL     1       7.614   5.036  13.305  0.00  0.00    +0.000 A 
BRANCH   9  10
ATOM     10  O   UNL     1       8.669   5.873  13.519  0.00  0.00    +0.000 OA
ATOM     11  H   UNL     1       9.485   5.457  13.195  0.00  0.00    +0.000 HD
ENDBRANCH   9  10
ENDBRANCH   3   4
ENDBRANCH   1   3
BRANCH   1  12
ATOM     12  C   UNL     1       5.554   6.552  17.406  0.00  0.00    +0.000 C 
BRANCH  12  13
ATOM     13  C   UNL     1       4.480   5.619  17.897  0.00  0.00    +0.000 A 
ATOM     14  N   UNL     1       4.528   4.304  17.812  0.00  0.00    +0.000 NA
ATOM     15  C   UNL     1       3.394   3.753  18.390  0.00  0.00    +0.000 A 
ATOM     16  C   UNL     1       3.120   2.378  18.522  0.00  0.00    +0.000 A 
ATOM     17  C   UNL     1       1.938   1.959  19.141  0.00  0.00    +0.000 A 
ATOM     18  C   UNL     1       1.023   2.893  19.619  0.00  0.00    +0.000 A 
ATOM     19  C   UNL     1       1.269   4.264  19.496  0.00  0.00    +0.000 A 
ATOM     20  C   UNL     1       2.466   4.673  18.885  0.00  0.00    +0.000 A 
ATOM     21  S   UNL     1       3.061   6.262  18.623  0.00  0.00    +0.000 S 
ENDBRANCH  12  13
ENDBRANCH   1  12
TORSDOF 5
ENDMDL
MODEL 6
REMARK VINA RESULT:      -7.4      2.113      3.813
REMARK  Name = 
REMARK  5 active torsions:
REMARK  status: ('A' for Active; 'I' for Inactive)
REMARK    1  A    between atoms: C_2  and  O_3
REMARK    2  A    between atoms: C_2  and  C_14
REMARK    3  A    between atoms: O_3  and  C_4
REMARK    4  A    between atoms: C_4  and  C_5
REMARK    5  A    between atoms: C_19  and  O_20
REMARK                            x       y       z     vdW  Elec       q    Type
REMARK                         _______ _______ _______ _____ _____    ______ ____
ROOT
ATOM      1  O   UNL     1       5.622   4.079  16.213  0.00  0.00    +0.000 OA
ENDROOT
BRANCH   1   3
ATOM      2  O   UNL     1       6.602   5.390  14.610  0.00  0.00    +0.000 OA
ATOM      3  C   UNL     1       6.404   5.111  15.774  0.00  0.00    +0.000 C 
BRANCH   3   4
ATOM      4  C   UNL     1       7.099   5.870  16.862  0.00  0.00    +0.000 A 
ATOM      5  C   UNL     1       7.333   7.248  16.668  0.00  0.00    +0.000 A 
ATOM      6  C   UNL     1       7.954   8.020  17.659  0.00  0.00    +0.000 A 
ATOM      7  C   UNL     1       8.273   7.441  18.885  0.00  0.00    +0.000 A 
ATOM      8  C   UNL     1       7.988   6.094  19.117  0.00  0.00    +0.000 A 
ATOM      9  C   UNL     1       7.425   5.310  18.102  0.00  0.00    +0.000 A 
BRANCH   9  10
ATOM     10  O   UNL     1       7.171   3.992  18.346  0.00  0.00    +0.000 OA
ATOM     11  H   UNL     1       7.043   3.524  17.505  0.00  0.00    +0.000 HD
ENDBRANCH   9  10
ENDBRANCH   3   4
ENDBRANCH   1   3
BRANCH   1  12
ATOM     12  C   UNL     1       4.181   4.159  16.020  0.00  0.00    +0.000 C 
BRANCH  12  13
ATOM     13  C   UNL     1       3.531   3.836  17.339  0.00  0.00    +0.000 A 
ATOM     14  N   UNL     1       4.120   3.203  18.334  0.00  0.00    +0.000 NA
ATOM     15  C   UNL     1       3.250   3.103  19.409  0.00  0.00    +0.000 A 
ATOM     16  C   UNL     1       3.547   2.528  20.661  0.00  0.00    +0.000 A 
ATOM     17  C   UNL     1       2.575   2.506  21.666  0.00  0.00    +0.000 A 
ATOM     18  C   UNL     1       1.310   3.039  21.435  0.00  0.00    +0.000 A 
ATOM     19  C   UNL     1       0.988   3.611  20.200  0.00  0.00    +0.000 A 
ATOM     20  C   UNL     1       1.977   3.641  19.203  0.00  0.00    +0.000 A 
ATOM     21  S   UNL     1       1.899   4.297  17.618  0.00  0.00    +0.000 S 
ENDBRANCH  12  13
ENDBRANCH   1  12
TORSDOF 5
ENDMDL
MODEL 7
REMARK VINA RESULT:      -7.4      1.101      1.340
REMARK  Name = 
REMARK  5 active torsions:
REMARK  status: ('A' for Active; 'I' for Inactive)
REMARK    1  A    between atoms: C_2  and  O_3
REMARK    2  A    between atoms: C_2  and  C_14
REMARK    3  A    between atoms: O_3  and  C_4
REMARK    4  A    between atoms: C_4  and  C_5
REMARK    5  A    between atoms: C_19  and  O_20
REMARK                            x       y       z     vdW  Elec       q    Type
REMARK                         _______ _______ _______ _____ _____    ______ ____
ROOT
ATOM      1  O   UNL     1       6.357   4.461  16.677  0.00  0.00    +0.000 OA
ENDROOT
BRANCH   1   3
ATOM      2  O   UNL     1       7.562   6.273  15.962  0.00  0.00    +0.000 OA
ATOM      3  C   UNL     1       6.998   5.223  15.739  0.00  0.00    +0.000 C 
BRANCH   3   4
ATOM      4  C   UNL     1       6.895   4.702  14.339  0.00  0.00    +0.000 A 
ATOM      5  C   UNL     1       5.821   3.842  14.027  0.00  0.00    +0.000 A 
ATOM      6  C   UNL     1       5.653   3.342  12.728  0.00  0.00    +0.000 A 
ATOM      7  C   UNL     1       6.508   3.761  11.712  0.00  0.00    +0.000 A 
ATOM      8  C   UNL     1       7.536   4.663  11.992  0.00  0.00    +0.000 A 
ATOM      9  C   UNL     1       7.740   5.113  13.303  0.00  0.00    +0.000 A 
BRANCH   9  10
ATOM     10  O   UNL     1       8.761   5.980  13.554  0.00  0.00    +0.000 OA
ATOM     11  H   UNL     1       8.543   6.854  13.191  0.00  0.00    +0.000 HD
ENDBRANCH   9  10
ENDBRANCH   3   4
ENDBRANCH   1   3
BRANCH   1  12
ATOM     12  C   UNL     1       6.526   4.791  18.085  0.00  0.00    +0.000 C 
BRANCH  12  13
ATOM     13  C   UNL     1       5.212   4.528  18.770  0.00  0.00    +0.000 A 
ATOM     14  N   UNL     1       4.314   5.450  19.057  0.00  0.00    +0.000 NA
ATOM     15  C   UNL     1       3.209   4.862  19.653  0.00  0.00    +0.000 A 
ATOM     16  C   UNL     1       2.035   5.529  20.056  0.00  0.00    +0.000 A 
ATOM     17  C   UNL     1       0.987   4.807  20.635  0.00  0.00    +0.000 A 
ATOM     18  C   UNL     1       1.098   3.433  20.826  0.00  0.00    +0.000 A 
ATOM     19  C   UNL     1       2.254   2.748  20.439  0.00  0.00    +0.000 A 
ATOM     20  C   UNL     1       3.295   3.481  19.845  0.00  0.00    +0.000 A 
ATOM     21  S   UNL     1       4.803   2.926  19.241  0.00  0.00    +0.000 S 
ENDBRANCH  12  13
ENDBRANCH   1  12
TORSDOF 5
ENDMDL
MODEL 8
REMARK VINA RESULT:      -7.4      2.258      6.723
REMARK  Name = 
REMARK  5 active torsions:
REMARK  status: ('A' for Active; 'I' for Inactive)
REMARK    1  A    between atoms: C_2  and  O_3
REMARK    2  A    between atoms: C_2  and  C_14
REMARK    3  A    between atoms: O_3  and  C_4
REMARK    4  A    between atoms: C_4  and  C_5
REMARK    5  A    between atoms: C_19  and  O_20
REMARK                            x       y       z     vdW  Elec       q    Type
REMARK                         _______ _______ _______ _____ _____    ______ ____
ROOT
ATOM      1  O   UNL     1       5.698   4.764  18.606  0.00  0.00    +0.000 OA
ENDROOT
BRANCH   1   3
ATOM      2  O   UNL     1       4.199   6.247  19.502  0.00  0.00    +0.000 OA
ATOM      3  C   UNL     1       4.462   5.157  19.040  0.00  0.00    +0.000 C 
BRANCH   3   4
ATOM      4  C   UNL     1       3.414   4.089  18.981  0.00  0.00    +0.000 A 
ATOM      5  C   UNL     1       2.109   4.457  18.592  0.00  0.00    +0.000 A 
ATOM      6  C   UNL     1       1.090   3.500  18.491  0.00  0.00    +0.000 A 
ATOM      7  C   UNL     1       1.385   2.155  18.697  0.00  0.00    +0.000 A 
ATOM      8  C   UNL     1       2.687   1.766  19.019  0.00  0.00    +0.000 A 
ATOM      9  C   UNL     1       3.689   2.732  19.181  0.00  0.00    +0.000 A 
BRANCH   9  10
ATOM     10  O   UNL     1       4.950   2.329  19.512  0.00  0.00    +0.000 OA
ATOM     11  H   UNL     1       5.568   2.585  18.808  0.00  0.00    +0.000 HD
ENDBRANCH   9  10
ENDBRANCH   3   4
ENDBRANCH   1   3
BRANCH   1  12
ATOM     12  C   UNL     1       6.514   5.710  17.859  0.00  0.00    +0.000 C 
BRANCH  12  13
ATOM     13  C   UNL     1       6.524   5.259  16.423  0.00  0.00    +0.000 A 
ATOM     14  N   UNL     1       7.348   5.709  15.497  0.00  0.00    +0.000 NA
ATOM     15  C   UNL     1       7.109   5.058  14.296  0.00  0.00    +0.000 A 
ATOM     16  C   UNL     1       7.824   5.248  13.097  0.00  0.00    +0.000 A 
ATOM     17  C   UNL     1       7.484   4.510  11.959  0.00  0.00    +0.000 A 
ATOM     18  C   UNL     1       6.436   3.596  11.999  0.00  0.00    +0.000 A 
ATOM     19  C   UNL     1       5.708   3.392  13.174  0.00  0.00    +0.000 A 
ATOM     20  C   UNL     1       6.068   4.128  14.316  0.00  0.00    +0.000 A 
ATOM     21  S   UNL     1       5.396   4.075  15.895  0.00  0.00    +0.000 S 
ENDBRANCH  12  13
ENDBRANCH   1  12
TORSDOF 5
ENDMDL
MODEL 9
REMARK VINA RESULT:      -7.4      3.649      6.744
REMARK  Name = 
REMARK  5 active torsions:
REMARK  status: ('A' for Active; 'I' for Inactive)
REMARK    1  A    between atoms: C_2  and  O_3
REMARK    2  A    between atoms: C_2  and  C_14
REMARK    3  A    between atoms: O_3  and  C_4
REMARK    4  A    between atoms: C_4  and  C_5
REMARK    5  A    between atoms: C_19  and  O_20
REMARK                            x       y       z     vdW  Elec       q    Type
REMARK                         _______ _______ _______ _____ _____    ______ ____
ROOT
ATOM      1  O   UNL     1       2.301   2.337  17.593  0.00  0.00    +0.000 OA
ENDROOT
BRANCH   1   3
ATOM      2  O   UNL     1       0.301   2.365  18.711  0.00  0.00    +0.000 OA
ATOM      3  C   UNL     1       1.361   2.880  18.426  0.00  0.00    +0.000 C 
BRANCH   3   4
ATOM      4  C   UNL     1       1.697   4.249  18.931  0.00  0.00    +0.000 A 
ATOM      5  C   UNL     1       1.974   5.259  17.985  0.00  0.00    +0.000 A 
ATOM      6  C   UNL     1       2.268   6.567  18.393  0.00  0.00    +0.000 A 
ATOM      7  C   UNL     1       2.210   6.897  19.744  0.00  0.00    +0.000 A 
ATOM      8  C   UNL     1       1.873   5.925  20.688  0.00  0.00    +0.000 A 
ATOM      9  C   UNL     1       1.641   4.604  20.283  0.00  0.00    +0.000 A 
BRANCH   9  10
ATOM     10  O   UNL     1       1.330   3.667  21.225  0.00  0.00    +0.000 OA
ATOM     11  H   UNL     1       1.079   2.837  20.788  0.00  0.00    +0.000 HD
ENDBRANCH   9  10
ENDBRANCH   3   4
ENDBRANCH   1   3
BRANCH   1  12
ATOM     12  C   UNL     1       3.581   1.927  18.152  0.00  0.00    +0.000 C 
BRANCH  12  13
ATOM     13  C   UNL     1       4.524   3.093  18.016  0.00  0.00    +0.000 A 
ATOM     14  N   UNL     1       5.198   3.637  19.010  0.00  0.00    +0.000 NA
ATOM     15  C   UNL     1       5.996   4.665  18.531  0.00  0.00    +0.000 A 
ATOM     16  C   UNL     1       6.886   5.444  19.297  0.00  0.00    +0.000 A 
ATOM     17  C   UNL     1       7.645   6.443  18.680  0.00  0.00    +0.000 A 
ATOM     18  C   UNL     1       7.520   6.682  17.315  0.00  0.00    +0.000 A 
ATOM     19  C   UNL     1       6.640   5.926  16.533  0.00  0.00    +0.000 A 
ATOM     20  C   UNL     1       5.894   4.915  17.161  0.00  0.00    +0.000 A 
ATOM     21  S   UNL     1       4.773   3.810  16.474  0.00  0.00    +0.000 S 
ENDBRANCH  12  13
ENDBRANCH   1  12
TORSDOF 5
ENDMDL
