MODEL 1
REMARK VINA RESULT:      -8.2      0.000      0.000
REMARK  Name = 
REMARK  5 active torsions:
REMARK  status: ('A' for Active; 'I' for Inactive)
REMARK    1  A    between atoms: C_5  and  C_6
REMARK    2  A    between atoms: C_6  and  N_7
REMARK    3  A    between atoms: N_7  and  C_8
REMARK    4  A    between atoms: C_14  and  C_15
REMARK    5  A    between atoms: C_16  and  C_17
REMARK                            x       y       z     vdW  Elec       q    Type
REMARK                         _______ _______ _______ _____ _____    ______ ____
ROOT
ATOM      1  C   UNL     1       3.808   3.645  17.342  0.00  0.00    +0.000 A 
ATOM      2  C   UNL     1       4.056   2.332  17.755  0.00  0.00    +0.000 A 
ATOM      3  C   UNL     1       3.520   1.808  18.941  0.00  0.00    +0.000 A 
ATOM      4  C   UNL     1       2.739   2.668  19.716  0.00  0.00    +0.000 A 
ATOM      5  N   UNL     1       2.089   2.488  20.905  0.00  0.00    +0.000 N 
ATOM      6  N   UNL     1       1.457   3.581  21.365  0.00  0.00    +0.000 NA
ATOM      7  C   UNL     1       1.667   4.505  20.416  0.00  0.00    +0.000 A 
ATOM      8  C   UNL     1       2.488   3.989  19.366  0.00  0.00    +0.000 A 
ATOM      9  C   UNL     1       3.064   4.489  18.180  0.00  0.00    +0.000 A 
ATOM     10  H   UNL     1       2.053   1.645  21.465  0.00  0.00    +0.000 HD
ENDROOT
BRANCH   1  11
ATOM     11  N   UNL     1       4.396   4.084  16.144  0.00  0.00    +0.000 N 
ATOM     12  H   UNL     1       3.924   3.646  15.354  0.00  0.00    +0.000 HD
BRANCH  11  13
ATOM     13  C   UNL     1       5.845   3.934  16.027  0.00  0.00    +0.000 C 
BRANCH  13  18
ATOM     14  F   UNL     1       8.577   7.861  19.014  0.00  0.00    +0.000 F 
ATOM     15  C   UNL     1       7.913   6.931  18.314  0.00  0.00    +0.000 A 
ATOM     16  C   UNL     1       7.976   5.603  18.710  0.00  0.00    +0.000 A 
ATOM     17  C   UNL     1       7.289   4.637  17.976  0.00  0.00    +0.000 A 
ATOM     18  C   UNL     1       6.535   5.000  16.845  0.00  0.00    +0.000 A 
ATOM     19  C   UNL     1       6.489   6.348  16.460  0.00  0.00    +0.000 A 
ATOM     20  C   UNL     1       7.177   7.313  17.197  0.00  0.00    +0.000 A 
ENDBRANCH  13  18
ENDBRANCH  11  13
ENDBRANCH   1  11
BRANCH   7  21
ATOM     21  C   UNL     1       1.152   5.838  20.531  0.00  0.00    +0.000 C 
ATOM     22  C   UNL     1       1.881   6.969  20.544  0.00  0.00    +0.000 C 
BRANCH  22  23
ATOM     23  C   UNL     1       1.349   8.316  20.756  0.00  0.00    +0.000 A 
ATOM     24  C   UNL     1       0.922   8.786  21.993  0.00  0.00    +0.000 A 
ATOM     25  C   UNL     1       0.441  10.090  22.085  0.00  0.00    +0.000 A 
ATOM     26  C   UNL     1       0.390  10.880  20.944  0.00  0.00    +0.000 A 
ATOM     27  C   UNL     1       0.813  10.326  19.748  0.00  0.00    +0.000 A 
ATOM     28  N   UNL     1       1.282   9.065  19.629  0.00  0.00    +0.000 NA
ENDBRANCH  22  23
ENDBRANCH   7  21
TORSDOF 5
ENDMDL
MODEL 2
REMARK VINA RESULT:      -8.1      0.539      1.354
REMARK  Name = 
REMARK  5 active torsions:
REMARK  status: ('A' for Active; 'I' for Inactive)
REMARK    1  A    between atoms: C_5  and  C_6
REMARK    2  A    between atoms: C_6  and  N_7
REMARK    3  A    between atoms: N_7  and  C_8
REMARK    4  A    between atoms: C_14  and  C_15
REMARK    5  A    between atoms: C_16  and  C_17
REMARK                            x       y       z     vdW  Elec       q    Type
REMARK                         _______ _______ _______ _____ _____    ______ ____
ROOT
ATOM      1  C   UNL     1       3.858   3.705  17.437  0.00  0.00    +0.000 A 
ATOM      2  C   UNL     1       4.152   2.397  17.837  0.00  0.00    +0.000 A 
ATOM      3  C   UNL     1       3.722   1.877  19.066  0.00  0.00    +0.000 A 
ATOM      4  C   UNL     1       2.998   2.735  19.898  0.00  0.00    +0.000 A 
ATOM      5  N   UNL     1       2.450   2.558  21.137  0.00  0.00    +0.000 N 
ATOM      6  N   UNL     1       1.848   3.648  21.640  0.00  0.00    +0.000 NA
ATOM      7  C   UNL     1       1.970   4.566  20.671  0.00  0.00    +0.000 A 
ATOM      8  C   UNL     1       2.707   4.051  19.561  0.00  0.00    +0.000 A 
ATOM      9  C   UNL     1       3.177   4.548  18.328  0.00  0.00    +0.000 A 
ATOM     10  H   UNL     1       2.470   1.718  21.704  0.00  0.00    +0.000 HD
ENDROOT
BRANCH   1  11
ATOM     11  N   UNL     1       4.341   4.141  16.192  0.00  0.00    +0.000 N 
ATOM     12  H   UNL     1       3.792   3.713  15.447  0.00  0.00    +0.000 HD
BRANCH  11  13
ATOM     13  C   UNL     1       5.771   3.971  15.943  0.00  0.00    +0.000 C 
BRANCH  13  18
ATOM     14  F   UNL     1       8.536   7.797  19.029  0.00  0.00    +0.000 F 
ATOM     15  C   UNL     1       7.894   6.886  18.285  0.00  0.00    +0.000 A 
ATOM     16  C   UNL     1       7.126   7.302  17.207  0.00  0.00    +0.000 A 
ATOM     17  C   UNL     1       6.453   6.352  16.440  0.00  0.00    +0.000 A 
ATOM     18  C   UNL     1       6.552   4.983  16.748  0.00  0.00    +0.000 A 
ATOM     19  C   UNL     1       7.331   4.585  17.845  0.00  0.00    +0.000 A 
ATOM     20  C   UNL     1       8.003   5.538  18.612  0.00  0.00    +0.000 A 
ENDBRANCH  13  18
ENDBRANCH  11  13
ENDBRANCH   1  11
BRANCH   7  21
ATOM     21  C   UNL     1       1.453   5.896  20.820  0.00  0.00    +0.000 C 
ATOM     22  C   UNL     1       1.897   6.993  20.183  0.00  0.00    +0.000 C 
BRANCH  22  23
ATOM     23  C   UNL     1       1.421   8.358  20.414  0.00  0.00    +0.000 A 
ATOM     24  C   UNL     1       1.268   9.299  19.401  0.00  0.00    +0.000 A 
ATOM     25  C   UNL     1       0.799  10.568  19.731  0.00  0.00    +0.000 A 
ATOM     26  C   UNL     1       0.507  10.865  21.056  0.00  0.00    +0.000 A 
ATOM     27  C   UNL     1       0.710   9.877  22.004  0.00  0.00    +0.000 A 
ATOM     28  N   UNL     1       1.166   8.639  21.714  0.00  0.00    +0.000 NA
ENDBRANCH  22  23
ENDBRANCH   7  21
TORSDOF 5
ENDMDL
MODEL 3
REMARK VINA RESULT:      -8.0      3.628      8.509
REMARK  Name = 
REMARK  5 active torsions:
REMARK  status: ('A' for Active; 'I' for Inactive)
REMARK    1  A    between atoms: C_5  and  C_6
REMARK    2  A    between atoms: C_6  and  N_7
REMARK    3  A    between atoms: N_7  and  C_8
REMARK    4  A    between atoms: C_14  and  C_15
REMARK    5  A    between atoms: C_16  and  C_17
REMARK                            x       y       z     vdW  Elec       q    Type
REMARK                         _______ _______ _______ _____ _____    ______ ____
ROOT
ATOM      1  C   UNL     1       2.221   7.985  18.782  0.00  0.00    +0.000 A 
ATOM      2  C   UNL     1       1.950   7.481  20.059  0.00  0.00    +0.000 A 
ATOM      3  C   UNL     1       2.406   6.221  20.476  0.00  0.00    +0.000 A 
ATOM      4  C   UNL     1       3.128   5.470  19.547  0.00  0.00    +0.000 A 
ATOM      5  N   UNL     1       3.696   4.229  19.621  0.00  0.00    +0.000 N 
ATOM      6  N   UNL     1       4.291   3.820  18.487  0.00  0.00    +0.000 NA
ATOM      7  C   UNL     1       4.142   4.855  17.648  0.00  0.00    +0.000 A 
ATOM      8  C   UNL     1       3.397   5.911  18.257  0.00  0.00    +0.000 A 
ATOM      9  C   UNL     1       2.901   7.172  17.864  0.00  0.00    +0.000 A 
ATOM     10  H   UNL     1       3.697   3.599  20.414  0.00  0.00    +0.000 HD
ENDROOT
BRANCH   1  11
ATOM     11  N   UNL     1       1.714   9.252  18.450  0.00  0.00    +0.000 N 
ATOM     12  H   UNL     1       2.480   9.857  18.157  0.00  0.00    +0.000 HD
BRANCH  11  13
ATOM     13  C   UNL     1       0.887   9.916  19.456  0.00  0.00    +0.000 C 
BRANCH  13  18
ATOM     14  F   UNL     1      -3.890  11.723  17.064  0.00  0.00    +0.000 F 
ATOM     15  C   UNL     1      -2.765  11.282  17.642  0.00  0.00    +0.000 A 
ATOM     16  C   UNL     1      -2.306  11.891  18.801  0.00  0.00    +0.000 A 
ATOM     17  C   UNL     1      -1.130  11.434  19.395  0.00  0.00    +0.000 A 
ATOM     18  C   UNL     1      -0.414  10.362  18.832  0.00  0.00    +0.000 A 
ATOM     19  C   UNL     1      -0.893   9.763  17.658  0.00  0.00    +0.000 A 
ATOM     20  C   UNL     1      -2.070  10.223  17.065  0.00  0.00    +0.000 A 
ENDBRANCH  13  18
ENDBRANCH  11  13
ENDBRANCH   1  11
BRANCH   7  21
ATOM     21  C   UNL     1       4.642   4.817  16.305  0.00  0.00    +0.000 C 
ATOM     22  C   UNL     1       5.852   4.371  15.924  0.00  0.00    +0.000 C 
BRANCH  22  23
ATOM     23  C   UNL     1       6.384   4.424  14.562  0.00  0.00    +0.000 A 
ATOM     24  C   UNL     1       5.903   3.638  13.520  0.00  0.00    +0.000 A 
ATOM     25  C   UNL     1       6.477   3.776  12.257  0.00  0.00    +0.000 A 
ATOM     26  C   UNL     1       7.515   4.680  12.074  0.00  0.00    +0.000 A 
ATOM     27  C   UNL     1       7.948   5.405  13.171  0.00  0.00    +0.000 A 
ATOM     28  N   UNL     1       7.413   5.292  14.405  0.00  0.00    +0.000 NA
ENDBRANCH  22  23
ENDBRANCH   7  21
TORSDOF 5
ENDMDL
MODEL 4
REMARK VINA RESULT:      -8.0      0.621      1.179
REMARK  Name = 
REMARK  5 active torsions:
REMARK  status: ('A' for Active; 'I' for Inactive)
REMARK    1  A    between atoms: C_5  and  C_6
REMARK    2  A    between atoms: C_6  and  N_7
REMARK    3  A    between atoms: N_7  and  C_8
REMARK    4  A    between atoms: C_14  and  C_15
REMARK    5  A    between atoms: C_16  and  C_17
REMARK                            x       y       z     vdW  Elec       q    Type
REMARK                         _______ _______ _______ _____ _____    ______ ____
ROOT
ATOM      1  C   UNL     1       4.022   3.962  17.199  0.00  0.00    +0.000 A 
ATOM      2  C   UNL     1       4.017   2.653  17.693  0.00  0.00    +0.000 A 
ATOM      3  C   UNL     1       3.428   2.322  18.923  0.00  0.00    +0.000 A 
ATOM      4  C   UNL     1       2.861   3.366  19.656  0.00  0.00    +0.000 A 
ATOM      5  N   UNL     1       2.230   3.393  20.867  0.00  0.00    +0.000 N 
ATOM      6  N   UNL     1       1.845   4.617  21.267  0.00  0.00    +0.000 NA
ATOM      7  C   UNL     1       2.203   5.420  20.255  0.00  0.00    +0.000 A 
ATOM      8  C   UNL     1       2.868   4.687  19.224  0.00  0.00    +0.000 A 
ATOM      9  C   UNL     1       3.491   4.988  17.995  0.00  0.00    +0.000 A 
ATOM     10  H   UNL     1       2.046   2.610  21.483  0.00  0.00    +0.000 HD
ENDROOT
BRANCH   1  11
ATOM     11  N   UNL     1       4.644   4.201  15.963  0.00  0.00    +0.000 N 
ATOM     12  H   UNL     1       4.166   3.671  15.235  0.00  0.00    +0.000 HD
BRANCH  11  13
ATOM     13  C   UNL     1       6.087   3.981  15.897  0.00  0.00    +0.000 C 
BRANCH  13  18
ATOM     14  F   UNL     1       8.587   7.908  19.081  0.00  0.00    +0.000 F 
ATOM     15  C   UNL     1       8.009   6.972  18.316  0.00  0.00    +0.000 A 
ATOM     16  C   UNL     1       7.395   7.342  17.128  0.00  0.00    +0.000 A 
ATOM     17  C   UNL     1       6.789   6.366  16.339  0.00  0.00    +0.000 A 
ATOM     18  C   UNL     1       6.799   5.017  16.735  0.00  0.00    +0.000 A 
ATOM     19  C   UNL     1       7.422   4.665  17.942  0.00  0.00    +0.000 A 
ATOM     20  C   UNL     1       8.029   5.643  18.731  0.00  0.00    +0.000 A 
ENDBRANCH  13  18
ENDBRANCH  11  13
ENDBRANCH   1  11
BRANCH   7  21
ATOM     21  C   UNL     1       1.969   6.834  20.293  0.00  0.00    +0.000 C 
ATOM     22  C   UNL     1       1.049   7.463  21.045  0.00  0.00    +0.000 C 
BRANCH  22  23
ATOM     23  C   UNL     1       0.758   8.898  21.005  0.00  0.00    +0.000 A 
ATOM     24  C   UNL     1       0.206   9.598  22.072  0.00  0.00    +0.000 A 
ATOM     25  C   UNL     1      -0.022  10.966  21.929  0.00  0.00    +0.000 A 
ATOM     26  C   UNL     1       0.296  11.589  20.729  0.00  0.00    +0.000 A 
ATOM     27  C   UNL     1       0.820  10.812  19.711  0.00  0.00    +0.000 A 
ATOM     28  N   UNL     1       1.050   9.485  19.819  0.00  0.00    +0.000 NA
ENDBRANCH  22  23
ENDBRANCH   7  21
TORSDOF 5
ENDMDL
MODEL 5
REMARK VINA RESULT:      -8.0      3.583      8.424
REMARK  Name = 
REMARK  5 active torsions:
REMARK  status: ('A' for Active; 'I' for Inactive)
REMARK    1  A    between atoms: C_5  and  C_6
REMARK    2  A    between atoms: C_6  and  N_7
REMARK    3  A    between atoms: N_7  and  C_8
REMARK    4  A    between atoms: C_14  and  C_15
REMARK    5  A    between atoms: C_16  and  C_17
REMARK                            x       y       z     vdW  Elec       q    Type
REMARK                         _______ _______ _______ _____ _____    ______ ____
ROOT
ATOM      1  C   UNL     1       2.251   7.668  18.399  0.00  0.00    +0.000 A 
ATOM      2  C   UNL     1       2.003   7.320  19.731  0.00  0.00    +0.000 A 
ATOM      3  C   UNL     1       2.508   6.142  20.302  0.00  0.00    +0.000 A 
ATOM      4  C   UNL     1       3.258   5.307  19.470  0.00  0.00    +0.000 A 
ATOM      5  N   UNL     1       3.873   4.108  19.697  0.00  0.00    +0.000 N 
ATOM      6  N   UNL     1       4.480   3.582  18.619  0.00  0.00    +0.000 NA
ATOM      7  C   UNL     1       4.289   4.496  17.657  0.00  0.00    +0.000 A 
ATOM      8  C   UNL     1       3.505   5.591  18.133  0.00  0.00    +0.000 A 
ATOM      9  C   UNL     1       2.960   6.772  17.586  0.00  0.00    +0.000 A 
ATOM     10  H   UNL     1       3.900   3.584  20.563  0.00  0.00    +0.000 HD
ENDROOT
BRANCH   1  11
ATOM     11  N   UNL     1       1.694   8.863  17.912  0.00  0.00    +0.000 N 
ATOM     12  H   UNL     1       2.296   9.244  17.184  0.00  0.00    +0.000 HD
BRANCH  11  13
ATOM     13  C   UNL     1       1.367   9.888  18.901  0.00  0.00    +0.000 C 
BRANCH  13  18
ATOM     14  F   UNL     1      -3.966  11.561  18.144  0.00  0.00    +0.000 F 
ATOM     15  C   UNL     1      -2.694  11.177  18.313  0.00  0.00    +0.000 A 
ATOM     16  C   UNL     1      -2.150  10.219  17.469  0.00  0.00    +0.000 A 
ATOM     17  C   UNL     1      -0.828   9.817  17.652  0.00  0.00    +0.000 A 
ATOM     18  C   UNL     1      -0.046  10.376  18.679  0.00  0.00    +0.000 A 
ATOM     19  C   UNL     1      -0.616  11.340  19.524  0.00  0.00    +0.000 A 
ATOM     20  C   UNL     1      -1.940  11.741  19.338  0.00  0.00    +0.000 A 
ENDBRANCH  13  18
ENDBRANCH  11  13
ENDBRANCH   1  11
BRANCH   7  21
ATOM     21  C   UNL     1       4.787   4.306  16.325  0.00  0.00    +0.000 C 
ATOM     22  C   UNL     1       6.003   4.668  15.877  0.00  0.00    +0.000 C 
BRANCH  22  23
ATOM     23  C   UNL     1       6.463   4.553  14.493  0.00  0.00    +0.000 A 
ATOM     24  C   UNL     1       5.899   3.681  13.567  0.00  0.00    +0.000 A 
ATOM     25  C   UNL     1       6.410   3.658  12.271  0.00  0.00    +0.000 A 
ATOM     26  C   UNL     1       7.469   4.493  11.940  0.00  0.00    +0.000 A 
ATOM     27  C   UNL     1       7.985   5.313  12.928  0.00  0.00    +0.000 A 
ATOM     28  N   UNL     1       7.513   5.355  14.192  0.00  0.00    +0.000 NA
ENDBRANCH  22  23
ENDBRANCH   7  21
TORSDOF 5
ENDMDL
MODEL 6
REMARK VINA RESULT:      -8.0      3.383      6.598
REMARK  Name = 
REMARK  5 active torsions:
REMARK  status: ('A' for Active; 'I' for Inactive)
REMARK    1  A    between atoms: C_5  and  C_6
REMARK    2  A    between atoms: C_6  and  N_7
REMARK    3  A    between atoms: N_7  and  C_8
REMARK    4  A    between atoms: C_14  and  C_15
REMARK    5  A    between atoms: C_16  and  C_17
REMARK                            x       y       z     vdW  Elec       q    Type
REMARK                         _______ _______ _______ _____ _____    ______ ____
ROOT
ATOM      1  C   UNL     1       4.662   4.471  18.721  0.00  0.00    +0.000 A 
ATOM      2  C   UNL     1       4.559   3.672  17.577  0.00  0.00    +0.000 A 
ATOM      3  C   UNL     1       5.349   3.891  16.439  0.00  0.00    +0.000 A 
ATOM      4  C   UNL     1       6.238   4.967  16.483  0.00  0.00    +0.000 A 
ATOM      5  N   UNL     1       7.127   5.454  15.567  0.00  0.00    +0.000 N 
ATOM      6  N   UNL     1       7.795   6.549  15.968  0.00  0.00    +0.000 NA
ATOM      7  C   UNL     1       7.356   6.762  17.216  0.00  0.00    +0.000 A 
ATOM      8  C   UNL     1       6.357   5.809  17.582  0.00  0.00    +0.000 A 
ATOM      9  C   UNL     1       5.528   5.574  18.699  0.00  0.00    +0.000 A 
ATOM     10  H   UNL     1       7.312   5.096  14.638  0.00  0.00    +0.000 HD
ENDROOT
BRANCH   1  11
ATOM     11  N   UNL     1       3.822   4.182  19.808  0.00  0.00    +0.000 N 
ATOM     12  H   UNL     1       3.995   3.229  20.126  0.00  0.00    +0.000 HD
BRANCH  11  13
ATOM     13  C   UNL     1       2.391   4.410  19.615  0.00  0.00    +0.000 C 
BRANCH  13  18
ATOM     14  F   UNL     1       1.565   9.965  19.098  0.00  0.00    +0.000 F 
ATOM     15  C   UNL     1       1.743   8.642  19.217  0.00  0.00    +0.000 A 
ATOM     16  C   UNL     1       1.607   8.043  20.460  0.00  0.00    +0.000 A 
ATOM     17  C   UNL     1       1.800   6.667  20.581  0.00  0.00    +0.000 A 
ATOM     18  C   UNL     1       2.128   5.889  19.456  0.00  0.00    +0.000 A 
ATOM     19  C   UNL     1       2.265   6.516  18.209  0.00  0.00    +0.000 A 
ATOM     20  C   UNL     1       2.071   7.893  18.090  0.00  0.00    +0.000 A 
ENDBRANCH  13  18
ENDBRANCH  11  13
ENDBRANCH   1  11
BRANCH   7  21
ATOM     21  C   UNL     1       7.829   7.862  18.007  0.00  0.00    +0.000 C 
ATOM     22  C   UNL     1       8.124   9.093  17.553  0.00  0.00    +0.000 C 
BRANCH  22  23
ATOM     23  C   UNL     1       8.694  10.176  18.354  0.00  0.00    +0.000 A 
ATOM     24  C   UNL     1       9.254   9.986  19.613  0.00  0.00    +0.000 A 
ATOM     25  C   UNL     1       9.777  11.088  20.287  0.00  0.00    +0.000 A 
ATOM     26  C   UNL     1       9.718  12.342  19.694  0.00  0.00    +0.000 A 
ATOM     27  C   UNL     1       9.122  12.446  18.449  0.00  0.00    +0.000 A 
ATOM     28  N   UNL     1       8.606  11.397  17.773  0.00  0.00    +0.000 NA
ENDBRANCH  22  23
ENDBRANCH   7  21
TORSDOF 5
ENDMDL
MODEL 7
REMARK VINA RESULT:      -7.9      3.327      6.835
REMARK  Name = 
REMARK  5 active torsions:
REMARK  status: ('A' for Active; 'I' for Inactive)
REMARK    1  A    between atoms: C_5  and  C_6
REMARK    2  A    between atoms: C_6  and  N_7
REMARK    3  A    between atoms: N_7  and  C_8
REMARK    4  A    between atoms: C_14  and  C_15
REMARK    5  A    between atoms: C_16  and  C_17
REMARK                            x       y       z     vdW  Elec       q    Type
REMARK                         _______ _______ _______ _____ _____    ______ ____
ROOT
ATOM      1  C   UNL     1       3.396   5.369  18.145  0.00  0.00    +0.000 A 
ATOM      2  C   UNL     1       3.352   4.169  17.427  0.00  0.00    +0.000 A 
ATOM      3  C   UNL     1       4.497   3.606  16.844  0.00  0.00    +0.000 A 
ATOM      4  C   UNL     1       5.694   4.312  16.989  0.00  0.00    +0.000 A 
ATOM      5  N   UNL     1       6.962   4.057  16.549  0.00  0.00    +0.000 N 
ATOM      6  N   UNL     1       7.861   5.006  16.863  0.00  0.00    +0.000 NA
ATOM      7  C   UNL     1       7.159   5.899  17.576  0.00  0.00    +0.000 A 
ATOM      8  C   UNL     1       5.784   5.522  17.666  0.00  0.00    +0.000 A 
ATOM      9  C   UNL     1       4.608   6.071  18.218  0.00  0.00    +0.000 A 
ATOM     10  H   UNL     1       7.278   3.260  16.010  0.00  0.00    +0.000 HD
ENDROOT
BRANCH   1  11
ATOM     11  N   UNL     1       2.195   5.862  18.685  0.00  0.00    +0.000 N 
ATOM     12  H   UNL     1       1.686   6.374  17.966  0.00  0.00    +0.000 HD
BRANCH  11  13
ATOM     13  C   UNL     1       2.298   6.653  19.909  0.00  0.00    +0.000 C 
BRANCH  13  18
ATOM     14  F   UNL     1       0.287  11.818  18.862  0.00  0.00    +0.000 F 
ATOM     15  C   UNL     1       0.781  10.598  19.117  0.00  0.00    +0.000 A 
ATOM     16  C   UNL     1       1.426   9.897  18.108  0.00  0.00    +0.000 A 
ATOM     17  C   UNL     1       1.932   8.626  18.375  0.00  0.00    +0.000 A 
ATOM     18  C   UNL     1       1.796   8.055  19.653  0.00  0.00    +0.000 A 
ATOM     19  C   UNL     1       1.136   8.779  20.657  0.00  0.00    +0.000 A 
ATOM     20  C   UNL     1       0.631  10.052  20.388  0.00  0.00    +0.000 A 
ENDBRANCH  13  18
ENDBRANCH  11  13
ENDBRANCH   1  11
BRANCH   7  21
ATOM     21  C   UNL     1       7.763   7.088  18.102  0.00  0.00    +0.000 C 
ATOM     22  C   UNL     1       7.624   8.331  17.608  0.00  0.00    +0.000 C 
BRANCH  22  23
ATOM     23  C   UNL     1       8.321   9.520  18.100  0.00  0.00    +0.000 A 
ATOM     24  C   UNL     1       8.299  10.748  17.445  0.00  0.00    +0.000 A 
ATOM     25  C   UNL     1       8.991  11.819  18.007  0.00  0.00    +0.000 A 
ATOM     26  C   UNL     1       9.689  11.634  19.193  0.00  0.00    +0.000 A 
ATOM     27  C   UNL     1       9.677  10.374  19.766  0.00  0.00    +0.000 A 
ATOM     28  N   UNL     1       9.018   9.317  19.244  0.00  0.00    +0.000 NA
ENDBRANCH  22  23
ENDBRANCH   7  21
TORSDOF 5
ENDMDL
MODEL 8
REMARK VINA RESULT:      -7.8      0.994      1.556
REMARK  Name = 
REMARK  5 active torsions:
REMARK  status: ('A' for Active; 'I' for Inactive)
REMARK    1  A    between atoms: C_5  and  C_6
REMARK    2  A    between atoms: C_6  and  N_7
REMARK    3  A    between atoms: N_7  and  C_8
REMARK    4  A    between atoms: C_14  and  C_15
REMARK    5  A    between atoms: C_16  and  C_17
REMARK                            x       y       z     vdW  Elec       q    Type
REMARK                         _______ _______ _______ _____ _____    ______ ____
ROOT
ATOM      1  C   UNL     1       4.037   4.165  17.292  0.00  0.00    +0.000 A 
ATOM      2  C   UNL     1       3.948   2.941  17.964  0.00  0.00    +0.000 A 
ATOM      3  C   UNL     1       3.295   2.815  19.199  0.00  0.00    +0.000 A 
ATOM      4  C   UNL     1       2.752   3.977  19.751  0.00  0.00    +0.000 A 
ATOM      5  N   UNL     1       2.075   4.204  20.916  0.00  0.00    +0.000 N 
ATOM      6  N   UNL     1       1.736   5.489  21.121  0.00  0.00    +0.000 NA
ATOM      7  C   UNL     1       2.174   6.122  20.024  0.00  0.00    +0.000 A 
ATOM      8  C   UNL     1       2.842   5.221  19.139  0.00  0.00    +0.000 A 
ATOM      9  C   UNL     1       3.527   5.316  17.910  0.00  0.00    +0.000 A 
ATOM     10  H   UNL     1       1.828   3.526  21.626  0.00  0.00    +0.000 HD
ENDROOT
BRANCH   1  11
ATOM     11  N   UNL     1       4.720   4.197  16.064  0.00  0.00    +0.000 N 
ATOM     12  H   UNL     1       4.289   3.535  15.420  0.00  0.00    +0.000 HD
BRANCH  11  13
ATOM     13  C   UNL     1       6.168   4.004  16.109  0.00  0.00    +0.000 C 
BRANCH  13  18
ATOM     14  F   UNL     1       8.699   8.057  19.105  0.00  0.00    +0.000 F 
ATOM     15  C   UNL     1       8.082   7.099  18.401  0.00  0.00    +0.000 A 
ATOM     16  C   UNL     1       8.048   5.802  18.894  0.00  0.00    +0.000 A 
ATOM     17  C   UNL     1       7.411   4.806  18.156  0.00  0.00    +0.000 A 
ATOM     18  C   UNL     1       6.803   5.106  16.924  0.00  0.00    +0.000 A 
ATOM     19  C   UNL     1       6.852   6.423  16.442  0.00  0.00    +0.000 A 
ATOM     20  C   UNL     1       7.491   7.419  17.183  0.00  0.00    +0.000 A 
ENDBRANCH  13  18
ENDBRANCH  11  13
ENDBRANCH   1  11
BRANCH   7  21
ATOM     21  C   UNL     1       2.009   7.536  19.851  0.00  0.00    +0.000 C 
ATOM     22  C   UNL     1       1.140   8.318  20.516  0.00  0.00    +0.000 C 
BRANCH  22  23
ATOM     23  C   UNL     1       0.918   9.743  20.264  0.00  0.00    +0.000 A 
ATOM     24  C   UNL     1       0.737  10.277  18.992  0.00  0.00    +0.000 A 
ATOM     25  C   UNL     1       0.524  11.648  18.866  0.00  0.00    +0.000 A 
ATOM     26  C   UNL     1       0.508  12.444  20.005  0.00  0.00    +0.000 A 
ATOM     27  C   UNL     1       0.720  11.834  21.228  0.00  0.00    +0.000 A 
ATOM     28  N   UNL     1       0.931  10.509  21.381  0.00  0.00    +0.000 NA
ENDBRANCH  22  23
ENDBRANCH   7  21
TORSDOF 5
ENDMDL
MODEL 9
REMARK VINA RESULT:      -7.8      3.221      7.810
REMARK  Name = 
REMARK  5 active torsions:
REMARK  status: ('A' for Active; 'I' for Inactive)
REMARK    1  A    between atoms: C_5  and  C_6
REMARK    2  A    between atoms: C_6  and  N_7
REMARK    3  A    between atoms: N_7  and  C_8
REMARK    4  A    between atoms: C_14  and  C_15
REMARK    5  A    between atoms: C_16  and  C_17
REMARK                            x       y       z     vdW  Elec       q    Type
REMARK                         _______ _______ _______ _____ _____    ______ ____
ROOT
ATOM      1  C   UNL     1       2.328   6.774  19.406  0.00  0.00    +0.000 A 
ATOM      2  C   UNL     1       1.932   5.958  20.472  0.00  0.00    +0.000 A 
ATOM      3  C   UNL     1       2.240   4.591  20.521  0.00  0.00    +0.000 A 
ATOM      4  C   UNL     1       2.946   4.062  19.438  0.00  0.00    +0.000 A 
ATOM      5  N   UNL     1       3.390   2.798  19.167  0.00  0.00    +0.000 N 
ATOM      6  N   UNL     1       4.013   2.669  17.984  0.00  0.00    +0.000 NA
ATOM      7  C   UNL     1       4.015   3.911  17.477  0.00  0.00    +0.000 A 
ATOM      8  C   UNL     1       3.335   4.823  18.341  0.00  0.00    +0.000 A 
ATOM      9  C   UNL     1       2.986   6.189  18.315  0.00  0.00    +0.000 A 
ATOM     10  H   UNL     1       3.281   1.972  19.743  0.00  0.00    +0.000 HD
ENDROOT
BRANCH   1  11
ATOM     11  N   UNL     1       1.964   8.130  19.440  0.00  0.00    +0.000 N 
ATOM     12  H   UNL     1       1.038   8.223  19.856  0.00  0.00    +0.000 HD
BRANCH  11  13
ATOM     13  C   UNL     1       2.039   8.865  18.179  0.00  0.00    +0.000 C 
BRANCH  13  18
ATOM     14  F   UNL     1      -0.842  13.674  18.798  0.00  0.00    +0.000 F 
ATOM     15  C   UNL     1      -0.158  12.534  18.633  0.00  0.00    +0.000 A 
ATOM     16  C   UNL     1      -0.844  11.330  18.553  0.00  0.00    +0.000 A 
ATOM     17  C   UNL     1      -0.128  10.145  18.389  0.00  0.00    +0.000 A 
ATOM     18  C   UNL     1       1.275  10.163  18.299  0.00  0.00    +0.000 A 
ATOM     19  C   UNL     1       1.949  11.390  18.386  0.00  0.00    +0.000 A 
ATOM     20  C   UNL     1       1.231  12.576  18.551  0.00  0.00    +0.000 A 
ENDBRANCH  13  18
ENDBRANCH  11  13
ENDBRANCH   1  11
BRANCH   7  21
ATOM     21  C   UNL     1       4.593   4.204  16.198  0.00  0.00    +0.000 C 
ATOM     22  C   UNL     1       5.789   3.778  15.754  0.00  0.00    +0.000 C 
BRANCH  22  23
ATOM     23  C   UNL     1       6.406   4.162  14.484  0.00  0.00    +0.000 A 
ATOM     24  C   UNL     1       6.085   3.570  13.266  0.00  0.00    +0.000 A 
ATOM     25  C   UNL     1       6.728   4.018  12.114  0.00  0.00    +0.000 A 
ATOM     26  C   UNL     1       7.674   5.030  12.210  0.00  0.00    +0.000 A 
ATOM     27  C   UNL     1       7.950   5.547  13.464  0.00  0.00    +0.000 A 
ATOM     28  N   UNL     1       7.345   5.132  14.598  0.00  0.00    +0.000 NA
ENDBRANCH  22  23
ENDBRANCH   7  21
TORSDOF 5
ENDMDL
