MODEL 1
REMARK VINA RESULT:      -7.1      0.000      0.000
REMARK  Name = 
REMARK  3 active torsions:
REMARK  status: ('A' for Active; 'I' for Inactive)
REMARK    1  A    between atoms: C_2  and  C_3
REMARK    2  A    between atoms: C_4  and  N_5
REMARK    3  A    between atoms: C_12  and  C_13
REMARK                            x       y       z     vdW  Elec       q    Type
REMARK                         _______ _______ _______ _____ _____    ______ ____
ROOT
ATOM      1  C   UNL     1       3.496   4.975  17.820  0.00  0.00    +0.000 C 
ATOM      2  C   UNL     1       4.584   4.247  18.183  0.00  0.00    +0.000 C 
ATOM      3  N   UNL     1       5.834   4.902  18.206  0.00  0.00    +0.000 N 
ATOM      4  N   UNL     1       7.035   4.414  18.619  0.00  0.00    +0.000 NA
ATOM      5  C   UNL     1       7.829   5.473  18.459  0.00  0.00    +0.000 A 
ATOM      6  N   UNL     1       7.231   6.606  17.986  0.00  0.00    +0.000 NA
ATOM      7  C   UNL     1       5.988   6.231  17.823  0.00  0.00    +0.000 A 
ATOM      8  N   UNL     1       4.935   6.947  17.369  0.00  0.00    +0.000 N 
ATOM      9  C   UNL     1       3.563   6.427  17.397  0.00  0.00    +0.000 C 
ATOM     10  H   UNL     1       5.046   7.948  17.235  0.00  0.00    +0.000 HD
ENDROOT
BRANCH   9  11
ATOM     11  C   UNL     1       2.718   7.330  18.277  0.00  0.00    +0.000 A 
ATOM     12  C   UNL     1       2.155   8.501  17.745  0.00  0.00    +0.000 A 
ATOM     13  C   UNL     1       1.367   9.334  18.541  0.00  0.00    +0.000 A 
ATOM     14  C   UNL     1       1.131   9.007  19.874  0.00  0.00    +0.000 A 
ATOM     15  C   UNL     1       1.682   7.848  20.416  0.00  0.00    +0.000 A 
ATOM     16  C   UNL     1       2.473   7.015  19.625  0.00  0.00    +0.000 A 
ENDBRANCH   9  11
BRANCH   2  17
ATOM     17  N   UNL     1       4.579   2.899  18.543  0.00  0.00    +0.000 N 
ATOM     18  H   UNL     1       4.485   2.679  19.532  0.00  0.00    +0.000 HD
ATOM     19  H   UNL     1       5.299   2.354  18.063  0.00  0.00    +0.000 HD
ENDBRANCH   2  17
BRANCH   1  21
ATOM     20  N   UNL     1       1.061   3.630  17.814  0.00  0.00    +0.000 NA
ATOM     21  C   UNL     1       2.165   4.240  17.817  0.00  0.00    +0.000 C 
ENDBRANCH   1  21
TORSDOF 3
ENDMDL
MODEL 2
REMARK VINA RESULT:      -7.1      0.021      1.139
REMARK  Name = 
REMARK  3 active torsions:
REMARK  status: ('A' for Active; 'I' for Inactive)
REMARK    1  A    between atoms: C_2  and  C_3
REMARK    2  A    between atoms: C_4  and  N_5
REMARK    3  A    between atoms: C_12  and  C_13
REMARK                            x       y       z     vdW  Elec       q    Type
REMARK                         _______ _______ _______ _____ _____    ______ ____
ROOT
ATOM      1  C   UNL     1       3.500   4.974  17.816  0.00  0.00    +0.000 C 
ATOM      2  C   UNL     1       4.588   4.252  18.191  0.00  0.00    +0.000 C 
ATOM      3  N   UNL     1       5.836   4.912  18.219  0.00  0.00    +0.000 N 
ATOM      4  N   UNL     1       7.036   4.431  18.644  0.00  0.00    +0.000 NA
ATOM      5  C   UNL     1       7.827   5.492  18.482  0.00  0.00    +0.000 A 
ATOM      6  N   UNL     1       7.228   6.619  17.997  0.00  0.00    +0.000 NA
ATOM      7  C   UNL     1       5.988   6.239  17.828  0.00  0.00    +0.000 A 
ATOM      8  N   UNL     1       4.935   6.949  17.363  0.00  0.00    +0.000 N 
ATOM      9  C   UNL     1       3.565   6.424  17.385  0.00  0.00    +0.000 C 
ATOM     10  H   UNL     1       5.044   7.949  17.223  0.00  0.00    +0.000 HD
ENDROOT
BRANCH   9  11
ATOM     11  C   UNL     1       2.711   7.329  18.253  0.00  0.00    +0.000 A 
ATOM     12  C   UNL     1       2.479   6.998  19.597  0.00  0.00    +0.000 A 
ATOM     13  C   UNL     1       1.704   7.828  20.408  0.00  0.00    +0.000 A 
ATOM     14  C   UNL     1       1.153   8.996  19.889  0.00  0.00    +0.000 A 
ATOM     15  C   UNL     1       1.373   9.339  18.556  0.00  0.00    +0.000 A 
ATOM     16  C   UNL     1       2.145   8.510  17.741  0.00  0.00    +0.000 A 
ENDBRANCH   9  11
BRANCH   2  17
ATOM     17  N   UNL     1       4.586   2.907  18.560  0.00  0.00    +0.000 N 
ATOM     18  H   UNL     1       4.650   2.694  19.553  0.00  0.00    +0.000 HD
ATOM     19  H   UNL     1       5.191   2.329  17.972  0.00  0.00    +0.000 HD
ENDBRANCH   2  17
BRANCH   1  21
ATOM     20  N   UNL     1       1.071   3.621  17.803  0.00  0.00    +0.000 NA
ATOM     21  C   UNL     1       2.172   4.235  17.809  0.00  0.00    +0.000 C 
ENDBRANCH   1  21
TORSDOF 3
ENDMDL
MODEL 3
REMARK VINA RESULT:      -7.1      2.464      5.309
REMARK  Name = 
REMARK  3 active torsions:
REMARK  status: ('A' for Active; 'I' for Inactive)
REMARK    1  A    between atoms: C_2  and  C_3
REMARK    2  A    between atoms: C_4  and  N_5
REMARK    3  A    between atoms: C_12  and  C_13
REMARK                            x       y       z     vdW  Elec       q    Type
REMARK                         _______ _______ _______ _____ _____    ______ ____
ROOT
ATOM      1  C   UNL     1       2.893   5.837  18.466  0.00  0.00    +0.000 C 
ATOM      2  C   UNL     1       2.477   5.725  19.754  0.00  0.00    +0.000 C 
ATOM      3  N   UNL     1       2.410   4.431  20.312  0.00  0.00    +0.000 N 
ATOM      4  N   UNL     1       2.116   4.078  21.594  0.00  0.00    +0.000 NA
ATOM      5  C   UNL     1       2.245   2.752  21.547  0.00  0.00    +0.000 A 
ATOM      6  N   UNL     1       2.609   2.226  20.341  0.00  0.00    +0.000 NA
ATOM      7  C   UNL     1       2.698   3.284  19.578  0.00  0.00    +0.000 A 
ATOM      8  N   UNL     1       3.023   3.365  18.268  0.00  0.00    +0.000 N 
ATOM      9  C   UNL     1       3.238   4.649  17.591  0.00  0.00    +0.000 C 
ATOM     10  H   UNL     1       3.366   2.533  17.797  0.00  0.00    +0.000 HD
ENDROOT
BRANCH   9  11
ATOM     11  C   UNL     1       4.666   4.698  17.079  0.00  0.00    +0.000 A 
ATOM     12  C   UNL     1       5.736   4.718  17.987  0.00  0.00    +0.000 A 
ATOM     13  C   UNL     1       7.054   4.752  17.529  0.00  0.00    +0.000 A 
ATOM     14  C   UNL     1       7.318   4.764  16.162  0.00  0.00    +0.000 A 
ATOM     15  C   UNL     1       6.266   4.744  15.248  0.00  0.00    +0.000 A 
ATOM     16  C   UNL     1       4.948   4.714  15.703  0.00  0.00    +0.000 A 
ENDBRANCH   9  11
BRANCH   2  17
ATOM     17  N   UNL     1       2.113   6.784  20.587  0.00  0.00    +0.000 N 
ATOM     18  H   UNL     1       2.755   7.571  20.651  0.00  0.00    +0.000 HD
ATOM     19  H   UNL     1       1.743   6.474  21.489  0.00  0.00    +0.000 HD
ENDBRANCH   2  17
BRANCH   1  21
ATOM     20  N   UNL     1       3.023   8.415  17.433  0.00  0.00    +0.000 NA
ATOM     21  C   UNL     1       2.964   7.246  17.901  0.00  0.00    +0.000 C 
ENDBRANCH   1  21
TORSDOF 3
ENDMDL
MODEL 4
REMARK VINA RESULT:      -7.0      2.465      5.221
REMARK  Name = 
REMARK  3 active torsions:
REMARK  status: ('A' for Active; 'I' for Inactive)
REMARK    1  A    between atoms: C_2  and  C_3
REMARK    2  A    between atoms: C_4  and  N_5
REMARK    3  A    between atoms: C_12  and  C_13
REMARK                            x       y       z     vdW  Elec       q    Type
REMARK                         _______ _______ _______ _____ _____    ______ ____
ROOT
ATOM      1  C   UNL     1       2.905   5.822  18.462  0.00  0.00    +0.000 C 
ATOM      2  C   UNL     1       2.485   5.716  19.749  0.00  0.00    +0.000 C 
ATOM      3  N   UNL     1       2.410   4.424  20.310  0.00  0.00    +0.000 N 
ATOM      4  N   UNL     1       2.111   4.076  21.592  0.00  0.00    +0.000 NA
ATOM      5  C   UNL     1       2.235   2.749  21.549  0.00  0.00    +0.000 A 
ATOM      6  N   UNL     1       2.601   2.218  20.346  0.00  0.00    +0.000 NA
ATOM      7  C   UNL     1       2.697   3.274  19.581  0.00  0.00    +0.000 A 
ATOM      8  N   UNL     1       3.026   3.350  18.271  0.00  0.00    +0.000 N 
ATOM      9  C   UNL     1       3.249   4.631  17.592  0.00  0.00    +0.000 C 
ATOM     10  H   UNL     1       3.368   2.515  17.804  0.00  0.00    +0.000 HD
ENDROOT
BRANCH   9  11
ATOM     11  C   UNL     1       4.678   4.672  17.085  0.00  0.00    +0.000 A 
ATOM     12  C   UNL     1       4.933   4.701  15.704  0.00  0.00    +0.000 A 
ATOM     13  C   UNL     1       6.243   4.750  15.226  0.00  0.00    +0.000 A 
ATOM     14  C   UNL     1       7.312   4.771  16.118  0.00  0.00    +0.000 A 
ATOM     15  C   UNL     1       7.076   4.743  17.491  0.00  0.00    +0.000 A 
ATOM     16  C   UNL     1       5.768   4.691  17.972  0.00  0.00    +0.000 A 
ENDBRANCH   9  11
BRANCH   2  17
ATOM     17  N   UNL     1       2.122   6.779  20.578  0.00  0.00    +0.000 N 
ATOM     18  H   UNL     1       2.820   7.499  20.747  0.00  0.00    +0.000 HD
ATOM     19  H   UNL     1       1.623   6.478  21.418  0.00  0.00    +0.000 HD
ENDBRANCH   2  17
BRANCH   1  21
ATOM     20  N   UNL     1       3.050   8.398  17.422  0.00  0.00    +0.000 NA
ATOM     21  C   UNL     1       2.985   7.230  17.894  0.00  0.00    +0.000 C 
ENDBRANCH   1  21
TORSDOF 3
ENDMDL
MODEL 5
REMARK VINA RESULT:      -7.0      2.038      3.549
REMARK  Name = 
REMARK  3 active torsions:
REMARK  status: ('A' for Active; 'I' for Inactive)
REMARK    1  A    between atoms: C_2  and  C_3
REMARK    2  A    between atoms: C_4  and  N_5
REMARK    3  A    between atoms: C_12  and  C_13
REMARK                            x       y       z     vdW  Elec       q    Type
REMARK                         _______ _______ _______ _____ _____    ______ ____
ROOT
ATOM      1  C   UNL     1       3.988   6.601  18.031  0.00  0.00    +0.000 C 
ATOM      2  C   UNL     1       4.943   6.590  17.067  0.00  0.00    +0.000 C 
ATOM      3  N   UNL     1       6.045   5.725  17.244  0.00  0.00    +0.000 N 
ATOM      4  N   UNL     1       7.068   5.473  16.382  0.00  0.00    +0.000 NA
ATOM      5  C   UNL     1       7.770   4.560  17.053  0.00  0.00    +0.000 A 
ATOM      6  N   UNL     1       7.273   4.196  18.271  0.00  0.00    +0.000 NA
ATOM      7  C   UNL     1       6.202   4.939  18.381  0.00  0.00    +0.000 A 
ATOM      8  N   UNL     1       5.311   5.004  19.396  0.00  0.00    +0.000 N 
ATOM      9  C   UNL     1       4.066   5.775  19.298  0.00  0.00    +0.000 C 
ATOM     10  H   UNL     1       5.372   4.320  20.145  0.00  0.00    +0.000 HD
ENDROOT
BRANCH   9  11
ATOM     11  C   UNL     1       2.892   4.826  19.449  0.00  0.00    +0.000 A 
ATOM     12  C   UNL     1       2.482   4.038  18.362  0.00  0.00    +0.000 A 
ATOM     13  C   UNL     1       1.411   3.154  18.491  0.00  0.00    +0.000 A 
ATOM     14  C   UNL     1       0.738   3.044  19.705  0.00  0.00    +0.000 A 
ATOM     15  C   UNL     1       1.133   3.819  20.794  0.00  0.00    +0.000 A 
ATOM     16  C   UNL     1       2.201   4.706  20.667  0.00  0.00    +0.000 A 
ENDBRANCH   9  11
BRANCH   2  17
ATOM     17  N   UNL     1       4.935   7.359  15.902  0.00  0.00    +0.000 N 
ATOM     18  H   UNL     1       5.678   8.045  15.790  0.00  0.00    +0.000 HD
ATOM     19  H   UNL     1       4.005   7.711  15.662  0.00  0.00    +0.000 HD
ENDBRANCH   2  17
BRANCH   1  21
ATOM     20  N   UNL     1       1.836   8.312  17.613  0.00  0.00    +0.000 NA
ATOM     21  C   UNL     1       2.811   7.536  17.803  0.00  0.00    +0.000 C 
ENDBRANCH   1  21
TORSDOF 3
ENDMDL
MODEL 6
REMARK VINA RESULT:      -7.0      2.033      3.649
REMARK  Name = 
REMARK  3 active torsions:
REMARK  status: ('A' for Active; 'I' for Inactive)
REMARK    1  A    between atoms: C_2  and  C_3
REMARK    2  A    between atoms: C_4  and  N_5
REMARK    3  A    between atoms: C_12  and  C_13
REMARK                            x       y       z     vdW  Elec       q    Type
REMARK                         _______ _______ _______ _____ _____    ______ ____
ROOT
ATOM      1  C   UNL     1       3.984   6.599  18.032  0.00  0.00    +0.000 C 
ATOM      2  C   UNL     1       4.944   6.598  17.071  0.00  0.00    +0.000 C 
ATOM      3  N   UNL     1       6.045   5.733  17.245  0.00  0.00    +0.000 N 
ATOM      4  N   UNL     1       7.073   5.491  16.385  0.00  0.00    +0.000 NA
ATOM      5  C   UNL     1       7.773   4.573  17.050  0.00  0.00    +0.000 A 
ATOM      6  N   UNL     1       7.273   4.198  18.264  0.00  0.00    +0.000 NA
ATOM      7  C   UNL     1       6.200   4.937  18.376  0.00  0.00    +0.000 A 
ATOM      8  N   UNL     1       5.305   4.992  19.388  0.00  0.00    +0.000 N 
ATOM      9  C   UNL     1       4.059   5.761  19.292  0.00  0.00    +0.000 C 
ATOM     10  H   UNL     1       5.364   4.301  20.130  0.00  0.00    +0.000 HD
ENDROOT
BRANCH   9  11
ATOM     11  C   UNL     1       2.886   4.808  19.429  0.00  0.00    +0.000 A 
ATOM     12  C   UNL     1       2.240   4.663  20.667  0.00  0.00    +0.000 A 
ATOM     13  C   UNL     1       1.154   3.799  20.804  0.00  0.00    +0.000 A 
ATOM     14  C   UNL     1       0.699   3.070  19.708  0.00  0.00    +0.000 A 
ATOM     15  C   UNL     1       1.329   3.203  18.472  0.00  0.00    +0.000 A 
ATOM     16  C   UNL     1       2.417   4.064  18.333  0.00  0.00    +0.000 A 
ENDBRANCH   9  11
BRANCH   2  17
ATOM     17  N   UNL     1       4.938   7.378  15.914  0.00  0.00    +0.000 N 
ATOM     18  H   UNL     1       4.034   7.666  15.549  0.00  0.00    +0.000 HD
ATOM     19  H   UNL     1       5.586   7.037  15.199  0.00  0.00    +0.000 HD
ENDBRANCH   2  17
BRANCH   1  21
ATOM     20  N   UNL     1       1.830   8.309  17.620  0.00  0.00    +0.000 NA
ATOM     21  C   UNL     1       2.807   7.534  17.807  0.00  0.00    +0.000 C 
ENDBRANCH   1  21
TORSDOF 3
ENDMDL
MODEL 7
REMARK VINA RESULT:      -6.9      2.901      4.798
REMARK  Name = 
REMARK  3 active torsions:
REMARK  status: ('A' for Active; 'I' for Inactive)
REMARK    1  A    between atoms: C_2  and  C_3
REMARK    2  A    between atoms: C_4  and  N_5
REMARK    3  A    between atoms: C_12  and  C_13
REMARK                            x       y       z     vdW  Elec       q    Type
REMARK                         _______ _______ _______ _____ _____    ______ ____
ROOT
ATOM      1  C   UNL     1       6.372   4.592  17.294  0.00  0.00    +0.000 C 
ATOM      2  C   UNL     1       7.049   5.308  16.359  0.00  0.00    +0.000 C 
ATOM      3  N   UNL     1       6.944   4.894  15.014  0.00  0.00    +0.000 N 
ATOM      4  N   UNL     1       7.448   5.498  13.903  0.00  0.00    +0.000 NA
ATOM      5  C   UNL     1       7.004   4.698  12.933  0.00  0.00    +0.000 A 
ATOM      6  N   UNL     1       6.246   3.635  13.331  0.00  0.00    +0.000 NA
ATOM      7  C   UNL     1       6.225   3.765  14.632  0.00  0.00    +0.000 A 
ATOM      8  N   UNL     1       5.621   2.985  15.557  0.00  0.00    +0.000 N 
ATOM      9  C   UNL     1       5.556   3.357  16.975  0.00  0.00    +0.000 C 
ATOM     10  H   UNL     1       4.988   2.255  15.242  0.00  0.00    +0.000 HD
ENDROOT
BRANCH   9  11
ATOM     11  C   UNL     1       4.099   3.500  17.375  0.00  0.00    +0.000 A 
ATOM     12  C   UNL     1       3.356   2.366  17.740  0.00  0.00    +0.000 A 
ATOM     13  C   UNL     1       2.020   2.486  18.120  0.00  0.00    +0.000 A 
ATOM     14  C   UNL     1       1.409   3.738  18.142  0.00  0.00    +0.000 A 
ATOM     15  C   UNL     1       2.133   4.873  17.782  0.00  0.00    +0.000 A 
ATOM     16  C   UNL     1       3.469   4.756  17.399  0.00  0.00    +0.000 A 
ENDBRANCH   9  11
BRANCH   2  17
ATOM     17  N   UNL     1       7.842   6.428  16.607  0.00  0.00    +0.000 N 
ATOM     18  H   UNL     1       8.497   6.708  15.881  0.00  0.00    +0.000 HD
ATOM     19  H   UNL     1       8.239   6.437  17.550  0.00  0.00    +0.000 HD
ENDBRANCH   2  17
BRANCH   1  21
ATOM     20  N   UNL     1       6.604   5.471  19.922  0.00  0.00    +0.000 NA
ATOM     21  C   UNL     1       6.499   5.073  18.731  0.00  0.00    +0.000 C 
ENDBRANCH   1  21
TORSDOF 3
ENDMDL
MODEL 8
REMARK VINA RESULT:      -6.9      2.264      4.973
REMARK  Name = 
REMARK  3 active torsions:
REMARK  status: ('A' for Active; 'I' for Inactive)
REMARK    1  A    between atoms: C_2  and  C_3
REMARK    2  A    between atoms: C_4  and  N_5
REMARK    3  A    between atoms: C_12  and  C_13
REMARK                            x       y       z     vdW  Elec       q    Type
REMARK                         _______ _______ _______ _____ _____    ______ ____
ROOT
ATOM      1  C   UNL     1       2.996   6.085  18.918  0.00  0.00    +0.000 C 
ATOM      2  C   UNL     1       2.283   5.662  19.993  0.00  0.00    +0.000 C 
ATOM      3  N   UNL     1       2.535   4.361  20.478  0.00  0.00    +0.000 N 
ATOM      4  N   UNL     1       2.019   3.756  21.584  0.00  0.00    +0.000 NA
ATOM      5  C   UNL     1       2.639   2.576  21.562  0.00  0.00    +0.000 A 
ATOM      6  N   UNL     1       3.519   2.378  20.537  0.00  0.00    +0.000 NA
ATOM      7  C   UNL     1       3.436   3.496  19.863  0.00  0.00    +0.000 A 
ATOM      8  N   UNL     1       4.087   3.862  18.736  0.00  0.00    +0.000 N 
ATOM      9  C   UNL     1       4.004   5.221  18.189  0.00  0.00    +0.000 C 
ATOM     10  H   UNL     1       4.840   3.272  18.394  0.00  0.00    +0.000 HD
ENDROOT
BRANCH   9  11
ATOM     11  C   UNL     1       5.395   5.829  18.181  0.00  0.00    +0.000 A 
ATOM     12  C   UNL     1       6.350   5.408  19.120  0.00  0.00    +0.000 A 
ATOM     13  C   UNL     1       7.635   5.951  19.115  0.00  0.00    +0.000 A 
ATOM     14  C   UNL     1       7.982   6.919  18.176  0.00  0.00    +0.000 A 
ATOM     15  C   UNL     1       7.045   7.347  17.238  0.00  0.00    +0.000 A 
ATOM     16  C   UNL     1       5.758   6.808  17.241  0.00  0.00    +0.000 A 
ENDBRANCH   9  11
BRANCH   2  17
ATOM     17  N   UNL     1       1.318   6.406  20.675  0.00  0.00    +0.000 N 
ATOM     18  H   UNL     1       1.012   7.278  20.248  0.00  0.00    +0.000 HD
ATOM     19  H   UNL     1       1.502   6.476  21.679  0.00  0.00    +0.000 HD
ENDBRANCH   2  17
BRANCH   1  21
ATOM     20  N   UNL     1       2.467   8.666  18.027  0.00  0.00    +0.000 NA
ATOM     21  C   UNL     1       2.707   7.496  18.431  0.00  0.00    +0.000 C 
ENDBRANCH   1  21
TORSDOF 3
ENDMDL
MODEL 9
REMARK VINA RESULT:      -6.9      2.880      4.690
REMARK  Name = 
REMARK  3 active torsions:
REMARK  status: ('A' for Active; 'I' for Inactive)
REMARK    1  A    between atoms: C_2  and  C_3
REMARK    2  A    between atoms: C_4  and  N_5
REMARK    3  A    between atoms: C_12  and  C_13
REMARK                            x       y       z     vdW  Elec       q    Type
REMARK                         _______ _______ _______ _____ _____    ______ ____
ROOT
ATOM      1  C   UNL     1       6.389   4.600  17.304  0.00  0.00    +0.000 C 
ATOM      2  C   UNL     1       7.061   5.312  16.364  0.00  0.00    +0.000 C 
ATOM      3  N   UNL     1       6.947   4.897  15.020  0.00  0.00    +0.000 N 
ATOM      4  N   UNL     1       7.446   5.499  13.905  0.00  0.00    +0.000 NA
ATOM      5  C   UNL     1       6.993   4.699  12.939  0.00  0.00    +0.000 A 
ATOM      6  N   UNL     1       6.235   3.638  13.344  0.00  0.00    +0.000 NA
ATOM      7  C   UNL     1       6.223   3.770  14.645  0.00  0.00    +0.000 A 
ATOM      8  N   UNL     1       5.623   2.992  15.574  0.00  0.00    +0.000 N 
ATOM      9  C   UNL     1       5.568   3.366  16.992  0.00  0.00    +0.000 C 
ATOM     10  H   UNL     1       4.986   2.263  15.264  0.00  0.00    +0.000 HD
ENDROOT
BRANCH   9  11
ATOM     11  C   UNL     1       4.114   3.513  17.401  0.00  0.00    +0.000 A 
ATOM     12  C   UNL     1       3.515   4.783  17.417  0.00  0.00    +0.000 A 
ATOM     13  C   UNL     1       2.176   4.930  17.781  0.00  0.00    +0.000 A 
ATOM     14  C   UNL     1       1.420   3.815  18.132  0.00  0.00    +0.000 A 
ATOM     15  C   UNL     1       2.001   2.548  18.122  0.00  0.00    +0.000 A 
ATOM     16  C   UNL     1       3.340   2.397  17.761  0.00  0.00    +0.000 A 
ENDBRANCH   9  11
BRANCH   2  17
ATOM     17  N   UNL     1       7.859   6.431  16.606  0.00  0.00    +0.000 N 
ATOM     18  H   UNL     1       7.752   7.226  15.980  0.00  0.00    +0.000 HD
ATOM     19  H   UNL     1       8.832   6.192  16.811  0.00  0.00    +0.000 HD
ENDBRANCH   2  17
BRANCH   1  21
ATOM     20  N   UNL     1       6.640   5.481  19.930  0.00  0.00    +0.000 NA
ATOM     21  C   UNL     1       6.526   5.081  18.739  0.00  0.00    +0.000 C 
ENDBRANCH   1  21
TORSDOF 3
ENDMDL
