MODEL 1
REMARK VINA RESULT:      -7.3      0.000      0.000
REMARK  Name = 
REMARK  6 active torsions:
REMARK  status: ('A' for Active; 'I' for Inactive)
REMARK    1  A    between atoms: C_1  and  O_2
REMARK    2  A    between atoms: O_2  and  C_3
REMARK    3  A    between atoms: C_9  and  S_10
REMARK    4  A    between atoms: S_10  and  N_13
REMARK    5  A    between atoms: N_16  and  C_17
REMARK    6  A    between atoms: C_17  and  C_18
REMARK                            x       y       z     vdW  Elec       q    Type
REMARK                         _______ _______ _______ _____ _____    ______ ____
ROOT
ATOM      1  N   UNL     1      -0.325   9.626  20.782  0.00  0.00    +0.000 NA
ATOM      2  C   UNL     1       0.142   9.725  19.382  0.00  0.00    +0.000 C 
ATOM      3  C   UNL     1       1.618   9.297  19.261  0.00  0.00    +0.000 C 
ATOM      4  N   UNL     1       2.036   8.079  19.995  0.00  0.00    +0.000 NA
ATOM      5  C   UNL     1       1.341   7.895  21.280  0.00  0.00    +0.000 C 
ATOM      6  C   UNL     1      -0.148   8.254  21.288  0.00  0.00    +0.000 C 
ENDROOT
BRANCH   1   7
ATOM      7  S   UNL     1      -0.175  10.936  21.853  0.00  0.00    +0.000 S 
ATOM      8  O   UNL     1       0.773  11.864  21.274  0.00  0.00    +0.000 OA
ATOM      9  O   UNL     1       0.104  10.358  23.153  0.00  0.00    +0.000 OA
BRANCH   7  16
ATOM     10  C   UNL     1      -2.357  12.565  21.022  0.00  0.00    +0.000 A 
ATOM     11  C   UNL     1      -3.500  13.328  21.357  0.00  0.00    +0.000 A 
ATOM     12  C   UNL     1      -4.019  13.333  22.650  0.00  0.00    +0.000 A 
ATOM     13  C   UNL     1      -3.411  12.562  23.616  0.00  0.00    +0.000 A 
ATOM     14  F   UNL     1      -3.891  12.581  24.872  0.00  0.00    +0.000 F 
ATOM     15  C   UNL     1      -2.294  11.793  23.328  0.00  0.00    +0.000 A 
ATOM     16  C   UNL     1      -1.763  11.765  22.023  0.00  0.00    +0.000 A 
BRANCH  10  18
ATOM     17  C   UNL     1      -2.620  11.904  18.741  0.00  0.00    +0.000 C 
ATOM     18  O   UNL     1      -1.845  12.564  19.748  0.00  0.00    +0.000 OA
ENDBRANCH  10  18
ENDBRANCH   7  16
ENDBRANCH   1   7
BRANCH   4  19
ATOM     19  C   UNL     1       2.004   6.865  19.171  0.00  0.00    +0.000 C 
BRANCH  19  20
ATOM     20  C   UNL     1       3.361   6.544  18.577  0.00  0.00    +0.000 A 
ATOM     21  C   UNL     1       3.753   7.117  17.346  0.00  0.00    +0.000 A 
ATOM     22  C   UNL     1       5.001   6.832  16.786  0.00  0.00    +0.000 A 
ATOM     23  C   UNL     1       5.838   5.977  17.478  0.00  0.00    +0.000 A 
ATOM     24  C   UNL     1       5.468   5.414  18.668  0.00  0.00    +0.000 A 
ATOM     25  C   UNL     1       4.238   5.662  19.240  0.00  0.00    +0.000 A 
ATOM     26  O   UNL     1       6.443   4.616  19.187  0.00  0.00    +0.000 OA
ATOM     27  C   UNL     1       7.489   4.800  18.211  0.00  0.00    +0.000 C 
ATOM     28  O   UNL     1       7.087   5.607  17.085  0.00  0.00    +0.000 OA
ENDBRANCH  19  20
ENDBRANCH   4  19
TORSDOF 5
ENDMDL
MODEL 2
REMARK VINA RESULT:      -7.1      1.390      1.822
REMARK  Name = 
REMARK  6 active torsions:
REMARK  status: ('A' for Active; 'I' for Inactive)
REMARK    1  A    between atoms: C_1  and  O_2
REMARK    2  A    between atoms: O_2  and  C_3
REMARK    3  A    between atoms: C_9  and  S_10
REMARK    4  A    between atoms: S_10  and  N_13
REMARK    5  A    between atoms: N_16  and  C_17
REMARK    6  A    between atoms: C_17  and  C_18
REMARK                            x       y       z     vdW  Elec       q    Type
REMARK                         _______ _______ _______ _____ _____    ______ ____
ROOT
ATOM      1  N   UNL     1      -0.328   9.803  20.642  0.00  0.00    +0.000 NA
ATOM      2  C   UNL     1      -0.208  10.129  19.204  0.00  0.00    +0.000 C 
ATOM      3  C   UNL     1       1.233   9.907  18.705  0.00  0.00    +0.000 C 
ATOM      4  N   UNL     1       1.923   8.670  19.145  0.00  0.00    +0.000 NA
ATOM      5  C   UNL     1       1.564   8.246  20.508  0.00  0.00    +0.000 C 
ATOM      6  C   UNL     1       0.090   8.413  20.891  0.00  0.00    +0.000 C 
ENDROOT
BRANCH   1   7
ATOM      7  S   UNL     1      -0.058  10.982  21.836  0.00  0.00    +0.000 S 
ATOM      8  O   UNL     1       0.996  11.851  21.358  0.00  0.00    +0.000 OA
ATOM      9  O   UNL     1       0.131  10.256  23.077  0.00  0.00    +0.000 OA
BRANCH   7  16
ATOM     10  C   UNL     1      -1.901  13.080  21.287  0.00  0.00    +0.000 A 
ATOM     11  C   UNL     1      -2.988  13.884  21.706  0.00  0.00    +0.000 A 
ATOM     12  C   UNL     1      -3.682  13.614  22.883  0.00  0.00    +0.000 A 
ATOM     13  C   UNL     1      -3.309  12.527  23.643  0.00  0.00    +0.000 A 
ATOM     14  F   UNL     1      -3.958  12.273  24.793  0.00  0.00    +0.000 F 
ATOM     15  C   UNL     1      -2.256  11.709  23.264  0.00  0.00    +0.000 A 
ATOM     16  C   UNL     1      -1.551  11.959  22.070  0.00  0.00    +0.000 A 
BRANCH  10  18
ATOM     17  C   UNL     1      -0.605  14.642  20.026  0.00  0.00    +0.000 C 
ATOM     18  O   UNL     1      -1.216  13.352  20.128  0.00  0.00    +0.000 OA
ENDBRANCH  10  18
ENDBRANCH   7  16
ENDBRANCH   1   7
BRANCH   4  19
ATOM     19  C   UNL     1       1.816   7.572  18.178  0.00  0.00    +0.000 C 
BRANCH  19  20
ATOM     20  C   UNL     1       2.774   6.441  18.492  0.00  0.00    +0.000 A 
ATOM     21  C   UNL     1       4.147   6.563  18.178  0.00  0.00    +0.000 A 
ATOM     22  C   UNL     1       5.044   5.530  18.463  0.00  0.00    +0.000 A 
ATOM     23  C   UNL     1       4.544   4.390  19.064  0.00  0.00    +0.000 A 
ATOM     24  C   UNL     1       3.217   4.260  19.369  0.00  0.00    +0.000 A 
ATOM     25  C   UNL     1       2.304   5.253  19.088  0.00  0.00    +0.000 A 
ATOM     26  O   UNL     1       2.940   3.067  19.968  0.00  0.00    +0.000 OA
ATOM     27  C   UNL     1       4.262   2.498  20.058  0.00  0.00    +0.000 C 
ATOM     28  O   UNL     1       5.277   3.301  19.422  0.00  0.00    +0.000 OA
ENDBRANCH  19  20
ENDBRANCH   4  19
TORSDOF 5
ENDMDL
MODEL 3
REMARK VINA RESULT:      -7.1      0.958      1.496
REMARK  Name = 
REMARK  6 active torsions:
REMARK  status: ('A' for Active; 'I' for Inactive)
REMARK    1  A    between atoms: C_1  and  O_2
REMARK    2  A    between atoms: O_2  and  C_3
REMARK    3  A    between atoms: C_9  and  S_10
REMARK    4  A    between atoms: S_10  and  N_13
REMARK    5  A    between atoms: N_16  and  C_17
REMARK    6  A    between atoms: C_17  and  C_18
REMARK                            x       y       z     vdW  Elec       q    Type
REMARK                         _______ _______ _______ _____ _____    ______ ____
ROOT
ATOM      1  N   UNL     1      -0.483   9.825  21.006  0.00  0.00    +0.000 NA
ATOM      2  C   UNL     1      -0.322  10.118  19.564  0.00  0.00    +0.000 C 
ATOM      3  C   UNL     1       1.133   9.883  19.112  0.00  0.00    +0.000 C 
ATOM      4  N   UNL     1       1.808   8.656  19.599  0.00  0.00    +0.000 NA
ATOM      5  C   UNL     1       1.409   8.263  20.961  0.00  0.00    +0.000 C 
ATOM      6  C   UNL     1      -0.075   8.439  21.297  0.00  0.00    +0.000 C 
ENDROOT
BRANCH   1   7
ATOM      7  S   UNL     1      -0.246  11.029  22.180  0.00  0.00    +0.000 S 
ATOM      8  O   UNL     1       0.822  11.887  21.713  0.00  0.00    +0.000 OA
ATOM      9  O   UNL     1      -0.093  10.331  23.441  0.00  0.00    +0.000 OA
BRANCH   7  16
ATOM     10  C   UNL     1      -2.013  13.188  21.617  0.00  0.00    +0.000 A 
ATOM     11  C   UNL     1      -3.124  13.979  21.994  0.00  0.00    +0.000 A 
ATOM     12  C   UNL     1      -3.920  13.643  23.086  0.00  0.00    +0.000 A 
ATOM     13  C   UNL     1      -3.626  12.502  23.800  0.00  0.00    +0.000 A 
ATOM     14  F   UNL     1      -4.375  12.184  24.870  0.00  0.00    +0.000 F 
ATOM     15  C   UNL     1      -2.552  11.695  23.459  0.00  0.00    +0.000 A 
ATOM     16  C   UNL     1      -1.743  12.013  22.350  0.00  0.00    +0.000 A 
BRANCH  10  18
ATOM     17  C   UNL     1      -1.279  14.887  20.105  0.00  0.00    +0.000 C 
ATOM     18  O   UNL     1      -1.227  13.525  20.542  0.00  0.00    +0.000 OA
ENDBRANCH  10  18
ENDBRANCH   7  16
ENDBRANCH   1   7
BRANCH   4  19
ATOM     19  C   UNL     1       1.727   7.537  18.655  0.00  0.00    +0.000 C 
BRANCH  19  20
ATOM     20  C   UNL     1       3.061   6.838  18.482  0.00  0.00    +0.000 A 
ATOM     21  C   UNL     1       3.456   5.825  19.385  0.00  0.00    +0.000 A 
ATOM     22  C   UNL     1       4.681   5.170  19.240  0.00  0.00    +0.000 A 
ATOM     23  C   UNL     1       5.490   5.544  18.182  0.00  0.00    +0.000 A 
ATOM     24  C   UNL     1       5.119   6.525  17.304  0.00  0.00    +0.000 A 
ATOM     25  C   UNL     1       3.924   7.201  17.429  0.00  0.00    +0.000 A 
ATOM     26  O   UNL     1       6.052   6.726  16.331  0.00  0.00    +0.000 OA
ATOM     27  C   UNL     1       7.017   5.709  16.670  0.00  0.00    +0.000 C 
ATOM     28  O   UNL     1       6.701   5.001  17.887  0.00  0.00    +0.000 OA
ENDBRANCH  19  20
ENDBRANCH   4  19
TORSDOF 5
ENDMDL
MODEL 4
REMARK VINA RESULT:      -7.0      4.149      9.867
REMARK  Name = 
REMARK  6 active torsions:
REMARK  status: ('A' for Active; 'I' for Inactive)
REMARK    1  A    between atoms: C_1  and  O_2
REMARK    2  A    between atoms: O_2  and  C_3
REMARK    3  A    between atoms: C_9  and  S_10
REMARK    4  A    between atoms: S_10  and  N_13
REMARK    5  A    between atoms: N_16  and  C_17
REMARK    6  A    between atoms: C_17  and  C_18
REMARK                            x       y       z     vdW  Elec       q    Type
REMARK                         _______ _______ _______ _____ _____    ______ ____
ROOT
ATOM      1  N   UNL     1       3.738   5.014  19.516  0.00  0.00    +0.000 NA
ATOM      2  C   UNL     1       3.967   6.454  19.263  0.00  0.00    +0.000 C 
ATOM      3  C   UNL     1       2.631   7.213  19.143  0.00  0.00    +0.000 C 
ATOM      4  N   UNL     1       1.575   6.892  20.133  0.00  0.00    +0.000 NA
ATOM      5  C   UNL     1       1.561   5.480  20.547  0.00  0.00    +0.000 C 
ATOM      6  C   UNL     1       2.934   4.827  20.736  0.00  0.00    +0.000 C 
ENDROOT
BRANCH   1   7
ATOM      7  S   UNL     1       3.577   3.911  18.234  0.00  0.00    +0.000 S 
ATOM      8  O   UNL     1       2.386   4.274  17.495  0.00  0.00    +0.000 OA
ATOM      9  O   UNL     1       3.665   2.592  18.829  0.00  0.00    +0.000 OA
BRANCH   7  16
ATOM     10  C   UNL     1       6.291   4.429  17.552  0.00  0.00    +0.000 A 
ATOM     11  C   UNL     1       7.266   4.697  16.562  0.00  0.00    +0.000 A 
ATOM     12  C   UNL     1       6.963   4.627  15.204  0.00  0.00    +0.000 A 
ATOM     13  C   UNL     1       5.688   4.270  14.823  0.00  0.00    +0.000 A 
ATOM     14  F   UNL     1       5.381   4.224  13.514  0.00  0.00    +0.000 F 
ATOM     15  C   UNL     1       4.706   3.990  15.760  0.00  0.00    +0.000 A 
ATOM     16  C   UNL     1       4.998   4.044  17.138  0.00  0.00    +0.000 A 
BRANCH  10  18
ATOM     17  C   UNL     1       7.475   5.553  19.297  0.00  0.00    +0.000 C 
ATOM     18  O   UNL     1       6.592   4.502  18.890  0.00  0.00    +0.000 OA
ENDBRANCH  10  18
ENDBRANCH   7  16
ENDBRANCH   1   7
BRANCH   4  19
ATOM     19  C   UNL     1       1.562   7.805  21.282  0.00  0.00    +0.000 C 
BRANCH  19  20
ATOM     20  C   UNL     1       0.692   9.020  21.036  0.00  0.00    +0.000 A 
ATOM     21  C   UNL     1       0.074   9.686  22.119  0.00  0.00    +0.000 A 
ATOM     22  C   UNL     1      -0.729  10.809  21.909  0.00  0.00    +0.000 A 
ATOM     23  C   UNL     1      -0.896  11.248  20.608  0.00  0.00    +0.000 A 
ATOM     24  C   UNL     1      -0.306  10.610  19.552  0.00  0.00    +0.000 A 
ATOM     25  C   UNL     1       0.480   9.490  19.724  0.00  0.00    +0.000 A 
ATOM     26  O   UNL     1      -0.588  11.212  18.362  0.00  0.00    +0.000 OA
ATOM     27  C   UNL     1      -1.370  12.339  18.810  0.00  0.00    +0.000 C 
ATOM     28  O   UNL     1      -1.629  12.329  20.229  0.00  0.00    +0.000 OA
ENDBRANCH  19  20
ENDBRANCH   4  19
TORSDOF 5
ENDMDL
MODEL 5
REMARK VINA RESULT:      -7.0      1.394      2.402
REMARK  Name = 
REMARK  6 active torsions:
REMARK  status: ('A' for Active; 'I' for Inactive)
REMARK    1  A    between atoms: C_1  and  O_2
REMARK    2  A    between atoms: O_2  and  C_3
REMARK    3  A    between atoms: C_9  and  S_10
REMARK    4  A    between atoms: S_10  and  N_13
REMARK    5  A    between atoms: N_16  and  C_17
REMARK    6  A    between atoms: C_17  and  C_18
REMARK                            x       y       z     vdW  Elec       q    Type
REMARK                         _______ _______ _______ _____ _____    ______ ____
ROOT
ATOM      1  N   UNL     1      -0.034  10.240  19.523  0.00  0.00    +0.000 NA
ATOM      2  C   UNL     1       0.212  10.032  18.079  0.00  0.00    +0.000 C 
ATOM      3  C   UNL     1       1.661   9.572  17.827  0.00  0.00    +0.000 C 
ATOM      4  N   UNL     1       2.213   8.534  18.731  0.00  0.00    +0.000 NA
ATOM      5  C   UNL     1       1.726   8.636  20.116  0.00  0.00    +0.000 C 
ATOM      6  C   UNL     1       0.247   9.005  20.276  0.00  0.00    +0.000 C 
ENDROOT
BRANCH   1   7
ATOM      7  S   UNL     1       0.249  11.747  20.256  0.00  0.00    +0.000 S 
ATOM      8  O   UNL     1       0.354  12.730  19.199  0.00  0.00    +0.000 OA
ATOM      9  O   UNL     1       1.369  11.549  21.154  0.00  0.00    +0.000 OA
BRANCH   7  16
ATOM     10  C   UNL     1      -1.344  11.680  22.614  0.00  0.00    +0.000 A 
ATOM     11  C   UNL     1      -2.581  11.931  23.252  0.00  0.00    +0.000 A 
ATOM     12  C   UNL     1      -3.606  12.619  22.608  0.00  0.00    +0.000 A 
ATOM     13  C   UNL     1      -3.398  13.079  21.326  0.00  0.00    +0.000 A 
ATOM     14  F   UNL     1      -4.392  13.723  20.688  0.00  0.00    +0.000 F 
ATOM     15  C   UNL     1      -2.198  12.862  20.668  0.00  0.00    +0.000 A 
ATOM     16  C   UNL     1      -1.145  12.179  21.309  0.00  0.00    +0.000 A 
BRANCH  10  18
ATOM     17  C   UNL     1      -0.514   9.587  23.414  0.00  0.00    +0.000 C 
ATOM     18  O   UNL     1      -0.336  10.998  23.251  0.00  0.00    +0.000 OA
ENDBRANCH  10  18
ENDBRANCH   7  16
ENDBRANCH   1   7
BRANCH   4  19
ATOM     19  C   UNL     1       2.083   7.173  18.198  0.00  0.00    +0.000 C 
BRANCH  19  20
ATOM     20  C   UNL     1       3.377   6.392  18.306  0.00  0.00    +0.000 A 
ATOM     21  C   UNL     1       3.584   5.501  19.383  0.00  0.00    +0.000 A 
ATOM     22  C   UNL     1       4.770   4.773  19.496  0.00  0.00    +0.000 A 
ATOM     23  C   UNL     1       5.731   4.950  18.518  0.00  0.00    +0.000 A 
ATOM     24  C   UNL     1       5.544   5.812  17.473  0.00  0.00    +0.000 A 
ATOM     25  C   UNL     1       4.391   6.557  17.340  0.00  0.00    +0.000 A 
ATOM     26  O   UNL     1       6.605   5.825  16.618  0.00  0.00    +0.000 OA
ATOM     27  C   UNL     1       7.448   4.821  17.221  0.00  0.00    +0.000 C 
ATOM     28  O   UNL     1       6.931   4.311  18.467  0.00  0.00    +0.000 OA
ENDBRANCH  19  20
ENDBRANCH   4  19
TORSDOF 5
ENDMDL
MODEL 6
REMARK VINA RESULT:      -7.0      4.103      9.958
REMARK  Name = 
REMARK  6 active torsions:
REMARK  status: ('A' for Active; 'I' for Inactive)
REMARK    1  A    between atoms: C_1  and  O_2
REMARK    2  A    between atoms: O_2  and  C_3
REMARK    3  A    between atoms: C_9  and  S_10
REMARK    4  A    between atoms: S_10  and  N_13
REMARK    5  A    between atoms: N_16  and  C_17
REMARK    6  A    between atoms: C_17  and  C_18
REMARK                            x       y       z     vdW  Elec       q    Type
REMARK                         _______ _______ _______ _____ _____    ______ ____
ROOT
ATOM      1  N   UNL     1       3.676   5.005  19.518  0.00  0.00    +0.000 NA
ATOM      2  C   UNL     1       3.905   6.455  19.327  0.00  0.00    +0.000 C 
ATOM      3  C   UNL     1       2.570   7.222  19.269  0.00  0.00    +0.000 C 
ATOM      4  N   UNL     1       1.532   6.860  20.265  0.00  0.00    +0.000 NA
ATOM      5  C   UNL     1       1.521   5.429  20.613  0.00  0.00    +0.000 C 
ATOM      6  C   UNL     1       2.896   4.765  20.745  0.00  0.00    +0.000 C 
ENDROOT
BRANCH   1   7
ATOM      7  S   UNL     1       3.485   3.963  18.190  0.00  0.00    +0.000 S 
ATOM      8  O   UNL     1       2.333   4.419  17.442  0.00  0.00    +0.000 OA
ATOM      9  O   UNL     1       3.489   2.619  18.735  0.00  0.00    +0.000 OA
BRANCH   7  16
ATOM     10  C   UNL     1       6.229   4.410  17.578  0.00  0.00    +0.000 A 
ATOM     11  C   UNL     1       7.234   4.655  16.613  0.00  0.00    +0.000 A 
ATOM     12  C   UNL     1       6.964   4.594  15.248  0.00  0.00    +0.000 A 
ATOM     13  C   UNL     1       5.690   4.270  14.834  0.00  0.00    +0.000 A 
ATOM     14  F   UNL     1       5.415   4.234  13.518  0.00  0.00    +0.000 F 
ATOM     15  C   UNL     1       4.678   4.016  15.746  0.00  0.00    +0.000 A 
ATOM     16  C   UNL     1       4.937   4.060  17.131  0.00  0.00    +0.000 A 
BRANCH  10  18
ATOM     17  C   UNL     1       7.405   5.496  19.353  0.00  0.00    +0.000 C 
ATOM     18  O   UNL     1       6.498   4.475  18.923  0.00  0.00    +0.000 OA
ENDBRANCH  10  18
ENDBRANCH   7  16
ENDBRANCH   1   7
BRANCH   4  19
ATOM     19  C   UNL     1       1.546   7.718  21.454  0.00  0.00    +0.000 C 
BRANCH  19  20
ATOM     20  C   UNL     1       0.663   8.938  21.287  0.00  0.00    +0.000 A 
ATOM     21  C   UNL     1       0.466   9.505  20.007  0.00  0.00    +0.000 A 
ATOM     22  C   UNL     1      -0.346  10.628  19.835  0.00  0.00    +0.000 A 
ATOM     23  C   UNL     1      -0.953  11.163  20.956  0.00  0.00    +0.000 A 
ATOM     24  C   UNL     1      -0.767  10.625  22.200  0.00  0.00    +0.000 A 
ATOM     25  C   UNL     1       0.040   9.526  22.406  0.00  0.00    +0.000 A 
ATOM     26  O   UNL     1      -1.464  11.294  23.161  0.00  0.00    +0.000 OA
ATOM     27  C   UNL     1      -2.157  12.272  22.358  0.00  0.00    +0.000 C 
ATOM     28  O   UNL     1      -1.782  12.240  20.966  0.00  0.00    +0.000 OA
ENDBRANCH  19  20
ENDBRANCH   4  19
TORSDOF 5
ENDMDL
MODEL 7
REMARK VINA RESULT:      -6.9      1.050      1.551
REMARK  Name = 
REMARK  6 active torsions:
REMARK  status: ('A' for Active; 'I' for Inactive)
REMARK    1  A    between atoms: C_1  and  O_2
REMARK    2  A    between atoms: O_2  and  C_3
REMARK    3  A    between atoms: C_9  and  S_10
REMARK    4  A    between atoms: S_10  and  N_13
REMARK    5  A    between atoms: N_16  and  C_17
REMARK    6  A    between atoms: C_17  and  C_18
REMARK                            x       y       z     vdW  Elec       q    Type
REMARK                         _______ _______ _______ _____ _____    ______ ____
ROOT
ATOM      1  N   UNL     1       0.154   9.591  19.980  0.00  0.00    +0.000 NA
ATOM      2  C   UNL     1       0.562   9.533  18.559  0.00  0.00    +0.000 C 
ATOM      3  C   UNL     1       2.026   9.073  18.422  0.00  0.00    +0.000 C 
ATOM      4  N   UNL     1       2.464   7.934  19.264  0.00  0.00    +0.000 NA
ATOM      5  C   UNL     1       1.822   7.897  20.589  0.00  0.00    +0.000 C 
ATOM      6  C   UNL     1       0.339   8.277  20.622  0.00  0.00    +0.000 C 
ENDROOT
BRANCH   1   7
ATOM      7  S   UNL     1       0.364  11.005  20.899  0.00  0.00    +0.000 S 
ATOM      8  O   UNL     1       1.165  11.919  20.112  0.00  0.00    +0.000 OA
ATOM      9  O   UNL     1       0.852  10.570  22.193  0.00  0.00    +0.000 OA
BRANCH   7  16
ATOM     10  C   UNL     1      -1.997  12.454  20.247  0.00  0.00    +0.000 A 
ATOM     11  C   UNL     1      -3.132  13.183  20.674  0.00  0.00    +0.000 A 
ATOM     12  C   UNL     1      -3.483  13.262  22.020  0.00  0.00    +0.000 A 
ATOM     13  C   UNL     1      -2.713  12.598  22.950  0.00  0.00    +0.000 A 
ATOM     14  F   UNL     1      -3.031  12.690  24.254  0.00  0.00    +0.000 F 
ATOM     15  C   UNL     1      -1.599  11.866  22.573  0.00  0.00    +0.000 A 
ATOM     16  C   UNL     1      -1.236  11.764  21.215  0.00  0.00    +0.000 A 
BRANCH  10  18
ATOM     17  C   UNL     1      -2.497  11.595  18.074  0.00  0.00    +0.000 C 
ATOM     18  O   UNL     1      -1.652  12.382  18.920  0.00  0.00    +0.000 OA
ENDBRANCH  10  18
ENDBRANCH   7  16
ENDBRANCH   1   7
BRANCH   4  19
ATOM     19  C   UNL     1       2.384   6.640  18.576  0.00  0.00    +0.000 C 
BRANCH  19  20
ATOM     20  C   UNL     1       3.752   6.107  18.205  0.00  0.00    +0.000 A 
ATOM     21  C   UNL     1       4.541   5.436  19.168  0.00  0.00    +0.000 A 
ATOM     22  C   UNL     1       5.803   4.936  18.842  0.00  0.00    +0.000 A 
ATOM     23  C   UNL     1       6.253   5.116  17.546  0.00  0.00    +0.000 A 
ATOM     24  C   UNL     1       5.500   5.766  16.607  0.00  0.00    +0.000 A 
ATOM     25  C   UNL     1       4.257   6.284  16.901  0.00  0.00    +0.000 A 
ATOM     26  O   UNL     1       6.122   5.822  15.396  0.00  0.00    +0.000 OA
ATOM     27  C   UNL     1       7.322   5.072  15.676  0.00  0.00    +0.000 C 
ATOM     28  O   UNL     1       7.446   4.681  17.059  0.00  0.00    +0.000 OA
ENDBRANCH  19  20
ENDBRANCH   4  19
TORSDOF 5
ENDMDL
MODEL 8
REMARK VINA RESULT:      -6.8      4.109     10.020
REMARK  Name = 
REMARK  6 active torsions:
REMARK  status: ('A' for Active; 'I' for Inactive)
REMARK    1  A    between atoms: C_1  and  O_2
REMARK    2  A    between atoms: O_2  and  C_3
REMARK    3  A    between atoms: C_9  and  S_10
REMARK    4  A    between atoms: S_10  and  N_13
REMARK    5  A    between atoms: N_16  and  C_17
REMARK    6  A    between atoms: C_17  and  C_18
REMARK                            x       y       z     vdW  Elec       q    Type
REMARK                         _______ _______ _______ _____ _____    ______ ____
ROOT
ATOM      1  N   UNL     1       3.604   6.348  18.983  0.00  0.00    +0.000 NA
ATOM      2  C   UNL     1       3.984   7.485  18.115  0.00  0.00    +0.000 C 
ATOM      3  C   UNL     1       2.743   8.108  17.446  0.00  0.00    +0.000 C 
ATOM      4  N   UNL     1       1.544   8.316  18.293  0.00  0.00    +0.000 NA
ATOM      5  C   UNL     1       1.359   7.278  19.320  0.00  0.00    +0.000 C 
ATOM      6  C   UNL     1       2.636   6.782  20.005  0.00  0.00    +0.000 C 
ENDROOT
BRANCH   1   7
ATOM      7  S   UNL     1       3.519   4.766  18.371  0.00  0.00    +0.000 S 
ATOM      8  O   UNL     1       2.318   4.676  17.567  0.00  0.00    +0.000 OA
ATOM      9  O   UNL     1       3.673   3.888  19.514  0.00  0.00    +0.000 OA
BRANCH   7  16
ATOM     10  C   UNL     1       6.285   4.615  17.719  0.00  0.00    +0.000 A 
ATOM     11  C   UNL     1       7.299   4.532  16.736  0.00  0.00    +0.000 A 
ATOM     12  C   UNL     1       6.996   4.330  15.392  0.00  0.00    +0.000 A 
ATOM     13  C   UNL     1       5.677   4.189  15.020  0.00  0.00    +0.000 A 
ATOM     14  F   UNL     1       5.374   4.018  13.721  0.00  0.00    +0.000 F 
ATOM     15  C   UNL     1       4.654   4.254  15.952  0.00  0.00    +0.000 A 
ATOM     16  C   UNL     1       4.943   4.446  17.318  0.00  0.00    +0.000 A 
BRANCH  10  18
ATOM     17  C   UNL     1       7.645   5.740  19.331  0.00  0.00    +0.000 C 
ATOM     18  O   UNL     1       6.588   4.818  19.043  0.00  0.00    +0.000 OA
ENDBRANCH  10  18
ENDBRANCH   7  16
ENDBRANCH   1   7
BRANCH   4  19
ATOM     19  C   UNL     1       1.460   9.669  18.854  0.00  0.00    +0.000 C 
BRANCH  19  20
ATOM     20  C   UNL     1       0.058  10.237  18.762  0.00  0.00    +0.000 A 
ATOM     21  C   UNL     1      -0.791   9.872  17.692  0.00  0.00    +0.000 A 
ATOM     22  C   UNL     1      -2.086  10.385  17.594  0.00  0.00    +0.000 A 
ATOM     23  C   UNL     1      -2.510  11.257  18.580  0.00  0.00    +0.000 A 
ATOM     24  C   UNL     1      -1.697  11.620  19.618  0.00  0.00    +0.000 A 
ATOM     25  C   UNL     1      -0.408  11.144  19.736  0.00  0.00    +0.000 A 
ATOM     26  O   UNL     1      -2.314  12.475  20.482  0.00  0.00    +0.000 OA
ATOM     27  C   UNL     1      -3.629  12.549  19.893  0.00  0.00    +0.000 C 
ATOM     28  O   UNL     1      -3.740  11.834  18.645  0.00  0.00    +0.000 OA
ENDBRANCH  19  20
ENDBRANCH   4  19
TORSDOF 5
ENDMDL
MODEL 9
REMARK VINA RESULT:      -6.8      3.956     10.001
REMARK  Name = 
REMARK  6 active torsions:
REMARK  status: ('A' for Active; 'I' for Inactive)
REMARK    1  A    between atoms: C_1  and  O_2
REMARK    2  A    between atoms: O_2  and  C_3
REMARK    3  A    between atoms: C_9  and  S_10
REMARK    4  A    between atoms: S_10  and  N_13
REMARK    5  A    between atoms: N_16  and  C_17
REMARK    6  A    between atoms: C_17  and  C_18
REMARK                            x       y       z     vdW  Elec       q    Type
REMARK                         _______ _______ _______ _____ _____    ______ ____
ROOT
ATOM      1  N   UNL     1       2.926   5.039  18.473  0.00  0.00    +0.000 NA
ATOM      2  C   UNL     1       1.806   5.127  19.436  0.00  0.00    +0.000 C 
ATOM      3  C   UNL     1       1.909   6.409  20.286  0.00  0.00    +0.000 C 
ATOM      4  N   UNL     1       2.254   7.668  19.582  0.00  0.00    +0.000 NA
ATOM      5  C   UNL     1       3.183   7.479  18.456  0.00  0.00    +0.000 C 
ATOM      6  C   UNL     1       2.952   6.228  17.603  0.00  0.00    +0.000 C 
ENDROOT
BRANCH   1   7
ATOM      7  S   UNL     1       4.387   4.280  18.891  0.00  0.00    +0.000 S 
ATOM      8  O   UNL     1       4.078   2.913  19.254  0.00  0.00    +0.000 OA
ATOM      9  O   UNL     1       5.021   5.145  19.867  0.00  0.00    +0.000 OA
BRANCH   7  16
ATOM     10  C   UNL     1       6.852   4.634  17.511  0.00  0.00    +0.000 A 
ATOM     11  C   UNL     1       7.550   4.779  16.290  0.00  0.00    +0.000 A 
ATOM     12  C   UNL     1       6.915   4.604  15.062  0.00  0.00    +0.000 A 
ATOM     13  C   UNL     1       5.580   4.264  15.045  0.00  0.00    +0.000 A 
ATOM     14  F   UNL     1       4.954   4.118  13.863  0.00  0.00    +0.000 F 
ATOM     15  C   UNL     1       4.861   4.104  16.219  0.00  0.00    +0.000 A 
ATOM     16  C   UNL     1       5.490   4.264  17.469  0.00  0.00    +0.000 A 
BRANCH  10  18
ATOM     17  C   UNL     1       8.043   6.102  18.973  0.00  0.00    +0.000 C 
ATOM     18  O   UNL     1       7.480   4.810  18.719  0.00  0.00    +0.000 OA
ENDBRANCH  10  18
ENDBRANCH   7  16
ENDBRANCH   1   7
BRANCH   4  19
ATOM     19  C   UNL     1       1.079   8.460  19.202  0.00  0.00    +0.000 C 
BRANCH  19  20
ATOM     20  C   UNL     1       0.519   9.245  20.371  0.00  0.00    +0.000 A 
ATOM     21  C   UNL     1       0.416   8.647  21.647  0.00  0.00    +0.000 A 
ATOM     22  C   UNL     1      -0.096   9.358  22.735  0.00  0.00    +0.000 A 
ATOM     23  C   UNL     1      -0.494  10.665  22.522  0.00  0.00    +0.000 A 
ATOM     24  C   UNL     1      -0.402  11.253  21.290  0.00  0.00    +0.000 A 
ATOM     25  C   UNL     1       0.084  10.574  20.193  0.00  0.00    +0.000 A 
ATOM     26  O   UNL     1      -0.834  12.545  21.302  0.00  0.00    +0.000 OA
ATOM     27  C   UNL     1      -1.144  12.712  22.701  0.00  0.00    +0.000 C 
ATOM     28  O   UNL     1      -0.998  11.500  23.469  0.00  0.00    +0.000 OA
ENDBRANCH  19  20
ENDBRANCH   4  19
TORSDOF 5
ENDMDL
