MODEL 1
REMARK VINA RESULT:      -7.5      0.000      0.000
REMARK  Name = 
REMARK  5 active torsions:
REMARK  status: ('A' for Active; 'I' for Inactive)
REMARK    1  A    between atoms: C_1  and  O_2
REMARK    2  A    between atoms: O_2  and  C_3
REMARK    3  A    between atoms: C_6  and  C_7
REMARK    4  A    between atoms: C_14  and  N_15
REMARK    5  A    between atoms: C_16  and  C_17
REMARK                            x       y       z     vdW  Elec       q    Type
REMARK                         _______ _______ _______ _____ _____    ______ ____
ROOT
ATOM      1  C   UNL     1       4.575   5.654  18.313  0.00  0.00    +0.000 A 
ATOM      2  C   UNL     1       4.559   6.533  17.253  0.00  0.00    +0.000 A 
ATOM      3  N   UNL     1       5.146   6.290  16.071  0.00  0.00    +0.000 NA
ATOM      4  C   UNL     1       5.795   5.117  15.941  0.00  0.00    +0.000 A 
ATOM      5  N   UNL     1       5.925   4.216  16.937  0.00  0.00    +0.000 NA
ATOM      6  C   UNL     1       5.318   4.493  18.104  0.00  0.00    +0.000 A 
ENDROOT
BRANCH   4   7
ATOM      7  C   UNL     1       6.329   4.770  14.602  0.00  0.00    +0.000 A 
ATOM      8  C   UNL     1       5.712   3.825  13.775  0.00  0.00    +0.000 A 
ATOM      9  C   UNL     1       6.226   3.586  12.504  0.00  0.00    +0.000 A 
ATOM     10  C   UNL     1       7.346   4.289  12.079  0.00  0.00    +0.000 A 
ATOM     11  C   UNL     1       7.913   5.200  12.948  0.00  0.00    +0.000 A 
ATOM     12  N   UNL     1       7.435   5.450  14.184  0.00  0.00    +0.000 NA
ENDBRANCH   4   7
BRANCH   6  13
ATOM     13  N   UNL     1       5.411   3.585  19.169  0.00  0.00    +0.000 N 
ATOM     14  C   UNL     1       4.611   2.537  19.514  0.00  0.00    +0.000 C 
ATOM     15  C   UNL     1       3.364   2.213  18.734  0.00  0.00    +0.000 C 
ATOM     16  O   UNL     1       4.938   1.841  20.480  0.00  0.00    +0.000 OA
ATOM     17  H   UNL     1       6.210   3.707  19.782  0.00  0.00    +0.000 HD
ENDBRANCH   6  13
BRANCH   1  19
ATOM     18  C   UNL     1       2.521   6.009  19.419  0.00  0.00    +0.000 C 
ATOM     19  O   UNL     1       3.938   5.843  19.512  0.00  0.00    +0.000 OA
ENDBRANCH   1  19
TORSDOF 3
ENDMDL
MODEL 2
REMARK VINA RESULT:      -7.3      2.725      6.124
REMARK  Name = 
REMARK  5 active torsions:
REMARK  status: ('A' for Active; 'I' for Inactive)
REMARK    1  A    between atoms: C_1  and  O_2
REMARK    2  A    between atoms: O_2  and  C_3
REMARK    3  A    between atoms: C_6  and  C_7
REMARK    4  A    between atoms: C_14  and  N_15
REMARK    5  A    between atoms: C_16  and  C_17
REMARK                            x       y       z     vdW  Elec       q    Type
REMARK                         _______ _______ _______ _____ _____    ______ ____
ROOT
ATOM      1  C   UNL     1       6.253   5.109  15.922  0.00  0.00    +0.000 A 
ATOM      2  C   UNL     1       5.586   3.905  15.948  0.00  0.00    +0.000 A 
ATOM      3  N   UNL     1       4.585   3.622  16.796  0.00  0.00    +0.000 NA
ATOM      4  C   UNL     1       4.239   4.583  17.673  0.00  0.00    +0.000 A 
ATOM      5  N   UNL     1       4.870   5.772  17.775  0.00  0.00    +0.000 NA
ATOM      6  C   UNL     1       5.864   6.020  16.904  0.00  0.00    +0.000 A 
ENDROOT
BRANCH   4   7
ATOM      7  C   UNL     1       3.047   4.344  18.523  0.00  0.00    +0.000 A 
ATOM      8  C   UNL     1       2.009   3.493  18.129  0.00  0.00    +0.000 A 
ATOM      9  C   UNL     1       0.946   3.260  18.996  0.00  0.00    +0.000 A 
ATOM     10  C   UNL     1       0.931   3.880  20.238  0.00  0.00    +0.000 A 
ATOM     11  C   UNL     1       1.982   4.717  20.561  0.00  0.00    +0.000 A 
ATOM     12  N   UNL     1       3.024   4.959  19.740  0.00  0.00    +0.000 NA
ENDBRANCH   4   7
BRANCH   6  13
ATOM     13  N   UNL     1       6.546   7.244  16.957  0.00  0.00    +0.000 N 
ATOM     14  C   UNL     1       7.588   7.646  17.737  0.00  0.00    +0.000 C 
ATOM     15  C   UNL     1       8.174   6.741  18.788  0.00  0.00    +0.000 C 
ATOM     16  O   UNL     1       8.057   8.773  17.557  0.00  0.00    +0.000 OA
ATOM     17  H   UNL     1       6.232   7.950  16.300  0.00  0.00    +0.000 HD
ENDBRANCH   6  13
BRANCH   1  19
ATOM     18  C   UNL     1       7.151   4.806  13.761  0.00  0.00    +0.000 C 
ATOM     19  O   UNL     1       7.239   5.453  15.034  0.00  0.00    +0.000 OA
ENDBRANCH   1  19
TORSDOF 3
ENDMDL
MODEL 3
REMARK VINA RESULT:      -7.2      2.712      6.221
REMARK  Name = 
REMARK  5 active torsions:
REMARK  status: ('A' for Active; 'I' for Inactive)
REMARK    1  A    between atoms: C_1  and  O_2
REMARK    2  A    between atoms: O_2  and  C_3
REMARK    3  A    between atoms: C_6  and  C_7
REMARK    4  A    between atoms: C_14  and  N_15
REMARK    5  A    between atoms: C_16  and  C_17
REMARK                            x       y       z     vdW  Elec       q    Type
REMARK                         _______ _______ _______ _____ _____    ______ ____
ROOT
ATOM      1  C   UNL     1       6.224   5.130  15.960  0.00  0.00    +0.000 A 
ATOM      2  C   UNL     1       5.558   3.925  15.999  0.00  0.00    +0.000 A 
ATOM      3  N   UNL     1       4.590   3.634  16.881  0.00  0.00    +0.000 NA
ATOM      4  C   UNL     1       4.277   4.587  17.780  0.00  0.00    +0.000 A 
ATOM      5  N   UNL     1       4.912   5.774  17.869  0.00  0.00    +0.000 NA
ATOM      6  C   UNL     1       5.872   6.031  16.964  0.00  0.00    +0.000 A 
ENDROOT
BRANCH   4   7
ATOM      7  C   UNL     1       3.118   4.339  18.672  0.00  0.00    +0.000 A 
ATOM      8  C   UNL     1       2.850   5.141  19.786  0.00  0.00    +0.000 A 
ATOM      9  C   UNL     1       1.712   4.897  20.549  0.00  0.00    +0.000 A 
ATOM     10  C   UNL     1       0.863   3.858  20.193  0.00  0.00    +0.000 A 
ATOM     11  C   UNL     1       1.191   3.098  19.088  0.00  0.00    +0.000 A 
ATOM     12  N   UNL     1       2.286   3.313  18.331  0.00  0.00    +0.000 NA
ENDBRANCH   4   7
BRANCH   6  13
ATOM     13  N   UNL     1       6.555   7.255  17.003  0.00  0.00    +0.000 N 
ATOM     14  C   UNL     1       7.608   7.659  17.768  0.00  0.00    +0.000 C 
ATOM     15  C   UNL     1       8.208   6.758  18.814  0.00  0.00    +0.000 C 
ATOM     16  O   UNL     1       8.075   8.785  17.577  0.00  0.00    +0.000 OA
ATOM     17  H   UNL     1       6.234   7.959  16.348  0.00  0.00    +0.000 HD
ENDBRANCH   6  13
BRANCH   1  19
ATOM     18  C   UNL     1       7.082   4.796  13.787  0.00  0.00    +0.000 C 
ATOM     19  O   UNL     1       7.175   5.482  15.038  0.00  0.00    +0.000 OA
ENDBRANCH   1  19
TORSDOF 3
ENDMDL
MODEL 4
REMARK VINA RESULT:      -7.1      2.708      6.303
REMARK  Name = 
REMARK  5 active torsions:
REMARK  status: ('A' for Active; 'I' for Inactive)
REMARK    1  A    between atoms: C_1  and  O_2
REMARK    2  A    between atoms: O_2  and  C_3
REMARK    3  A    between atoms: C_6  and  C_7
REMARK    4  A    between atoms: C_14  and  N_15
REMARK    5  A    between atoms: C_16  and  C_17
REMARK                            x       y       z     vdW  Elec       q    Type
REMARK                         _______ _______ _______ _____ _____    ______ ____
ROOT
ATOM      1  C   UNL     1       5.424   5.156  15.848  0.00  0.00    +0.000 A 
ATOM      2  C   UNL     1       4.755   3.956  15.932  0.00  0.00    +0.000 A 
ATOM      3  N   UNL     1       4.050   3.567  17.006  0.00  0.00    +0.000 NA
ATOM      4  C   UNL     1       4.020   4.410  18.055  0.00  0.00    +0.000 A 
ATOM      5  N   UNL     1       4.693   5.578  18.100  0.00  0.00    +0.000 NA
ATOM      6  C   UNL     1       5.384   5.936  17.003  0.00  0.00    +0.000 A 
ENDROOT
BRANCH   4   7
ATOM      7  C   UNL     1       3.135   4.063  19.194  0.00  0.00    +0.000 A 
ATOM      8  C   UNL     1       1.867   4.632  19.352  0.00  0.00    +0.000 A 
ATOM      9  C   UNL     1       1.057   4.221  20.407  0.00  0.00    +0.000 A 
ATOM     10  C   UNL     1       1.524   3.253  21.287  0.00  0.00    +0.000 A 
ATOM     11  C   UNL     1       2.789   2.739  21.079  0.00  0.00    +0.000 A 
ATOM     12  N   UNL     1       3.593   3.120  20.066  0.00  0.00    +0.000 NA
ENDBRANCH   4   7
BRANCH   6  13
ATOM     13  N   UNL     1       6.092   7.147  16.991  0.00  0.00    +0.000 N 
ATOM     14  C   UNL     1       7.250   7.503  17.615  0.00  0.00    +0.000 C 
ATOM     15  C   UNL     1       7.971   6.551  18.532  0.00  0.00    +0.000 C 
ATOM     16  O   UNL     1       7.709   8.629  17.401  0.00  0.00    +0.000 OA
ATOM     17  H   UNL     1       5.697   7.881  16.413  0.00  0.00    +0.000 HD
ENDBRANCH   6  13
BRANCH   1  19
ATOM     18  C   UNL     1       7.219   4.804  14.356  0.00  0.00    +0.000 C 
ATOM     19  O   UNL     1       6.105   5.611  14.749  0.00  0.00    +0.000 OA
ENDBRANCH   1  19
TORSDOF 3
ENDMDL
MODEL 5
REMARK VINA RESULT:      -7.0      3.202      6.041
REMARK  Name = 
REMARK  5 active torsions:
REMARK  status: ('A' for Active; 'I' for Inactive)
REMARK    1  A    between atoms: C_1  and  O_2
REMARK    2  A    between atoms: O_2  and  C_3
REMARK    3  A    between atoms: C_6  and  C_7
REMARK    4  A    between atoms: C_14  and  N_15
REMARK    5  A    between atoms: C_16  and  C_17
REMARK                            x       y       z     vdW  Elec       q    Type
REMARK                         _______ _______ _______ _____ _____    ______ ____
ROOT
ATOM      1  C   UNL     1       4.192   3.587  19.362  0.00  0.00    +0.000 A 
ATOM      2  C   UNL     1       3.106   3.959  20.121  0.00  0.00    +0.000 A 
ATOM      3  N   UNL     1       2.559   5.184  20.097  0.00  0.00    +0.000 NA
ATOM      4  C   UNL     1       3.132   6.091  19.284  0.00  0.00    +0.000 A 
ATOM      5  N   UNL     1       4.238   5.850  18.548  0.00  0.00    +0.000 NA
ATOM      6  C   UNL     1       4.752   4.609  18.595  0.00  0.00    +0.000 A 
ENDROOT
BRANCH   4   7
ATOM      7  C   UNL     1       2.462   7.406  19.137  0.00  0.00    +0.000 A 
ATOM      8  C   UNL     1       2.474   8.118  17.933  0.00  0.00    +0.000 A 
ATOM      9  C   UNL     1       1.775   9.318  17.838  0.00  0.00    +0.000 A 
ATOM     10  C   UNL     1       1.079   9.790  18.943  0.00  0.00    +0.000 A 
ATOM     11  C   UNL     1       1.116   9.043  20.104  0.00  0.00    +0.000 A 
ATOM     12  N   UNL     1       1.785   7.878  20.222  0.00  0.00    +0.000 NA
ENDBRANCH   4   7
BRANCH   6  13
ATOM     13  N   UNL     1       5.893   4.299  17.840  0.00  0.00    +0.000 N 
ATOM     14  C   UNL     1       7.186   4.708  17.979  0.00  0.00    +0.000 C 
ATOM     15  C   UNL     1       7.588   5.685  19.052  0.00  0.00    +0.000 C 
ATOM     16  O   UNL     1       8.033   4.247  17.210  0.00  0.00    +0.000 OA
ATOM     17  H   UNL     1       5.750   3.653  17.072  0.00  0.00    +0.000 HD
ENDBRANCH   6  13
BRANCH   1  19
ATOM     18  C   UNL     1       3.880   1.320  18.785  0.00  0.00    +0.000 C 
ATOM     19  O   UNL     1       4.739   2.331  19.318  0.00  0.00    +0.000 OA
ENDBRANCH   1  19
TORSDOF 3
ENDMDL
MODEL 6
REMARK VINA RESULT:      -6.9      2.694      6.322
REMARK  Name = 
REMARK  5 active torsions:
REMARK  status: ('A' for Active; 'I' for Inactive)
REMARK    1  A    between atoms: C_1  and  O_2
REMARK    2  A    between atoms: O_2  and  C_3
REMARK    3  A    between atoms: C_6  and  C_7
REMARK    4  A    between atoms: C_14  and  N_15
REMARK    5  A    between atoms: C_16  and  C_17
REMARK                            x       y       z     vdW  Elec       q    Type
REMARK                         _______ _______ _______ _____ _____    ______ ____
ROOT
ATOM      1  C   UNL     1       5.714   5.069  15.920  0.00  0.00    +0.000 A 
ATOM      2  C   UNL     1       5.095   3.847  16.057  0.00  0.00    +0.000 A 
ATOM      3  N   UNL     1       4.385   3.484  17.137  0.00  0.00    +0.000 NA
ATOM      4  C   UNL     1       4.298   4.380  18.138  0.00  0.00    +0.000 A 
ATOM      5  N   UNL     1       4.919   5.578  18.132  0.00  0.00    +0.000 NA
ATOM      6  C   UNL     1       5.615   5.907  17.030  0.00  0.00    +0.000 A 
ENDROOT
BRANCH   4   7
ATOM      7  C   UNL     1       3.405   4.056  19.278  0.00  0.00    +0.000 A 
ATOM      8  C   UNL     1       3.536   2.873  20.013  0.00  0.00    +0.000 A 
ATOM      9  C   UNL     1       2.708   2.653  21.111  0.00  0.00    +0.000 A 
ATOM     10  C   UNL     1       1.764   3.611  21.455  0.00  0.00    +0.000 A 
ATOM     11  C   UNL     1       1.681   4.752  20.681  0.00  0.00    +0.000 A 
ATOM     12  N   UNL     1       2.470   4.990  19.614  0.00  0.00    +0.000 NA
ENDBRANCH   4   7
BRANCH   6  13
ATOM     13  N   UNL     1       6.271   7.145  16.965  0.00  0.00    +0.000 N 
ATOM     14  C   UNL     1       7.386   7.594  17.608  0.00  0.00    +0.000 C 
ATOM     15  C   UNL     1       8.109   6.737  18.613  0.00  0.00    +0.000 C 
ATOM     16  O   UNL     1       7.805   8.723  17.339  0.00  0.00    +0.000 OA
ATOM     17  H   UNL     1       5.868   7.822  16.326  0.00  0.00    +0.000 HD
ENDBRANCH   6  13
BRANCH   1  19
ATOM     18  C   UNL     1       6.758   4.456  13.895  0.00  0.00    +0.000 C 
ATOM     19  O   UNL     1       6.396   5.494  14.810  0.00  0.00    +0.000 OA
ENDBRANCH   1  19
TORSDOF 3
ENDMDL
MODEL 7
REMARK VINA RESULT:      -6.9      1.125      1.215
REMARK  Name = 
REMARK  5 active torsions:
REMARK  status: ('A' for Active; 'I' for Inactive)
REMARK    1  A    between atoms: C_1  and  O_2
REMARK    2  A    between atoms: O_2  and  C_3
REMARK    3  A    between atoms: C_6  and  C_7
REMARK    4  A    between atoms: C_14  and  N_15
REMARK    5  A    between atoms: C_16  and  C_17
REMARK                            x       y       z     vdW  Elec       q    Type
REMARK                         _______ _______ _______ _____ _____    ______ ____
ROOT
ATOM      1  C   UNL     1       5.070   5.164  18.273  0.00  0.00    +0.000 A 
ATOM      2  C   UNL     1       5.774   6.146  17.613  0.00  0.00    +0.000 A 
ATOM      3  N   UNL     1       6.312   5.991  16.394  0.00  0.00    +0.000 NA
ATOM      4  C   UNL     1       6.153   4.791  15.805  0.00  0.00    +0.000 A 
ATOM      5  N   UNL     1       5.537   3.742  16.390  0.00  0.00    +0.000 NA
ATOM      6  C   UNL     1       5.006   3.939  17.610  0.00  0.00    +0.000 A 
ENDROOT
BRANCH   4   7
ATOM      7  C   UNL     1       6.617   4.643  14.404  0.00  0.00    +0.000 A 
ATOM      8  C   UNL     1       6.056   3.708  13.528  0.00  0.00    +0.000 A 
ATOM      9  C   UNL     1       6.492   3.658  12.207  0.00  0.00    +0.000 A 
ATOM     10  C   UNL     1       7.480   4.537  11.782  0.00  0.00    +0.000 A 
ATOM     11  C   UNL     1       7.999   5.428  12.700  0.00  0.00    +0.000 A 
ATOM     12  N   UNL     1       7.594   5.497  13.985  0.00  0.00    +0.000 NA
ENDBRANCH   4   7
BRANCH   6  13
ATOM     13  N   UNL     1       4.345   2.886  18.259  0.00  0.00    +0.000 N 
ATOM     14  C   UNL     1       3.054   2.458  18.166  0.00  0.00    +0.000 C 
ATOM     15  C   UNL     1       2.054   3.168  17.292  0.00  0.00    +0.000 C 
ATOM     16  O   UNL     1       2.719   1.459  18.808  0.00  0.00    +0.000 OA
ATOM     17  H   UNL     1       4.913   2.334  18.892  0.00  0.00    +0.000 HD
ENDBRANCH   6  13
BRANCH   1  19
ATOM     18  C   UNL     1       3.225   6.030  19.462  0.00  0.00    +0.000 C 
ATOM     19  O   UNL     1       4.458   5.306  19.491  0.00  0.00    +0.000 OA
ENDBRANCH   1  19
TORSDOF 3
ENDMDL
MODEL 8
REMARK VINA RESULT:      -6.8      2.377      3.220
REMARK  Name = 
REMARK  5 active torsions:
REMARK  status: ('A' for Active; 'I' for Inactive)
REMARK    1  A    between atoms: C_1  and  O_2
REMARK    2  A    between atoms: O_2  and  C_3
REMARK    3  A    between atoms: C_6  and  C_7
REMARK    4  A    between atoms: C_14  and  N_15
REMARK    5  A    between atoms: C_16  and  C_17
REMARK                            x       y       z     vdW  Elec       q    Type
REMARK                         _______ _______ _______ _____ _____    ______ ____
ROOT
ATOM      1  C   UNL     1       2.216   6.707  19.901  0.00  0.00    +0.000 A 
ATOM      2  C   UNL     1       2.525   7.471  18.798  0.00  0.00    +0.000 A 
ATOM      3  N   UNL     1       3.350   7.071  17.818  0.00  0.00    +0.000 NA
ATOM      4  C   UNL     1       3.906   5.852  17.949  0.00  0.00    +0.000 A 
ATOM      5  N   UNL     1       3.721   5.052  19.020  0.00  0.00    +0.000 NA
ATOM      6  C   UNL     1       2.883   5.486  19.978  0.00  0.00    +0.000 A 
ENDROOT
BRANCH   4   7
ATOM      7  C   UNL     1       4.708   5.335  16.814  0.00  0.00    +0.000 A 
ATOM      8  C   UNL     1       5.201   6.172  15.807  0.00  0.00    +0.000 A 
ATOM      9  C   UNL     1       6.000   5.637  14.800  0.00  0.00    +0.000 A 
ATOM     10  C   UNL     1       6.292   4.279  14.811  0.00  0.00    +0.000 A 
ATOM     11  C   UNL     1       5.766   3.507  15.828  0.00  0.00    +0.000 A 
ATOM     12  N   UNL     1       4.990   4.000  16.815  0.00  0.00    +0.000 NA
ENDBRANCH   4   7
BRANCH   6  13
ATOM     13  N   UNL     1       2.645   4.688  21.107  0.00  0.00    +0.000 N 
ATOM     14  C   UNL     1       1.850   3.594  21.268  0.00  0.00    +0.000 C 
ATOM     15  C   UNL     1       0.999   3.071  20.141  0.00  0.00    +0.000 C 
ATOM     16  O   UNL     1       1.849   3.024  22.363  0.00  0.00    +0.000 OA
ATOM     17  H   UNL     1       3.155   4.949  21.944  0.00  0.00    +0.000 HD
ENDBRANCH   6  13
BRANCH   1  19
ATOM     18  C   UNL     1       1.288   8.459  21.183  0.00  0.00    +0.000 C 
ATOM     19  O   UNL     1       1.334   7.059  20.890  0.00  0.00    +0.000 OA
ENDBRANCH   1  19
TORSDOF 3
ENDMDL
MODEL 9
REMARK VINA RESULT:      -6.7      0.697      1.137
REMARK  Name = 
REMARK  5 active torsions:
REMARK  status: ('A' for Active; 'I' for Inactive)
REMARK    1  A    between atoms: C_1  and  O_2
REMARK    2  A    between atoms: O_2  and  C_3
REMARK    3  A    between atoms: C_6  and  C_7
REMARK    4  A    between atoms: C_14  and  N_15
REMARK    5  A    between atoms: C_16  and  C_17
REMARK                            x       y       z     vdW  Elec       q    Type
REMARK                         _______ _______ _______ _____ _____    ______ ____
ROOT
ATOM      1  C   UNL     1       4.545   5.652  18.318  0.00  0.00    +0.000 A 
ATOM      2  C   UNL     1       4.509   6.542  17.267  0.00  0.00    +0.000 A 
ATOM      3  N   UNL     1       5.053   6.300  16.064  0.00  0.00    +0.000 NA
ATOM      4  C   UNL     1       5.675   5.117  15.902  0.00  0.00    +0.000 A 
ATOM      5  N   UNL     1       5.823   4.204  16.885  0.00  0.00    +0.000 NA
ATOM      6  C   UNL     1       5.259   4.480  18.074  0.00  0.00    +0.000 A 
ENDROOT
BRANCH   4   7
ATOM      7  C   UNL     1       6.160   4.773  14.543  0.00  0.00    +0.000 A 
ATOM      8  C   UNL     1       7.336   5.313  14.012  0.00  0.00    +0.000 A 
ATOM      9  C   UNL     1       7.772   4.904  12.755  0.00  0.00    +0.000 A 
ATOM     10  C   UNL     1       7.029   3.969  12.047  0.00  0.00    +0.000 A 
ATOM     11  C   UNL     1       5.873   3.483  12.625  0.00  0.00    +0.000 A 
ATOM     12  N   UNL     1       5.428   3.862  13.840  0.00  0.00    +0.000 NA
ENDBRANCH   4   7
BRANCH   6  13
ATOM     13  N   UNL     1       5.371   3.561  19.127  0.00  0.00    +0.000 N 
ATOM     14  C   UNL     1       4.575   2.511  19.476  0.00  0.00    +0.000 C 
ATOM     15  C   UNL     1       3.313   2.198  18.717  0.00  0.00    +0.000 C 
ATOM     16  O   UNL     1       4.919   1.804  20.428  0.00  0.00    +0.000 OA
ATOM     17  H   UNL     1       6.182   3.675  19.726  0.00  0.00    +0.000 HD
ENDBRANCH   6  13
BRANCH   1  19
ATOM     18  C   UNL     1       2.526   5.959  19.501  0.00  0.00    +0.000 C 
ATOM     19  O   UNL     1       3.951   5.841  19.538  0.00  0.00    +0.000 OA
ENDBRANCH   1  19
TORSDOF 3
ENDMDL
