MODEL 1
REMARK VINA RESULT:      -7.6      0.000      0.000
REMARK  Name = 
REMARK  6 active torsions:
REMARK  status: ('A' for Active; 'I' for Inactive)
REMARK    1  A    between atoms: C_1  and  N_2
REMARK    2  A    between atoms: N_2  and  C_3
REMARK    3  A    between atoms: N_2  and  C_13
REMARK    4  A    between atoms: C_3  and  C_4
REMARK    5  A    between atoms: C_5  and  C_6
REMARK    6  A    between atoms: C_13  and  C_14
REMARK                            x       y       z     vdW  Elec       q    Type
REMARK                         _______ _______ _______ _____ _____    ______ ____
ROOT
ATOM      1  C   UNL     1       7.098   4.985  15.551  0.00  0.00    +0.000 C 
ATOM      2  N   UNL     1       5.916   5.091  16.423  0.00  0.00    +0.000 NA
ENDROOT
BRANCH   2   3
ATOM      3  C   UNL     1       5.188   6.342  16.137  0.00  0.00    +0.000 C 
BRANCH   3   4
ATOM      4  C   UNL     1       4.467   6.904  17.331  0.00  0.00    +0.000 C 
ATOM      5  C   UNL     1       3.144   7.174  17.302  0.00  0.00    +0.000 C 
BRANCH   5   6
ATOM      6  C   UNL     1       2.440   7.728  18.451  0.00  0.00    +0.000 A 
ATOM      7  C   UNL     1       2.357   6.995  19.643  0.00  0.00    +0.000 A 
ATOM      8  C   UNL     1       1.662   7.510  20.736  0.00  0.00    +0.000 A 
ATOM      9  C   UNL     1       1.053   8.761  20.642  0.00  0.00    +0.000 A 
ATOM     10 CL   UNL     1       0.186   9.389  21.987  0.00  0.00    +0.000 Cl
ATOM     11  C   UNL     1       1.140   9.503  19.466  0.00  0.00    +0.000 A 
ATOM     12  C   UNL     1       1.834   8.987  18.367  0.00  0.00    +0.000 A 
ENDBRANCH   5   6
ENDBRANCH   3   4
ENDBRANCH   2   3
BRANCH   2  13
ATOM     13  C   UNL     1       5.039   3.920  16.182  0.00  0.00    +0.000 C 
BRANCH  13  14
ATOM     14  C   UNL     1       3.945   3.741  17.207  0.00  0.00    +0.000 A 
ATOM     15  C   UNL     1       2.604   3.882  16.820  0.00  0.00    +0.000 A 
ATOM     16  C   UNL     1       1.582   3.751  17.759  0.00  0.00    +0.000 A 
ATOM     17  C   UNL     1       1.876   3.438  19.090  0.00  0.00    +0.000 A 
ATOM     18  C   UNL     1       3.217   3.289  19.489  0.00  0.00    +0.000 A 
ATOM     19  C   UNL     1       4.239   3.447  18.540  0.00  0.00    +0.000 A 
ATOM     20  C   UNL     1       3.582   2.890  20.897  0.00  0.00    +0.000 C 
ATOM     21  C   UNL     1       2.451   3.098  21.901  0.00  0.00    +0.000 C 
ATOM     22  C   UNL     1       1.136   2.566  21.344  0.00  0.00    +0.000 C 
ATOM     23  C   UNL     1       0.745   3.333  20.084  0.00  0.00    +0.000 C 
ENDBRANCH  13  14
ENDBRANCH   2  13
TORSDOF 5
ENDMDL
MODEL 2
REMARK VINA RESULT:      -7.4      0.246      1.038
REMARK  Name = 
REMARK  6 active torsions:
REMARK  status: ('A' for Active; 'I' for Inactive)
REMARK    1  A    between atoms: C_1  and  N_2
REMARK    2  A    between atoms: N_2  and  C_3
REMARK    3  A    between atoms: N_2  and  C_13
REMARK    4  A    between atoms: C_3  and  C_4
REMARK    5  A    between atoms: C_5  and  C_6
REMARK    6  A    between atoms: C_13  and  C_14
REMARK                            x       y       z     vdW  Elec       q    Type
REMARK                         _______ _______ _______ _____ _____    ______ ____
ROOT
ATOM      1  C   UNL     1       6.947   4.506  15.445  0.00  0.00    +0.000 C 
ATOM      2  N   UNL     1       5.840   4.738  16.388  0.00  0.00    +0.000 NA
ENDROOT
BRANCH   2   3
ATOM      3  C   UNL     1       5.364   6.130  16.274  0.00  0.00    +0.000 C 
BRANCH   3   4
ATOM      4  C   UNL     1       4.515   6.571  17.435  0.00  0.00    +0.000 C 
ATOM      5  C   UNL     1       3.414   7.335  17.263  0.00  0.00    +0.000 C 
BRANCH   5   6
ATOM      6  C   UNL     1       2.593   7.774  18.383  0.00  0.00    +0.000 A 
ATOM      7  C   UNL     1       1.858   8.965  18.290  0.00  0.00    +0.000 A 
ATOM      8  C   UNL     1       1.092   9.403  19.369  0.00  0.00    +0.000 A 
ATOM      9  C   UNL     1       1.056   8.650  20.543  0.00  0.00    +0.000 A 
ATOM     10 CL   UNL     1       0.122   9.198  21.878  0.00  0.00    +0.000 Cl
ATOM     11  C   UNL     1       1.774   7.460  20.641  0.00  0.00    +0.000 A 
ATOM     12  C   UNL     1       2.545   7.020  19.561  0.00  0.00    +0.000 A 
ENDBRANCH   5   6
ENDBRANCH   3   4
ENDBRANCH   2   3
BRANCH   2  13
ATOM     13  C   UNL     1       4.742   3.792  16.076  0.00  0.00    +0.000 C 
BRANCH  13  14
ATOM     14  C   UNL     1       3.700   3.669  17.163  0.00  0.00    +0.000 A 
ATOM     15  C   UNL     1       2.344   3.832  16.842  0.00  0.00    +0.000 A 
ATOM     16  C   UNL     1       1.370   3.753  17.837  0.00  0.00    +0.000 A 
ATOM     17  C   UNL     1       1.727   3.472  19.159  0.00  0.00    +0.000 A 
ATOM     18  C   UNL     1       3.084   3.302  19.492  0.00  0.00    +0.000 A 
ATOM     19  C   UNL     1       4.057   3.406  18.486  0.00  0.00    +0.000 A 
ATOM     20  C   UNL     1       3.513   2.934  20.890  0.00  0.00    +0.000 C 
ATOM     21  C   UNL     1       2.442   3.199  21.945  0.00  0.00    +0.000 C 
ATOM     22  C   UNL     1       1.087   2.684  21.474  0.00  0.00    +0.000 C 
ATOM     23  C   UNL     1       0.648   3.424  20.214  0.00  0.00    +0.000 C 
ENDBRANCH  13  14
ENDBRANCH   2  13
TORSDOF 5
ENDMDL
MODEL 3
REMARK VINA RESULT:      -7.3      5.058      5.656
REMARK  Name = 
REMARK  6 active torsions:
REMARK  status: ('A' for Active; 'I' for Inactive)
REMARK    1  A    between atoms: C_1  and  N_2
REMARK    2  A    between atoms: N_2  and  C_3
REMARK    3  A    between atoms: N_2  and  C_13
REMARK    4  A    between atoms: C_3  and  C_4
REMARK    5  A    between atoms: C_5  and  C_6
REMARK    6  A    between atoms: C_13  and  C_14
REMARK                            x       y       z     vdW  Elec       q    Type
REMARK                         _______ _______ _______ _____ _____    ______ ____
ROOT
ATOM      1  C   UNL     1       7.839   5.752  19.096  0.00  0.00    +0.000 C 
ATOM      2  N   UNL     1       6.907   6.618  18.355  0.00  0.00    +0.000 NA
ENDROOT
BRANCH   2   3
ATOM      3  C   UNL     1       7.660   7.535  17.478  0.00  0.00    +0.000 C 
BRANCH   3   4
ATOM      4  C   UNL     1       8.312   8.672  18.216  0.00  0.00    +0.000 C 
ATOM      5  C   UNL     1       8.480   9.887  17.648  0.00  0.00    +0.000 C 
BRANCH   5   6
ATOM      6  C   UNL     1       9.120  10.989  18.353  0.00  0.00    +0.000 A 
ATOM      7  C   UNL     1       9.852  10.744  19.523  0.00  0.00    +0.000 A 
ATOM      8  C   UNL     1      10.444  11.799  20.216  0.00  0.00    +0.000 A 
ATOM      9  C   UNL     1      10.308  13.103  19.738  0.00  0.00    +0.000 A 
ATOM     10 CL   UNL     1      11.026  14.405  20.599  0.00  0.00    +0.000 Cl
ATOM     11  C   UNL     1       9.591  13.356  18.570  0.00  0.00    +0.000 A 
ATOM     12  C   UNL     1       8.995  12.299  17.875  0.00  0.00    +0.000 A 
ENDBRANCH   5   6
ENDBRANCH   3   4
ENDBRANCH   2   3
BRANCH   2  13
ATOM     13  C   UNL     1       6.002   5.764  17.549  0.00  0.00    +0.000 C 
BRANCH  13  14
ATOM     14  C   UNL     1       4.722   5.379  18.252  0.00  0.00    +0.000 A 
ATOM     15  C   UNL     1       3.569   6.157  18.065  0.00  0.00    +0.000 A 
ATOM     16  C   UNL     1       2.386   5.836  18.730  0.00  0.00    +0.000 A 
ATOM     17  C   UNL     1       2.320   4.712  19.560  0.00  0.00    +0.000 A 
ATOM     18  C   UNL     1       3.469   3.922  19.751  0.00  0.00    +0.000 A 
ATOM     19  C   UNL     1       4.660   4.269  19.095  0.00  0.00    +0.000 A 
ATOM     20  C   UNL     1       3.432   2.665  20.584  0.00  0.00    +0.000 C 
ATOM     21  C   UNL     1       2.225   2.588  21.516  0.00  0.00    +0.000 C 
ATOM     22  C   UNL     1       0.950   2.969  20.772  0.00  0.00    +0.000 C 
ATOM     23  C   UNL     1       1.031   4.413  20.286  0.00  0.00    +0.000 C 
ENDBRANCH  13  14
ENDBRANCH   2  13
TORSDOF 5
ENDMDL
MODEL 4
REMARK VINA RESULT:      -7.3      0.675      1.894
REMARK  Name = 
REMARK  6 active torsions:
REMARK  status: ('A' for Active; 'I' for Inactive)
REMARK    1  A    between atoms: C_1  and  N_2
REMARK    2  A    between atoms: N_2  and  C_3
REMARK    3  A    between atoms: N_2  and  C_13
REMARK    4  A    between atoms: C_3  and  C_4
REMARK    5  A    between atoms: C_5  and  C_6
REMARK    6  A    between atoms: C_13  and  C_14
REMARK                            x       y       z     vdW  Elec       q    Type
REMARK                         _______ _______ _______ _____ _____    ______ ____
ROOT
ATOM      1  C   UNL     1       7.380   5.010  15.199  0.00  0.00    +0.000 C 
ATOM      2  N   UNL     1       6.341   5.183  16.228  0.00  0.00    +0.000 NA
ENDROOT
BRANCH   2   3
ATOM      3  C   UNL     1       5.683   6.494  16.064  0.00  0.00    +0.000 C 
BRANCH   3   4
ATOM      4  C   UNL     1       4.844   6.897  17.246  0.00  0.00    +0.000 C 
ATOM      5  C   UNL     1       3.536   7.211  17.117  0.00  0.00    +0.000 C 
BRANCH   5   6
ATOM      6  C   UNL     1       2.720   7.611  18.255  0.00  0.00    +0.000 A 
ATOM      7  C   UNL     1       2.117   8.877  18.275  0.00  0.00    +0.000 A 
ATOM      8  C   UNL     1       1.356   9.274  19.374  0.00  0.00    +0.000 A 
ATOM      9  C   UNL     1       1.194   8.406  20.454  0.00  0.00    +0.000 A 
ATOM     10 CL   UNL     1       0.267   8.903  21.814  0.00  0.00    +0.000 Cl
ATOM     11  C   UNL     1       1.781   7.142  20.439  0.00  0.00    +0.000 A 
ATOM     12  C   UNL     1       2.545   6.743  19.338  0.00  0.00    +0.000 A 
ENDBRANCH   5   6
ENDBRANCH   3   4
ENDBRANCH   2   3
BRANCH   2  13
ATOM     13  C   UNL     1       5.349   4.090  16.093  0.00  0.00    +0.000 C 
BRANCH  13  14
ATOM     14  C   UNL     1       4.613   3.757  17.369  0.00  0.00    +0.000 A 
ATOM     15  C   UNL     1       5.328   3.645  18.571  0.00  0.00    +0.000 A 
ATOM     16  C   UNL     1       4.670   3.308  19.753  0.00  0.00    +0.000 A 
ATOM     17  C   UNL     1       3.285   3.117  19.766  0.00  0.00    +0.000 A 
ATOM     18  C   UNL     1       2.556   3.232  18.567  0.00  0.00    +0.000 A 
ATOM     19  C   UNL     1       3.233   3.549  17.379  0.00  0.00    +0.000 A 
ATOM     20  C   UNL     1       1.054   3.099  18.541  0.00  0.00    +0.000 C 
ATOM     21  C   UNL     1       0.483   2.414  19.780  0.00  0.00    +0.000 C 
ATOM     22  C   UNL     1       1.109   2.988  21.046  0.00  0.00    +0.000 C 
ATOM     23  C   UNL     1       2.612   2.725  21.059  0.00  0.00    +0.000 C 
ENDBRANCH  13  14
ENDBRANCH   2  13
TORSDOF 5
ENDMDL
MODEL 5
REMARK VINA RESULT:      -7.2      4.934      5.503
REMARK  Name = 
REMARK  6 active torsions:
REMARK  status: ('A' for Active; 'I' for Inactive)
REMARK    1  A    between atoms: C_1  and  N_2
REMARK    2  A    between atoms: N_2  and  C_3
REMARK    3  A    between atoms: N_2  and  C_13
REMARK    4  A    between atoms: C_3  and  C_4
REMARK    5  A    between atoms: C_5  and  C_6
REMARK    6  A    between atoms: C_13  and  C_14
REMARK                            x       y       z     vdW  Elec       q    Type
REMARK                         _______ _______ _______ _____ _____    ______ ____
ROOT
ATOM      1  C   UNL     1       7.486   5.510  18.176  0.00  0.00    +0.000 C 
ATOM      2  N   UNL     1       6.775   6.753  17.833  0.00  0.00    +0.000 NA
ENDROOT
BRANCH   2   3
ATOM      3  C   UNL     1       7.721   7.738  17.275  0.00  0.00    +0.000 C 
BRANCH   3   4
ATOM      4  C   UNL     1       8.055   8.857  18.223  0.00  0.00    +0.000 C 
ATOM      5  C   UNL     1       8.833   9.897  17.853  0.00  0.00    +0.000 C 
BRANCH   5   6
ATOM      6  C   UNL     1       9.168  10.978  18.769  0.00  0.00    +0.000 A 
ATOM      7  C   UNL     1       9.588  10.687  20.075  0.00  0.00    +0.000 A 
ATOM      8  C   UNL     1       9.884  11.720  20.964  0.00  0.00    +0.000 A 
ATOM      9  C   UNL     1       9.765  13.046  20.548  0.00  0.00    +0.000 A 
ATOM     10 CL   UNL     1      10.118  14.318  21.649  0.00  0.00    +0.000 Cl
ATOM     11  C   UNL     1       9.360  13.345  19.249  0.00  0.00    +0.000 A 
ATOM     12  C   UNL     1       9.060  12.311  18.357  0.00  0.00    +0.000 A 
ENDBRANCH   5   6
ENDBRANCH   3   4
ENDBRANCH   2   3
BRANCH   2  13
ATOM     13  C   UNL     1       5.716   6.440  16.844  0.00  0.00    +0.000 C 
BRANCH  13  14
ATOM     14  C   UNL     1       4.647   5.503  17.355  0.00  0.00    +0.000 A 
ATOM     15  C   UNL     1       4.365   4.325  16.648  0.00  0.00    +0.000 A 
ATOM     16  C   UNL     1       3.359   3.464  17.087  0.00  0.00    +0.000 A 
ATOM     17  C   UNL     1       2.646   3.741  18.257  0.00  0.00    +0.000 A 
ATOM     18  C   UNL     1       2.925   4.918  18.978  0.00  0.00    +0.000 A 
ATOM     19  C   UNL     1       3.923   5.789  18.513  0.00  0.00    +0.000 A 
ATOM     20  C   UNL     1       2.229   5.230  20.279  0.00  0.00    +0.000 C 
ATOM     21  C   UNL     1       0.947   4.427  20.491  0.00  0.00    +0.000 C 
ATOM     22  C   UNL     1       1.174   2.958  20.156  0.00  0.00    +0.000 C 
ATOM     23  C   UNL     1       1.546   2.801  18.685  0.00  0.00    +0.000 C 
ENDBRANCH  13  14
ENDBRANCH   2  13
TORSDOF 5
ENDMDL
MODEL 6
REMARK VINA RESULT:      -7.1      4.948      5.716
REMARK  Name = 
REMARK  6 active torsions:
REMARK  status: ('A' for Active; 'I' for Inactive)
REMARK    1  A    between atoms: C_1  and  N_2
REMARK    2  A    between atoms: N_2  and  C_3
REMARK    3  A    between atoms: N_2  and  C_13
REMARK    4  A    between atoms: C_3  and  C_4
REMARK    5  A    between atoms: C_5  and  C_6
REMARK    6  A    between atoms: C_13  and  C_14
REMARK                            x       y       z     vdW  Elec       q    Type
REMARK                         _______ _______ _______ _____ _____    ______ ____
ROOT
ATOM      1  C   UNL     1       5.889   6.974  17.114  0.00  0.00    +0.000 C 
ATOM      2  N   UNL     1       7.193   6.334  17.352  0.00  0.00    +0.000 NA
ENDROOT
BRANCH   2   3
ATOM      3  C   UNL     1       7.925   7.059  18.408  0.00  0.00    +0.000 C 
BRANCH   3   4
ATOM      4  C   UNL     1       8.248   8.482  18.048  0.00  0.00    +0.000 C 
ATOM      5  C   UNL     1       8.941   9.289  18.880  0.00  0.00    +0.000 C 
BRANCH   5   6
ATOM      6  C   UNL     1       9.248  10.672  18.542  0.00  0.00    +0.000 A 
ATOM      7  C   UNL     1      10.479  11.230  18.916  0.00  0.00    +0.000 A 
ATOM      8  C   UNL     1      10.767  12.561  18.617  0.00  0.00    +0.000 A 
ATOM      9  C   UNL     1       9.826  13.337  17.940  0.00  0.00    +0.000 A 
ATOM     10 CL   UNL     1      10.176  14.981  17.584  0.00  0.00    +0.000 Cl
ATOM     11  C   UNL     1       8.604  12.789  17.554  0.00  0.00    +0.000 A 
ATOM     12  C   UNL     1       8.313  11.454  17.854  0.00  0.00    +0.000 A 
ENDBRANCH   5   6
ENDBRANCH   3   4
ENDBRANCH   2   3
BRANCH   2  13
ATOM     13  C   UNL     1       6.967   4.926  17.756  0.00  0.00    +0.000 C 
BRANCH  13  14
ATOM     14  C   UNL     1       5.513   4.555  17.932  0.00  0.00    +0.000 A 
ATOM     15  C   UNL     1       4.821   3.950  16.873  0.00  0.00    +0.000 A 
ATOM     16  C   UNL     1       3.470   3.629  17.006  0.00  0.00    +0.000 A 
ATOM     17  C   UNL     1       2.798   3.869  18.208  0.00  0.00    +0.000 A 
ATOM     18  C   UNL     1       3.484   4.471  19.280  0.00  0.00    +0.000 A 
ATOM     19  C   UNL     1       4.837   4.811  19.126  0.00  0.00    +0.000 A 
ATOM     20  C   UNL     1       2.822   4.692  20.616  0.00  0.00    +0.000 C 
ATOM     21  C   UNL     1       1.297   4.625  20.558  0.00  0.00    +0.000 C 
ATOM     22  C   UNL     1       0.845   3.417  19.747  0.00  0.00    +0.000 C 
ATOM     23  C   UNL     1       1.329   3.535  18.305  0.00  0.00    +0.000 C 
ENDBRANCH  13  14
ENDBRANCH   2  13
TORSDOF 5
ENDMDL
MODEL 7
REMARK VINA RESULT:      -7.1      4.969      5.685
REMARK  Name = 
REMARK  6 active torsions:
REMARK  status: ('A' for Active; 'I' for Inactive)
REMARK    1  A    between atoms: C_1  and  N_2
REMARK    2  A    between atoms: N_2  and  C_3
REMARK    3  A    between atoms: N_2  and  C_13
REMARK    4  A    between atoms: C_3  and  C_4
REMARK    5  A    between atoms: C_5  and  C_6
REMARK    6  A    between atoms: C_13  and  C_14
REMARK                            x       y       z     vdW  Elec       q    Type
REMARK                         _______ _______ _______ _____ _____    ______ ____
ROOT
ATOM      1  C   UNL     1       6.810   5.850  18.782  0.00  0.00    +0.000 C 
ATOM      2  N   UNL     1       6.506   7.040  17.970  0.00  0.00    +0.000 NA
ENDROOT
BRANCH   2   3
ATOM      3  C   UNL     1       7.734   7.532  17.316  0.00  0.00    +0.000 C 
BRANCH   3   4
ATOM      4  C   UNL     1       8.106   8.934  17.712  0.00  0.00    +0.000 C 
ATOM      5  C   UNL     1       8.876   9.189  18.792  0.00  0.00    +0.000 C 
BRANCH   5   6
ATOM      6  C   UNL     1       9.232  10.546  19.187  0.00  0.00    +0.000 A 
ATOM      7  C   UNL     1       9.261  11.570  18.230  0.00  0.00    +0.000 A 
ATOM      8  C   UNL     1       9.626  12.864  18.598  0.00  0.00    +0.000 A 
ATOM      9  C   UNL     1       9.960  13.138  19.925  0.00  0.00    +0.000 A 
ATOM     10 CL   UNL     1      10.423  14.731  20.375  0.00  0.00    +0.000 Cl
ATOM     11  C   UNL     1       9.923  12.129  20.885  0.00  0.00    +0.000 A 
ATOM     12  C   UNL     1       9.559  10.830  20.517  0.00  0.00    +0.000 A 
ENDBRANCH   5   6
ENDBRANCH   3   4
ENDBRANCH   2   3
BRANCH   2  13
ATOM     13  C   UNL     1       5.491   6.677  16.953  0.00  0.00    +0.000 C 
BRANCH  13  14
ATOM     14  C   UNL     1       4.505   5.627  17.405  0.00  0.00    +0.000 A 
ATOM     15  C   UNL     1       4.373   4.440  16.670  0.00  0.00    +0.000 A 
ATOM     16  C   UNL     1       3.445   3.472  17.055  0.00  0.00    +0.000 A 
ATOM     17  C   UNL     1       2.663   3.653  18.200  0.00  0.00    +0.000 A 
ATOM     18  C   UNL     1       2.792   4.838  18.949  0.00  0.00    +0.000 A 
ATOM     19  C   UNL     1       3.712   5.815  18.538  0.00  0.00    +0.000 A 
ATOM     20  C   UNL     1       2.019   5.052  20.226  0.00  0.00    +0.000 C 
ATOM     21  C   UNL     1       0.819   4.119  20.374  0.00  0.00    +0.000 C 
ATOM     22  C   UNL     1       1.208   2.687  20.027  0.00  0.00    +0.000 C 
ATOM     23  C   UNL     1       1.650   2.597  18.569  0.00  0.00    +0.000 C 
ENDBRANCH  13  14
ENDBRANCH   2  13
TORSDOF 5
ENDMDL
MODEL 8
REMARK VINA RESULT:      -7.0      2.200      4.564
REMARK  Name = 
REMARK  6 active torsions:
REMARK  status: ('A' for Active; 'I' for Inactive)
REMARK    1  A    between atoms: C_1  and  N_2
REMARK    2  A    between atoms: N_2  and  C_3
REMARK    3  A    between atoms: N_2  and  C_13
REMARK    4  A    between atoms: C_3  and  C_4
REMARK    5  A    between atoms: C_5  and  C_6
REMARK    6  A    between atoms: C_13  and  C_14
REMARK                            x       y       z     vdW  Elec       q    Type
REMARK                         _______ _______ _______ _____ _____    ______ ____
ROOT
ATOM      1  C   UNL     1       1.279   2.421  21.293  0.00  0.00    +0.000 C 
ATOM      2  N   UNL     1       1.826   3.406  20.344  0.00  0.00    +0.000 NA
ENDROOT
BRANCH   2   3
ATOM      3  C   UNL     1       2.397   4.551  21.079  0.00  0.00    +0.000 C 
BRANCH   3   4
ATOM      4  C   UNL     1       1.761   5.868  20.729  0.00  0.00    +0.000 C 
ATOM      5  C   UNL     1       2.376   6.766  19.929  0.00  0.00    +0.000 C 
BRANCH   5   6
ATOM      6  C   UNL     1       1.770   8.047  19.594  0.00  0.00    +0.000 A 
ATOM      7  C   UNL     1       1.049   8.758  20.565  0.00  0.00    +0.000 A 
ATOM      8  C   UNL     1       0.446   9.973  20.242  0.00  0.00    +0.000 A 
ATOM      9  C   UNL     1       0.564  10.482  18.948  0.00  0.00    +0.000 A 
ATOM     10 CL   UNL     1      -0.192  11.972  18.547  0.00  0.00    +0.000 Cl
ATOM     11  C   UNL     1       1.287   9.788  17.980  0.00  0.00    +0.000 A 
ATOM     12  C   UNL     1       1.892   8.569  18.301  0.00  0.00    +0.000 A 
ENDBRANCH   5   6
ENDBRANCH   3   4
ENDBRANCH   2   3
BRANCH   2  13
ATOM     13  C   UNL     1       2.871   2.748  19.524  0.00  0.00    +0.000 C 
BRANCH  13  14
ATOM     14  C   UNL     1       3.798   3.706  18.814  0.00  0.00    +0.000 A 
ATOM     15  C   UNL     1       3.483   4.141  17.518  0.00  0.00    +0.000 A 
ATOM     16  C   UNL     1       4.343   5.001  16.835  0.00  0.00    +0.000 A 
ATOM     17  C   UNL     1       5.509   5.473  17.446  0.00  0.00    +0.000 A 
ATOM     18  C   UNL     1       5.832   5.048  18.748  0.00  0.00    +0.000 A 
ATOM     19  C   UNL     1       4.971   4.163  19.417  0.00  0.00    +0.000 A 
ATOM     20  C   UNL     1       7.043   5.578  19.474  0.00  0.00    +0.000 C 
ATOM     21  C   UNL     1       8.071   6.226  18.549  0.00  0.00    +0.000 C 
ATOM     22  C   UNL     1       7.386   7.162  17.560  0.00  0.00    +0.000 C 
ATOM     23  C   UNL     1       6.430   6.379  16.665  0.00  0.00    +0.000 C 
ENDBRANCH  13  14
ENDBRANCH   2  13
TORSDOF 5
ENDMDL
MODEL 9
REMARK VINA RESULT:      -7.0      2.231      4.645
REMARK  Name = 
REMARK  6 active torsions:
REMARK  status: ('A' for Active; 'I' for Inactive)
REMARK    1  A    between atoms: C_1  and  N_2
REMARK    2  A    between atoms: N_2  and  C_3
REMARK    3  A    between atoms: N_2  and  C_13
REMARK    4  A    between atoms: C_3  and  C_4
REMARK    5  A    between atoms: C_5  and  C_6
REMARK    6  A    between atoms: C_13  and  C_14
REMARK                            x       y       z     vdW  Elec       q    Type
REMARK                         _______ _______ _______ _____ _____    ______ ____
ROOT
ATOM      1  C   UNL     1       1.381   2.417  21.370  0.00  0.00    +0.000 C 
ATOM      2  N   UNL     1       1.824   3.439  20.408  0.00  0.00    +0.000 NA
ENDROOT
BRANCH   2   3
ATOM      3  C   UNL     1       2.304   4.635  21.126  0.00  0.00    +0.000 C 
BRANCH   3   4
ATOM      4  C   UNL     1       1.645   5.910  20.677  0.00  0.00    +0.000 C 
ATOM      5  C   UNL     1       2.354   6.930  20.146  0.00  0.00    +0.000 C 
BRANCH   5   6
ATOM      6  C   UNL     1       1.724   8.172  19.718  0.00  0.00    +0.000 A 
ATOM      7  C   UNL     1       1.841   8.596  18.387  0.00  0.00    +0.000 A 
ATOM      8  C   UNL     1       1.261   9.797  17.980  0.00  0.00    +0.000 A 
ATOM      9  C   UNL     1       0.560  10.575  18.902  0.00  0.00    +0.000 A 
ATOM     10 CL   UNL     1      -0.142  12.062  18.402  0.00  0.00    +0.000 Cl
ATOM     11  C   UNL     1       0.429  10.156  20.224  0.00  0.00    +0.000 A 
ATOM     12  C   UNL     1       1.011   8.953  20.635  0.00  0.00    +0.000 A 
ENDBRANCH   5   6
ENDBRANCH   3   4
ENDBRANCH   2   3
BRANCH   2  13
ATOM     13  C   UNL     1       2.911   2.870  19.575  0.00  0.00    +0.000 C 
BRANCH  13  14
ATOM     14  C   UNL     1       3.765   3.902  18.878  0.00  0.00    +0.000 A 
ATOM     15  C   UNL     1       3.305   4.496  17.693  0.00  0.00    +0.000 A 
ATOM     16  C   UNL     1       4.094   5.428  17.020  0.00  0.00    +0.000 A 
ATOM     17  C   UNL     1       5.335   5.813  17.535  0.00  0.00    +0.000 A 
ATOM     18  C   UNL     1       5.805   5.228  18.725  0.00  0.00    +0.000 A 
ATOM     19  C   UNL     1       5.013   4.273  19.382  0.00  0.00    +0.000 A 
ATOM     20  C   UNL     1       7.107   5.656  19.355  0.00  0.00    +0.000 C 
ATOM     21  C   UNL     1       8.028   6.407  18.396  0.00  0.00    +0.000 C 
ATOM     22  C   UNL     1       7.249   7.462  17.621  0.00  0.00    +0.000 C 
ATOM     23  C   UNL     1       6.174   6.803  16.762  0.00  0.00    +0.000 C 
ENDBRANCH  13  14
ENDBRANCH   2  13
TORSDOF 5
ENDMDL
