MODEL 1
REMARK VINA RESULT:      -6.6      0.000      0.000
REMARK  Name = 
REMARK  15 active torsions:
REMARK  status: ('A' for Active; 'I' for Inactive)
REMARK    1  A    between atoms: C_1  and  O_2
REMARK    2  A    between atoms: O_2  and  C_3
REMARK    3  A    between atoms: C_3  and  C_5
REMARK    4  A    between atoms: C_7  and  O_8
REMARK    5  A    between atoms: O_8  and  C_9
REMARK    6  A    between atoms: C_10  and  O_11
REMARK    7  A    between atoms: O_11  and  C_12
REMARK    8  A    between atoms: C_13  and  O_14
REMARK    9  A    between atoms: O_14  and  C_15
REMARK   10  A    between atoms: C_16  and  N_17
REMARK   11  A    between atoms: C_18  and  C_20
REMARK   12  A    between atoms: C_23  and  S_24
REMARK   13  A    between atoms: S_24  and  N_27
REMARK   14  A    between atoms: N_27  and  C_28
REMARK   15  A    between atoms: N_27  and  C_29
REMARK                            x       y       z     vdW  Elec       q    Type
REMARK                         _______ _______ _______ _____ _____    ______ ____
ROOT
ATOM      1  C   UNL     1      -0.485  11.390  20.631  0.00  0.00    +0.000 A 
ATOM      2  C   UNL     1      -1.354  12.465  20.851  0.00  0.00    +0.000 A 
ATOM      3  C   UNL     1      -2.458  12.692  20.030  0.00  0.00    +0.000 A 
ATOM      4  C   UNL     1      -2.759  11.781  18.999  0.00  0.00    +0.000 A 
ATOM      5  C   UNL     1      -1.882  10.682  18.766  0.00  0.00    +0.000 A 
ATOM      6  C   UNL     1      -0.736  10.486  19.589  0.00  0.00    +0.000 A 
ENDROOT
BRANCH   6   7
ATOM      7  N   UNL     1       0.167   9.394  19.403  0.00  0.00    +0.000 N 
ATOM      8  C   UNL     1       1.254   9.485  18.551  0.00  0.00    +0.000 C 
ATOM      9  O   UNL     1       1.540  10.483  17.893  0.00  0.00    +0.000 OA
ATOM     10  H   UNL     1       0.251   8.756  20.189  0.00  0.00    +0.000 HD
BRANCH   8  11
ATOM     11  C   UNL     1       2.201   8.330  18.493  0.00  0.00    +0.000 A 
ATOM     12  C   UNL     1       2.113   7.402  19.549  0.00  0.00    +0.000 A 
ATOM     13  C   UNL     1       2.871   6.236  19.545  0.00  0.00    +0.000 A 
ATOM     14  C   UNL     1       3.716   5.976  18.468  0.00  0.00    +0.000 A 
ATOM     15  C   UNL     1       3.867   6.911  17.438  0.00  0.00    +0.000 A 
ATOM     16  C   UNL     1       3.101   8.086  17.445  0.00  0.00    +0.000 A 
BRANCH  14  17
ATOM     17  S   UNL     1       4.594   4.422  18.414  0.00  0.00    +0.000 S 
ATOM     18  O   UNL     1       4.836   4.126  17.018  0.00  0.00    +0.000 OA
ATOM     19  O   UNL     1       5.679   4.494  19.365  0.00  0.00    +0.000 OA
BRANCH  17  20
ATOM     20  N   UNL     1       3.432   3.318  18.997  0.00  0.00    +0.000 NA
ATOM     21  C   UNL     1       2.677   2.550  17.991  0.00  0.00    +0.000 C 
ATOM     22  C   UNL     1       3.825   2.510  20.165  0.00  0.00    +0.000 C 
ENDBRANCH  17  20
ENDBRANCH  14  17
ENDBRANCH   8  11
ENDBRANCH   6   7
BRANCH   1  23
ATOM     23  C   UNL     1       0.733  11.289  21.479  0.00  0.00    +0.000 C 
ATOM     24  O   UNL     1       1.109  10.266  22.029  0.00  0.00    +0.000 OA
BRANCH  23  26
ATOM     25  C   UNL     1       2.055  12.878  20.319  0.00  0.00    +0.000 C 
ATOM     26  O   UNL     1       1.349  12.498  21.499  0.00  0.00    +0.000 OA
ENDBRANCH  23  26
ENDBRANCH   1  23
BRANCH   3  27
ATOM     27  O   UNL     1      -3.268  13.777  20.244  0.00  0.00    +0.000 OA
ATOM     28  C   UNL     1      -2.677  14.883  20.923  0.00  0.00    +0.000 C 
ENDBRANCH   3  27
BRANCH   4  29
ATOM     29  O   UNL     1      -3.836  11.904  18.154  0.00  0.00    +0.000 OA
ATOM     30  C   UNL     1      -5.098  11.387  18.550  0.00  0.00    +0.000 C 
ENDBRANCH   4  29
BRANCH   5  31
ATOM     31  O   UNL     1      -2.139   9.665  17.869  0.00  0.00    +0.000 OA
ATOM     32  C   UNL     1      -2.121   9.986  16.482  0.00  0.00    +0.000 C 
ENDBRANCH   5  31
TORSDOF 9
ENDMDL
MODEL 2
REMARK VINA RESULT:      -6.5      0.679      1.558
REMARK  Name = 
REMARK  15 active torsions:
REMARK  status: ('A' for Active; 'I' for Inactive)
REMARK    1  A    between atoms: C_1  and  O_2
REMARK    2  A    between atoms: O_2  and  C_3
REMARK    3  A    between atoms: C_3  and  C_5
REMARK    4  A    between atoms: C_7  and  O_8
REMARK    5  A    between atoms: O_8  and  C_9
REMARK    6  A    between atoms: C_10  and  O_11
REMARK    7  A    between atoms: O_11  and  C_12
REMARK    8  A    between atoms: C_13  and  O_14
REMARK    9  A    between atoms: O_14  and  C_15
REMARK   10  A    between atoms: C_16  and  N_17
REMARK   11  A    between atoms: C_18  and  C_20
REMARK   12  A    between atoms: C_23  and  S_24
REMARK   13  A    between atoms: S_24  and  N_27
REMARK   14  A    between atoms: N_27  and  C_28
REMARK   15  A    between atoms: N_27  and  C_29
REMARK                            x       y       z     vdW  Elec       q    Type
REMARK                         _______ _______ _______ _____ _____    ______ ____
ROOT
ATOM      1  C   UNL     1      -0.522  11.383  20.546  0.00  0.00    +0.000 A 
ATOM      2  C   UNL     1      -1.354  12.491  20.741  0.00  0.00    +0.000 A 
ATOM      3  C   UNL     1      -2.459  12.729  19.926  0.00  0.00    +0.000 A 
ATOM      4  C   UNL     1      -2.802  11.798  18.926  0.00  0.00    +0.000 A 
ATOM      5  C   UNL     1      -1.963  10.665  18.718  0.00  0.00    +0.000 A 
ATOM      6  C   UNL     1      -0.814  10.456  19.535  0.00  0.00    +0.000 A 
ENDROOT
BRANCH   6   7
ATOM      7  N   UNL     1       0.051   9.330  19.372  0.00  0.00    +0.000 N 
ATOM      8  C   UNL     1       1.224   9.412  18.642  0.00  0.00    +0.000 C 
ATOM      9  O   UNL     1       1.622  10.429  18.079  0.00  0.00    +0.000 OA
ATOM     10  H   UNL     1       0.023   8.645  20.122  0.00  0.00    +0.000 HD
BRANCH   8  11
ATOM     11  C   UNL     1       2.116   8.213  18.608  0.00  0.00    +0.000 A 
ATOM     12  C   UNL     1       2.984   8.117  17.503  0.00  0.00    +0.000 A 
ATOM     13  C   UNL     1       3.930   7.101  17.419  0.00  0.00    +0.000 A 
ATOM     14  C   UNL     1       4.031   6.176  18.457  0.00  0.00    +0.000 A 
ATOM     15  C   UNL     1       3.139   6.215  19.535  0.00  0.00    +0.000 A 
ATOM     16  C   UNL     1       2.186   7.240  19.616  0.00  0.00    +0.000 A 
BRANCH  14  17
ATOM     17  S   UNL     1       5.326   4.949  18.398  0.00  0.00    +0.000 S 
ATOM     18  O   UNL     1       6.030   5.142  17.149  0.00  0.00    +0.000 OA
ATOM     19  O   UNL     1       6.021   4.979  19.665  0.00  0.00    +0.000 OA
BRANCH  17  20
ATOM     20  N   UNL     1       4.450   3.489  18.293  0.00  0.00    +0.000 NA
ATOM     21  C   UNL     1       4.147   2.800  19.560  0.00  0.00    +0.000 C 
ATOM     22  C   UNL     1       3.325   3.469  17.342  0.00  0.00    +0.000 C 
ENDBRANCH  17  20
ENDBRANCH  14  17
ENDBRANCH   8  11
ENDBRANCH   6   7
BRANCH   1  23
ATOM     23  C   UNL     1       0.702  11.267  21.383  0.00  0.00    +0.000 C 
ATOM     24  O   UNL     1       1.611  12.082  21.395  0.00  0.00    +0.000 OA
BRANCH  23  26
ATOM     25  C   UNL     1      -0.409  10.117  23.132  0.00  0.00    +0.000 C 
ATOM     26  O   UNL     1       0.609  10.140  22.133  0.00  0.00    +0.000 OA
ENDBRANCH  23  26
ENDBRANCH   1  23
BRANCH   3  27
ATOM     27  O   UNL     1      -3.232  13.846  20.115  0.00  0.00    +0.000 OA
ATOM     28  C   UNL     1      -2.837  14.715  21.175  0.00  0.00    +0.000 C 
ENDBRANCH   3  27
BRANCH   4  29
ATOM     29  O   UNL     1      -3.883  11.931  18.089  0.00  0.00    +0.000 OA
ATOM     30  C   UNL     1      -5.161  11.489  18.524  0.00  0.00    +0.000 C 
ENDBRANCH   4  29
BRANCH   5  31
ATOM     31  O   UNL     1      -2.263   9.629  17.855  0.00  0.00    +0.000 OA
ATOM     32  C   UNL     1      -2.184   9.890  16.457  0.00  0.00    +0.000 C 
ENDBRANCH   5  31
TORSDOF 9
ENDMDL
MODEL 3
REMARK VINA RESULT:      -6.5      1.627      3.589
REMARK  Name = 
REMARK  15 active torsions:
REMARK  status: ('A' for Active; 'I' for Inactive)
REMARK    1  A    between atoms: C_1  and  O_2
REMARK    2  A    between atoms: O_2  and  C_3
REMARK    3  A    between atoms: C_3  and  C_5
REMARK    4  A    between atoms: C_7  and  O_8
REMARK    5  A    between atoms: O_8  and  C_9
REMARK    6  A    between atoms: C_10  and  O_11
REMARK    7  A    between atoms: O_11  and  C_12
REMARK    8  A    between atoms: C_13  and  O_14
REMARK    9  A    between atoms: O_14  and  C_15
REMARK   10  A    between atoms: C_16  and  N_17
REMARK   11  A    between atoms: C_18  and  C_20
REMARK   12  A    between atoms: C_23  and  S_24
REMARK   13  A    between atoms: S_24  and  N_27
REMARK   14  A    between atoms: N_27  and  C_28
REMARK   15  A    between atoms: N_27  and  C_29
REMARK                            x       y       z     vdW  Elec       q    Type
REMARK                         _______ _______ _______ _____ _____    ______ ____
ROOT
ATOM      1  C   UNL     1      -1.693  10.824  18.956  0.00  0.00    +0.000 A 
ATOM      2  C   UNL     1      -2.547  11.899  19.230  0.00  0.00    +0.000 A 
ATOM      3  C   UNL     1      -2.518  12.561  20.457  0.00  0.00    +0.000 A 
ATOM      4  C   UNL     1      -1.559  12.198  21.422  0.00  0.00    +0.000 A 
ATOM      5  C   UNL     1      -0.684  11.106  21.154  0.00  0.00    +0.000 A 
ATOM      6  C   UNL     1      -0.751  10.414  19.911  0.00  0.00    +0.000 A 
ENDROOT
BRANCH   6   7
ATOM      7  N   UNL     1       0.112   9.321  19.591  0.00  0.00    +0.000 N 
ATOM      8  C   UNL     1       1.332   9.515  18.968  0.00  0.00    +0.000 C 
ATOM      9  O   UNL     1       1.778  10.612  18.639  0.00  0.00    +0.000 OA
ATOM     10  H   UNL     1       0.026   8.506  20.192  0.00  0.00    +0.000 HD
BRANCH   8  11
ATOM     11  C   UNL     1       2.214   8.325  18.762  0.00  0.00    +0.000 A 
ATOM     12  C   UNL     1       2.151   7.327  19.754  0.00  0.00    +0.000 A 
ATOM     13  C   UNL     1       2.847   6.132  19.614  0.00  0.00    +0.000 A 
ATOM     14  C   UNL     1       3.603   5.913  18.464  0.00  0.00    +0.000 A 
ATOM     15  C   UNL     1       3.730   6.913  17.494  0.00  0.00    +0.000 A 
ATOM     16  C   UNL     1       3.027   8.118  17.637  0.00  0.00    +0.000 A 
BRANCH  14  17
ATOM     17  S   UNL     1       4.395   4.328  18.238  0.00  0.00    +0.000 S 
ATOM     18  O   UNL     1       5.011   3.984  19.502  0.00  0.00    +0.000 OA
ATOM     19  O   UNL     1       3.446   3.447  17.600  0.00  0.00    +0.000 OA
BRANCH  17  20
ATOM     20  N   UNL     1       5.636   4.690  17.125  0.00  0.00    +0.000 NA
ATOM     21  C   UNL     1       7.008   4.767  17.656  0.00  0.00    +0.000 C 
ATOM     22  C   UNL     1       5.560   4.011  15.818  0.00  0.00    +0.000 C 
ENDBRANCH  17  20
ENDBRANCH  14  17
ENDBRANCH   8  11
ENDBRANCH   6   7
BRANCH   1  23
ATOM     23  C   UNL     1      -1.869  10.098  17.669  0.00  0.00    +0.000 C 
ATOM     24  O   UNL     1      -0.957   9.616  17.017  0.00  0.00    +0.000 OA
BRANCH  23  26
ATOM     25  C   UNL     1      -3.595  10.560  16.112  0.00  0.00    +0.000 C 
ATOM     26  O   UNL     1      -3.194  10.044  17.380  0.00  0.00    +0.000 OA
ENDBRANCH  23  26
ENDBRANCH   1  23
BRANCH   3  27
ATOM     27  O   UNL     1      -3.395  13.583  20.712  0.00  0.00    +0.000 OA
ATOM     28  C   UNL     1      -4.779  13.237  20.735  0.00  0.00    +0.000 C 
ENDBRANCH   3  27
BRANCH   4  29
ATOM     29  O   UNL     1      -1.436  12.805  22.649  0.00  0.00    +0.000 OA
ATOM     30  C   UNL     1      -0.673  13.998  22.765  0.00  0.00    +0.000 C 
ENDBRANCH   4  29
BRANCH   5  31
ATOM     31  O   UNL     1       0.369  10.742  21.970  0.00  0.00    +0.000 OA
ATOM     32  C   UNL     1       0.135   9.720  22.934  0.00  0.00    +0.000 C 
ENDBRANCH   5  31
TORSDOF 9
ENDMDL
MODEL 4
REMARK VINA RESULT:      -6.5      1.292      3.371
REMARK  Name = 
REMARK  15 active torsions:
REMARK  status: ('A' for Active; 'I' for Inactive)
REMARK    1  A    between atoms: C_1  and  O_2
REMARK    2  A    between atoms: O_2  and  C_3
REMARK    3  A    between atoms: C_3  and  C_5
REMARK    4  A    between atoms: C_7  and  O_8
REMARK    5  A    between atoms: O_8  and  C_9
REMARK    6  A    between atoms: C_10  and  O_11
REMARK    7  A    between atoms: O_11  and  C_12
REMARK    8  A    between atoms: C_13  and  O_14
REMARK    9  A    between atoms: O_14  and  C_15
REMARK   10  A    between atoms: C_16  and  N_17
REMARK   11  A    between atoms: C_18  and  C_20
REMARK   12  A    between atoms: C_23  and  S_24
REMARK   13  A    between atoms: S_24  and  N_27
REMARK   14  A    between atoms: N_27  and  C_28
REMARK   15  A    between atoms: N_27  and  C_29
REMARK                            x       y       z     vdW  Elec       q    Type
REMARK                         _______ _______ _______ _____ _____    ______ ____
ROOT
ATOM      1  C   UNL     1      -2.086  11.366  19.339  0.00  0.00    +0.000 A 
ATOM      2  C   UNL     1      -2.865  12.489  19.638  0.00  0.00    +0.000 A 
ATOM      3  C   UNL     1      -2.778  13.131  20.872  0.00  0.00    +0.000 A 
ATOM      4  C   UNL     1      -1.833  12.695  21.820  0.00  0.00    +0.000 A 
ATOM      5  C   UNL     1      -1.033  11.552  21.527  0.00  0.00    +0.000 A 
ATOM      6  C   UNL     1      -1.161  10.883  20.276  0.00  0.00    +0.000 A 
ENDROOT
BRANCH   6   7
ATOM      7  N   UNL     1      -0.375   9.741  19.931  0.00  0.00    +0.000 N 
ATOM      8  C   UNL     1       0.869   9.865  19.337  0.00  0.00    +0.000 C 
ATOM      9  O   UNL     1       1.401  10.937  19.056  0.00  0.00    +0.000 OA
ATOM     10  H   UNL     1      -0.532   8.913  20.499  0.00  0.00    +0.000 HD
BRANCH   8  11
ATOM     11  C   UNL     1       1.665   8.621  19.102  0.00  0.00    +0.000 A 
ATOM     12  C   UNL     1       2.395   8.570  17.899  0.00  0.00    +0.000 A 
ATOM     13  C   UNL     1       3.251   7.509  17.625  0.00  0.00    +0.000 A 
ATOM     14  C   UNL     1       3.401   6.491  18.565  0.00  0.00    +0.000 A 
ATOM     15  C   UNL     1       2.639   6.489  19.739  0.00  0.00    +0.000 A 
ATOM     16  C   UNL     1       1.777   7.560  20.014  0.00  0.00    +0.000 A 
BRANCH  14  17
ATOM     17  S   UNL     1       4.591   5.196  18.257  0.00  0.00    +0.000 S 
ATOM     18  O   UNL     1       4.850   5.196  16.833  0.00  0.00    +0.000 OA
ATOM     19  O   UNL     1       5.661   5.343  19.216  0.00  0.00    +0.000 OA
BRANCH  17  20
ATOM     20  N   UNL     1       3.710   3.785  18.636  0.00  0.00    +0.000 NA
ATOM     21  C   UNL     1       2.988   3.131  17.530  0.00  0.00    +0.000 C 
ATOM     22  C   UNL     1       4.369   2.827  19.543  0.00  0.00    +0.000 C 
ENDBRANCH  17  20
ENDBRANCH  14  17
ENDBRANCH   8  11
ENDBRANCH   6   7
BRANCH   1  23
ATOM     23  C   UNL     1      -2.324  10.670  18.045  0.00  0.00    +0.000 C 
ATOM     24  O   UNL     1      -2.577   9.481  17.937  0.00  0.00    +0.000 OA
BRANCH  23  26
ATOM     25  C   UNL     1      -2.812  11.205  15.789  0.00  0.00    +0.000 C 
ATOM     26  O   UNL     1      -2.243  11.580  17.042  0.00  0.00    +0.000 OA
ENDBRANCH  23  26
ENDBRANCH   1  23
BRANCH   3  27
ATOM     27  O   UNL     1      -3.584  14.204  21.152  0.00  0.00    +0.000 OA
ATOM     28  C   UNL     1      -3.087  15.486  20.770  0.00  0.00    +0.000 C 
ENDBRANCH   3  27
BRANCH   4  29
ATOM     29  O   UNL     1      -1.656  13.275  23.053  0.00  0.00    +0.000 OA
ATOM     30  C   UNL     1      -0.741  14.353  23.192  0.00  0.00    +0.000 C 
ENDBRANCH   4  29
BRANCH   5  31
ATOM     31  O   UNL     1       0.003  11.109  22.324  0.00  0.00    +0.000 OA
ATOM     32  C   UNL     1      -0.252  10.007  23.189  0.00  0.00    +0.000 C 
ENDBRANCH   5  31
TORSDOF 9
ENDMDL
MODEL 5
REMARK VINA RESULT:      -6.5      1.657      3.597
REMARK  Name = 
REMARK  15 active torsions:
REMARK  status: ('A' for Active; 'I' for Inactive)
REMARK    1  A    between atoms: C_1  and  O_2
REMARK    2  A    between atoms: O_2  and  C_3
REMARK    3  A    between atoms: C_3  and  C_5
REMARK    4  A    between atoms: C_7  and  O_8
REMARK    5  A    between atoms: O_8  and  C_9
REMARK    6  A    between atoms: C_10  and  O_11
REMARK    7  A    between atoms: O_11  and  C_12
REMARK    8  A    between atoms: C_13  and  O_14
REMARK    9  A    between atoms: O_14  and  C_15
REMARK   10  A    between atoms: C_16  and  N_17
REMARK   11  A    between atoms: C_18  and  C_20
REMARK   12  A    between atoms: C_23  and  S_24
REMARK   13  A    between atoms: S_24  and  N_27
REMARK   14  A    between atoms: N_27  and  C_28
REMARK   15  A    between atoms: N_27  and  C_29
REMARK                            x       y       z     vdW  Elec       q    Type
REMARK                         _______ _______ _______ _____ _____    ______ ____
ROOT
ATOM      1  C   UNL     1      -2.211  11.813  19.592  0.00  0.00    +0.000 A 
ATOM      2  C   UNL     1      -2.998  12.864  20.077  0.00  0.00    +0.000 A 
ATOM      3  C   UNL     1      -2.912  13.292  21.401  0.00  0.00    +0.000 A 
ATOM      4  C   UNL     1      -1.958  12.712  22.260  0.00  0.00    +0.000 A 
ATOM      5  C   UNL     1      -1.149  11.642  21.777  0.00  0.00    +0.000 A 
ATOM      6  C   UNL     1      -1.277  11.190  20.432  0.00  0.00    +0.000 A 
ENDROOT
BRANCH   6   7
ATOM      7  N   UNL     1      -0.483  10.129  19.899  0.00  0.00    +0.000 N 
ATOM      8  C   UNL     1       0.818  10.336  19.474  0.00  0.00    +0.000 C 
ATOM      9  O   UNL     1       1.398  11.419  19.512  0.00  0.00    +0.000 OA
ATOM     10  H   UNL     1      -0.714   9.197  20.233  0.00  0.00    +0.000 HD
BRANCH   8  11
ATOM     11  C   UNL     1       1.609   9.149  19.024  0.00  0.00    +0.000 A 
ATOM     12  C   UNL     1       1.690   8.077  19.933  0.00  0.00    +0.000 A 
ATOM     13  C   UNL     1       2.310   6.883  19.580  0.00  0.00    +0.000 A 
ATOM     14  C   UNL     1       2.841   6.742  18.299  0.00  0.00    +0.000 A 
ATOM     15  C   UNL     1       2.826   7.814  17.400  0.00  0.00    +0.000 A 
ATOM     16  C   UNL     1       2.200   9.017  17.758  0.00  0.00    +0.000 A 
BRANCH  14  17
ATOM     17  S   UNL     1       3.527   5.166  17.816  0.00  0.00    +0.000 S 
ATOM     18  O   UNL     1       2.417   4.245  17.694  0.00  0.00    +0.000 OA
ATOM     19  O   UNL     1       4.435   5.398  16.717  0.00  0.00    +0.000 OA
BRANCH  17  20
ATOM     20  N   UNL     1       4.437   4.721  19.189  0.00  0.00    +0.000 NA
ATOM     21  C   UNL     1       4.368   3.310  19.607  0.00  0.00    +0.000 C 
ATOM     22  C   UNL     1       5.796   5.286  19.283  0.00  0.00    +0.000 C 
ENDBRANCH  17  20
ENDBRANCH  14  17
ENDBRANCH   8  11
ENDBRANCH   6   7
BRANCH   1  23
ATOM     23  C   UNL     1      -2.450  11.341  18.202  0.00  0.00    +0.000 C 
ATOM     24  O   UNL     1      -1.576  10.950  17.444  0.00  0.00    +0.000 OA
BRANCH  23  26
ATOM     25  C   UNL     1      -4.180  11.302  16.583  0.00  0.00    +0.000 C 
ATOM     26  O   UNL     1      -3.782  11.392  17.950  0.00  0.00    +0.000 OA
ENDBRANCH  23  26
ENDBRANCH   1  23
BRANCH   3  27
ATOM     27  O   UNL     1      -3.726  14.295  21.859  0.00  0.00    +0.000 OA
ATOM     28  C   UNL     1      -3.894  15.417  20.993  0.00  0.00    +0.000 C 
ENDBRANCH   3  27
BRANCH   4  29
ATOM     29  O   UNL     1      -1.779  13.081  23.571  0.00  0.00    +0.000 OA
ATOM     30  C   UNL     1      -1.208  14.347  23.869  0.00  0.00    +0.000 C 
ENDBRANCH   4  29
BRANCH   5  31
ATOM     31  O   UNL     1      -0.105  11.083  22.486  0.00  0.00    +0.000 OA
ATOM     32  C   UNL     1      -0.370   9.898  23.230  0.00  0.00    +0.000 C 
ENDBRANCH   5  31
TORSDOF 9
ENDMDL
MODEL 6
REMARK VINA RESULT:      -6.4      1.218      3.156
REMARK  Name = 
REMARK  15 active torsions:
REMARK  status: ('A' for Active; 'I' for Inactive)
REMARK    1  A    between atoms: C_1  and  O_2
REMARK    2  A    between atoms: O_2  and  C_3
REMARK    3  A    between atoms: C_3  and  C_5
REMARK    4  A    between atoms: C_7  and  O_8
REMARK    5  A    between atoms: O_8  and  C_9
REMARK    6  A    between atoms: C_10  and  O_11
REMARK    7  A    between atoms: O_11  and  C_12
REMARK    8  A    between atoms: C_13  and  O_14
REMARK    9  A    between atoms: O_14  and  C_15
REMARK   10  A    between atoms: C_16  and  N_17
REMARK   11  A    between atoms: C_18  and  C_20
REMARK   12  A    between atoms: C_23  and  S_24
REMARK   13  A    between atoms: S_24  and  N_27
REMARK   14  A    between atoms: N_27  and  C_28
REMARK   15  A    between atoms: N_27  and  C_29
REMARK                            x       y       z     vdW  Elec       q    Type
REMARK                         _______ _______ _______ _____ _____    ______ ____
ROOT
ATOM      1  C   UNL     1      -1.682  10.982  18.760  0.00  0.00    +0.000 A 
ATOM      2  C   UNL     1      -2.543  12.056  19.016  0.00  0.00    +0.000 A 
ATOM      3  C   UNL     1      -2.601  12.664  20.269  0.00  0.00    +0.000 A 
ATOM      4  C   UNL     1      -1.722  12.247  21.288  0.00  0.00    +0.000 A 
ATOM      5  C   UNL     1      -0.840  11.155  21.039  0.00  0.00    +0.000 A 
ATOM      6  C   UNL     1      -0.820  10.518  19.764  0.00  0.00    +0.000 A 
ENDROOT
BRANCH   6   7
ATOM      7  N   UNL     1       0.053   9.428  19.463  0.00  0.00    +0.000 N 
ATOM      8  C   UNL     1       1.320   9.631  18.945  0.00  0.00    +0.000 C 
ATOM      9  O   UNL     1       1.802  10.736  18.700  0.00  0.00    +0.000 OA
ATOM     10  H   UNL     1      -0.088   8.588  20.018  0.00  0.00    +0.000 HD
BRANCH   8  11
ATOM     11  C   UNL     1       2.202   8.439  18.754  0.00  0.00    +0.000 A 
ATOM     12  C   UNL     1       2.117   7.440  19.743  0.00  0.00    +0.000 A 
ATOM     13  C   UNL     1       2.813   6.243  19.614  0.00  0.00    +0.000 A 
ATOM     14  C   UNL     1       3.589   6.023  18.478  0.00  0.00    +0.000 A 
ATOM     15  C   UNL     1       3.737   7.025  17.512  0.00  0.00    +0.000 A 
ATOM     16  C   UNL     1       3.035   8.231  17.644  0.00  0.00    +0.000 A 
BRANCH  14  17
ATOM     17  S   UNL     1       4.381   4.437  18.265  0.00  0.00    +0.000 S 
ATOM     18  O   UNL     1       4.731   4.328  16.865  0.00  0.00    +0.000 OA
ATOM     19  O   UNL     1       5.378   4.299  19.302  0.00  0.00    +0.000 OA
BRANCH  17  20
ATOM     20  N   UNL     1       3.112   3.343  18.582  0.00  0.00    +0.000 NA
ATOM     21  C   UNL     1       2.004   3.307  17.611  0.00  0.00    +0.000 C 
ATOM     22  C   UNL     1       3.505   2.005  19.059  0.00  0.00    +0.000 C 
ENDBRANCH  17  20
ENDBRANCH  14  17
ENDBRANCH   8  11
ENDBRANCH   6   7
BRANCH   1  23
ATOM     23  C   UNL     1      -1.767  10.315  17.433  0.00  0.00    +0.000 C 
ATOM     24  O   UNL     1      -1.099   9.349  17.101  0.00  0.00    +0.000 OA
BRANCH  23  26
ATOM     25  C   UNL     1      -2.857  10.519  15.338  0.00  0.00    +0.000 C 
ATOM     26  O   UNL     1      -2.719  10.939  16.694  0.00  0.00    +0.000 OA
ENDBRANCH  23  26
ENDBRANCH   1  23
BRANCH   3  27
ATOM     27  O   UNL     1      -3.484  13.686  20.502  0.00  0.00    +0.000 OA
ATOM     28  C   UNL     1      -4.864  13.327  20.565  0.00  0.00    +0.000 C 
ENDBRANCH   3  27
BRANCH   4  29
ATOM     29  O   UNL     1      -1.686  12.798  22.545  0.00  0.00    +0.000 OA
ATOM     30  C   UNL     1      -2.651  12.402  23.509  0.00  0.00    +0.000 C 
ENDBRANCH   4  29
BRANCH   5  31
ATOM     31  O   UNL     1       0.143  10.741  21.915  0.00  0.00    +0.000 OA
ATOM     32  C   UNL     1      -0.192   9.721  22.850  0.00  0.00    +0.000 C 
ENDBRANCH   5  31
TORSDOF 9
ENDMDL
MODEL 7
REMARK VINA RESULT:      -6.4      1.395      3.350
REMARK  Name = 
REMARK  15 active torsions:
REMARK  status: ('A' for Active; 'I' for Inactive)
REMARK    1  A    between atoms: C_1  and  O_2
REMARK    2  A    between atoms: O_2  and  C_3
REMARK    3  A    between atoms: C_3  and  C_5
REMARK    4  A    between atoms: C_7  and  O_8
REMARK    5  A    between atoms: O_8  and  C_9
REMARK    6  A    between atoms: C_10  and  O_11
REMARK    7  A    between atoms: O_11  and  C_12
REMARK    8  A    between atoms: C_13  and  O_14
REMARK    9  A    between atoms: O_14  and  C_15
REMARK   10  A    between atoms: C_16  and  N_17
REMARK   11  A    between atoms: C_18  and  C_20
REMARK   12  A    between atoms: C_23  and  S_24
REMARK   13  A    between atoms: S_24  and  N_27
REMARK   14  A    between atoms: N_27  and  C_28
REMARK   15  A    between atoms: N_27  and  C_29
REMARK                            x       y       z     vdW  Elec       q    Type
REMARK                         _______ _______ _______ _____ _____    ______ ____
ROOT
ATOM      1  C   UNL     1      -2.551  11.357  18.983  0.00  0.00    +0.000 A 
ATOM      2  C   UNL     1      -3.455  12.399  19.220  0.00  0.00    +0.000 A 
ATOM      3  C   UNL     1      -3.421  13.143  20.399  0.00  0.00    +0.000 A 
ATOM      4  C   UNL     1      -2.408  12.900  21.347  0.00  0.00    +0.000 A 
ATOM      5  C   UNL     1      -1.482  11.842  21.117  0.00  0.00    +0.000 A 
ATOM      6  C   UNL     1      -1.554  11.065  19.925  0.00  0.00    +0.000 A 
ENDROOT
BRANCH   6   7
ATOM      7  N   UNL     1      -0.642  10.002  19.643  0.00  0.00    +0.000 N 
ATOM      8  C   UNL     1       0.581  10.232  19.039  0.00  0.00    +0.000 C 
ATOM      9  O   UNL     1       0.989  11.340  18.695  0.00  0.00    +0.000 OA
ATOM     10  H   UNL     1      -0.706   9.196  20.258  0.00  0.00    +0.000 HD
BRANCH   8  11
ATOM     11  C   UNL     1       1.514   9.076  18.873  0.00  0.00    +0.000 A 
ATOM     12  C   UNL     1       1.563   8.161  19.942  0.00  0.00    +0.000 A 
ATOM     13  C   UNL     1       2.315   6.995  19.854  0.00  0.00    +0.000 A 
ATOM     14  C   UNL     1       3.014   6.720  18.681  0.00  0.00    +0.000 A 
ATOM     15  C   UNL     1       3.030   7.643  17.629  0.00  0.00    +0.000 A 
ATOM     16  C   UNL     1       2.271   8.818  17.720  0.00  0.00    +0.000 A 
BRANCH  14  17
ATOM     17  S   UNL     1       3.879   5.165  18.532  0.00  0.00    +0.000 S 
ATOM     18  O   UNL     1       4.115   4.950  17.121  0.00  0.00    +0.000 OA
ATOM     19  O   UNL     1       4.966   5.171  19.483  0.00  0.00    +0.000 OA
BRANCH  17  20
ATOM     20  N   UNL     1       2.708   4.038  19.052  0.00  0.00    +0.000 NA
ATOM     21  C   UNL     1       1.961   3.321  18.004  0.00  0.00    +0.000 C 
ATOM     22  C   UNL     1       3.089   3.174  20.184  0.00  0.00    +0.000 C 
ENDBRANCH  17  20
ENDBRANCH  14  17
ENDBRANCH   8  11
ENDBRANCH   6   7
BRANCH   1  23
ATOM     23  C   UNL     1      -2.732  10.537  17.755  0.00  0.00    +0.000 C 
ATOM     24  O   UNL     1      -3.162   9.395  17.743  0.00  0.00    +0.000 OA
BRANCH  23  26
ATOM     25  C   UNL     1      -2.981  10.948  15.434  0.00  0.00    +0.000 C 
ATOM     26  O   UNL     1      -2.371  11.283  16.679  0.00  0.00    +0.000 OA
ENDBRANCH  23  26
ENDBRANCH   1  23
BRANCH   3  27
ATOM     27  O   UNL     1      -4.345  14.130  20.621  0.00  0.00    +0.000 OA
ATOM     28  C   UNL     1      -5.669  13.873  20.156  0.00  0.00    +0.000 C 
ENDBRANCH   3  27
BRANCH   4  29
ATOM     29  O   UNL     1      -2.276  13.594  22.525  0.00  0.00    +0.000 OA
ATOM     30  C   UNL     1      -1.518  14.795  22.548  0.00  0.00    +0.000 C 
ENDBRANCH   4  29
BRANCH   5  31
ATOM     31  O   UNL     1      -0.382  11.592  21.912  0.00  0.00    +0.000 OA
ATOM     32  C   UNL     1      -0.528  10.642  22.963  0.00  0.00    +0.000 C 
ENDBRANCH   5  31
TORSDOF 9
ENDMDL
MODEL 8
REMARK VINA RESULT:      -6.3      1.653      3.585
REMARK  Name = 
REMARK  15 active torsions:
REMARK  status: ('A' for Active; 'I' for Inactive)
REMARK    1  A    between atoms: C_1  and  O_2
REMARK    2  A    between atoms: O_2  and  C_3
REMARK    3  A    between atoms: C_3  and  C_5
REMARK    4  A    between atoms: C_7  and  O_8
REMARK    5  A    between atoms: O_8  and  C_9
REMARK    6  A    between atoms: C_10  and  O_11
REMARK    7  A    between atoms: O_11  and  C_12
REMARK    8  A    between atoms: C_13  and  O_14
REMARK    9  A    between atoms: O_14  and  C_15
REMARK   10  A    between atoms: C_16  and  N_17
REMARK   11  A    between atoms: C_18  and  C_20
REMARK   12  A    between atoms: C_23  and  S_24
REMARK   13  A    between atoms: S_24  and  N_27
REMARK   14  A    between atoms: N_27  and  C_28
REMARK   15  A    between atoms: N_27  and  C_29
REMARK                            x       y       z     vdW  Elec       q    Type
REMARK                         _______ _______ _______ _____ _____    ______ ____
ROOT
ATOM      1  C   UNL     1      -2.351  11.547  18.990  0.00  0.00    +0.000 A 
ATOM      2  C   UNL     1      -3.423  12.352  19.391  0.00  0.00    +0.000 A 
ATOM      3  C   UNL     1      -3.357  13.140  20.539  0.00  0.00    +0.000 A 
ATOM      4  C   UNL     1      -2.159  13.196  21.278  0.00  0.00    +0.000 A 
ATOM      5  C   UNL     1      -1.060  12.382  20.879  0.00  0.00    +0.000 A 
ATOM      6  C   UNL     1      -1.156  11.551  19.725  0.00  0.00    +0.000 A 
ENDROOT
BRANCH   6   7
ATOM      7  N   UNL     1      -0.079  10.726  19.279  0.00  0.00    +0.000 N 
ATOM      8  C   UNL     1       0.292   9.580  19.960  0.00  0.00    +0.000 C 
ATOM      9  O   UNL     1      -0.254   9.173  20.984  0.00  0.00    +0.000 OA
ATOM     10  H   UNL     1       0.103  10.746  18.279  0.00  0.00    +0.000 HD
BRANCH   8  11
ATOM     11  C   UNL     1       1.365   8.724  19.367  0.00  0.00    +0.000 A 
ATOM     12  C   UNL     1       1.731   7.585  20.109  0.00  0.00    +0.000 A 
ATOM     13  C   UNL     1       2.642   6.663  19.605  0.00  0.00    +0.000 A 
ATOM     14  C   UNL     1       3.185   6.862  18.337  0.00  0.00    +0.000 A 
ATOM     15  C   UNL     1       2.883   8.018  17.608  0.00  0.00    +0.000 A 
ATOM     16  C   UNL     1       1.965   8.946  18.118  0.00  0.00    +0.000 A 
BRANCH  14  17
ATOM     17  S   UNL     1       4.260   5.614  17.650  0.00  0.00    +0.000 S 
ATOM     18  O   UNL     1       3.407   4.576  17.111  0.00  0.00    +0.000 OA
ATOM     19  O   UNL     1       5.242   6.281  16.828  0.00  0.00    +0.000 OA
BRANCH  17  20
ATOM     20  N   UNL     1       5.040   4.993  19.034  0.00  0.00    +0.000 NA
ATOM     21  C   UNL     1       4.805   3.574  19.354  0.00  0.00    +0.000 C 
ATOM     22  C   UNL     1       6.441   5.406  19.235  0.00  0.00    +0.000 C 
ENDBRANCH  17  20
ENDBRANCH  14  17
ENDBRANCH   8  11
ENDBRANCH   6   7
BRANCH   1  23
ATOM     23  C   UNL     1      -2.546  10.647  17.821  0.00  0.00    +0.000 C 
ATOM     24  O   UNL     1      -2.848   9.467  17.901  0.00  0.00    +0.000 OA
BRANCH  23  26
ATOM     25  C   UNL     1      -3.180  11.018  15.568  0.00  0.00    +0.000 C 
ATOM     26  O   UNL     1      -2.364  11.367  16.685  0.00  0.00    +0.000 OA
ENDBRANCH  23  26
ENDBRANCH   1  23
BRANCH   3  27
ATOM     27  O   UNL     1      -4.438  13.886  20.930  0.00  0.00    +0.000 OA
ATOM     28  C   UNL     1      -5.454  13.194  21.654  0.00  0.00    +0.000 C 
ENDBRANCH   3  27
BRANCH   4  29
ATOM     29  O   UNL     1      -1.987  13.960  22.407  0.00  0.00    +0.000 OA
ATOM     30  C   UNL     1      -1.693  15.343  22.276  0.00  0.00    +0.000 C 
ENDBRANCH   4  29
BRANCH   5  31
ATOM     31  O   UNL     1       0.195  12.444  21.451  0.00  0.00    +0.000 OA
ATOM     32  C   UNL     1       1.118  13.390  20.920  0.00  0.00    +0.000 C 
ENDBRANCH   5  31
TORSDOF 9
ENDMDL
MODEL 9
REMARK VINA RESULT:      -6.3      1.271      1.798
REMARK  Name = 
REMARK  15 active torsions:
REMARK  status: ('A' for Active; 'I' for Inactive)
REMARK    1  A    between atoms: C_1  and  O_2
REMARK    2  A    between atoms: O_2  and  C_3
REMARK    3  A    between atoms: C_3  and  C_5
REMARK    4  A    between atoms: C_7  and  O_8
REMARK    5  A    between atoms: O_8  and  C_9
REMARK    6  A    between atoms: C_10  and  O_11
REMARK    7  A    between atoms: O_11  and  C_12
REMARK    8  A    between atoms: C_13  and  O_14
REMARK    9  A    between atoms: O_14  and  C_15
REMARK   10  A    between atoms: C_16  and  N_17
REMARK   11  A    between atoms: C_18  and  C_20
REMARK   12  A    between atoms: C_23  and  S_24
REMARK   13  A    between atoms: S_24  and  N_27
REMARK   14  A    between atoms: N_27  and  C_28
REMARK   15  A    between atoms: N_27  and  C_29
REMARK                            x       y       z     vdW  Elec       q    Type
REMARK                         _______ _______ _______ _____ _____    ______ ____
ROOT
ATOM      1  C   UNL     1      -0.492  11.145  20.756  0.00  0.00    +0.000 A 
ATOM      2  C   UNL     1      -1.331  12.241  20.983  0.00  0.00    +0.000 A 
ATOM      3  C   UNL     1      -2.367  12.562  20.107  0.00  0.00    +0.000 A 
ATOM      4  C   UNL     1      -2.633  11.726  19.006  0.00  0.00    +0.000 A 
ATOM      5  C   UNL     1      -1.786  10.606  18.765  0.00  0.00    +0.000 A 
ATOM      6  C   UNL     1      -0.706  10.313  19.648  0.00  0.00    +0.000 A 
ENDROOT
BRANCH   6   7
ATOM      7  N   UNL     1       0.163   9.196  19.455  0.00  0.00    +0.000 N 
ATOM      8  C   UNL     1       1.300   9.284  18.670  0.00  0.00    +0.000 C 
ATOM      9  O   UNL     1       1.660  10.301  18.081  0.00  0.00    +0.000 OA
ATOM     10  H   UNL     1       0.178   8.517  20.211  0.00  0.00    +0.000 HD
BRANCH   8  11
ATOM     11  C   UNL     1       2.204   8.096  18.605  0.00  0.00    +0.000 A 
ATOM     12  C   UNL     1       2.100   7.178  19.669  0.00  0.00    +0.000 A 
ATOM     13  C   UNL     1       2.816   5.986  19.660  0.00  0.00    +0.000 A 
ATOM     14  C   UNL     1       3.634   5.689  18.571  0.00  0.00    +0.000 A 
ATOM     15  C   UNL     1       3.801   6.612  17.533  0.00  0.00    +0.000 A 
ATOM     16  C   UNL     1       3.078   7.813  17.544  0.00  0.00    +0.000 A 
BRANCH  14  17
ATOM     17  S   UNL     1       4.455   4.104  18.513  0.00  0.00    +0.000 S 
ATOM     18  O   UNL     1       4.194   3.451  19.778  0.00  0.00    +0.000 OA
ATOM     19  O   UNL     1       4.114   3.476  17.258  0.00  0.00    +0.000 OA
BRANCH  17  20
ATOM     20  N   UNL     1       6.103   4.542  18.472  0.00  0.00    +0.000 NA
ATOM     21  C   UNL     1       6.717   4.708  17.143  0.00  0.00    +0.000 C 
ATOM     22  C   UNL     1       6.531   5.569  19.438  0.00  0.00    +0.000 C 
ENDBRANCH  17  20
ENDBRANCH  14  17
ENDBRANCH   8  11
ENDBRANCH   6   7
BRANCH   1  23
ATOM     23  C   UNL     1       0.662  10.942  21.674  0.00  0.00    +0.000 C 
ATOM     24  O   UNL     1       1.832  11.072  21.353  0.00  0.00    +0.000 OA
BRANCH  23  26
ATOM     25  C   UNL     1      -0.320   9.303  23.077  0.00  0.00    +0.000 C 
ATOM     26  O   UNL     1       0.186  10.626  22.905  0.00  0.00    +0.000 OA
ENDBRANCH  23  26
ENDBRANCH   1  23
BRANCH   3  27
ATOM     27  O   UNL     1      -3.147  13.667  20.332  0.00  0.00    +0.000 OA
ATOM     28  C   UNL     1      -2.552  14.715  21.096  0.00  0.00    +0.000 C 
ENDBRANCH   3  27
BRANCH   4  29
ATOM     29  O   UNL     1      -3.644  11.944  18.101  0.00  0.00    +0.000 OA
ATOM     30  C   UNL     1      -4.952  11.468  18.387  0.00  0.00    +0.000 C 
ENDBRANCH   4  29
BRANCH   5  31
ATOM     31  O   UNL     1      -2.021   9.654  17.793  0.00  0.00    +0.000 OA
ATOM     32  C   UNL     1      -2.077  10.091  16.439  0.00  0.00    +0.000 C 
ENDBRANCH   5  31
TORSDOF 9
ENDMDL
