MODEL 1
REMARK VINA RESULT:      -7.4      0.000      0.000
REMARK  Name = 
REMARK  2 active torsions:
REMARK  status: ('A' for Active; 'I' for Inactive)
REMARK    1  A    between atoms: C_1  and  C_2
REMARK    2  A    between atoms: C_2  and  C_3
REMARK                            x       y       z     vdW  Elec       q    Type
REMARK                         _______ _______ _______ _____ _____    ______ ____
ROOT
ATOM      1  C   UNL     1       7.033   4.632  15.035  0.00  0.00    +0.000 C 
ATOM      2  C   UNL     1       6.410   4.697  16.438  0.00  0.00    +0.000 C 
ATOM      3  C   UNL     1       7.517   4.572  17.493  0.00  0.00    +0.000 C 
ATOM      4  N   UNL     1       5.774   6.000  16.553  0.00  0.00    +0.000 N 
ATOM      5  C   UNL     1       4.551   6.115  17.213  0.00  0.00    +0.000 A 
ATOM      6  C   UNL     1       4.021   7.386  17.467  0.00  0.00    +0.000 A 
ATOM      7  C   UNL     1       2.752   7.536  18.027  0.00  0.00    +0.000 A 
ATOM      8  C   UNL     1       1.982   6.411  18.320  0.00  0.00    +0.000 A 
ATOM      9  C   UNL     1       2.478   5.128  18.055  0.00  0.00    +0.000 A 
ATOM     10  C   UNL     1       1.712   3.982  18.313  0.00  0.00    +0.000 A 
ATOM     11  C   UNL     1       2.218   2.717  18.013  0.00  0.00    +0.000 A 
ATOM     12  C   UNL     1       3.490   2.589  17.453  0.00  0.00    +0.000 A 
ATOM     13  C   UNL     1       4.286   3.716  17.208  0.00  0.00    +0.000 A 
ATOM     14  C   UNL     1       3.772   4.985  17.492  0.00  0.00    +0.000 A 
ATOM     15  N   UNL     1       5.505   3.562  16.547  0.00  0.00    +0.000 N 
ATOM     16  H   UNL     1       6.410   6.769  16.727  0.00  0.00    +0.000 HD
ATOM     17  H   UNL     1       5.958   2.674  16.718  0.00  0.00    +0.000 HD
ENDROOT
TORSDOF 0
ENDMDL
MODEL 2
REMARK VINA RESULT:      -7.2      2.066      3.639
REMARK  Name = 
REMARK  2 active torsions:
REMARK  status: ('A' for Active; 'I' for Inactive)
REMARK    1  A    between atoms: C_1  and  C_2
REMARK    2  A    between atoms: C_2  and  C_3
REMARK                            x       y       z     vdW  Elec       q    Type
REMARK                         _______ _______ _______ _____ _____    ______ ____
ROOT
ATOM      1  C   UNL     1       7.160   4.678  17.682  0.00  0.00    +0.000 C 
ATOM      2  C   UNL     1       5.641   4.441  17.671  0.00  0.00    +0.000 C 
ATOM      3  C   UNL     1       5.220   3.906  16.295  0.00  0.00    +0.000 C 
ATOM      4  N   UNL     1       5.368   3.438  18.688  0.00  0.00    +0.000 N 
ATOM      5  C   UNL     1       4.227   3.554  19.482  0.00  0.00    +0.000 A 
ATOM      6  C   UNL     1       3.878   2.507  20.344  0.00  0.00    +0.000 A 
ATOM      7  C   UNL     1       2.807   2.633  21.229  0.00  0.00    +0.000 A 
ATOM      8  C   UNL     1       2.083   3.823  21.281  0.00  0.00    +0.000 A 
ATOM      9  C   UNL     1       2.425   4.895  20.446  0.00  0.00    +0.000 A 
ATOM     10  C   UNL     1       1.730   6.112  20.500  0.00  0.00    +0.000 A 
ATOM     11  C   UNL     1       2.109   7.173  19.678  0.00  0.00    +0.000 A 
ATOM     12  C   UNL     1       3.184   7.027  18.799  0.00  0.00    +0.000 A 
ATOM     13  C   UNL     1       3.878   5.813  18.708  0.00  0.00    +0.000 A 
ATOM     14  C   UNL     1       3.510   4.755  19.544  0.00  0.00    +0.000 A 
ATOM     15  N   UNL     1       5.015   5.734  17.902  0.00  0.00    +0.000 N 
ATOM     16  H   UNL     1       5.586   2.487  18.416  0.00  0.00    +0.000 HD
ATOM     17  H   UNL     1       4.991   6.344  17.094  0.00  0.00    +0.000 HD
ENDROOT
TORSDOF 0
ENDMDL
MODEL 3
REMARK VINA RESULT:      -7.2      0.386      3.086
REMARK  Name = 
REMARK  2 active torsions:
REMARK  status: ('A' for Active; 'I' for Inactive)
REMARK    1  A    between atoms: C_1  and  C_2
REMARK    2  A    between atoms: C_2  and  C_3
REMARK                            x       y       z     vdW  Elec       q    Type
REMARK                         _______ _______ _______ _____ _____    ______ ____
ROOT
ATOM      1  C   UNL     1       7.561   4.455  16.783  0.00  0.00    +0.000 C 
ATOM      2  C   UNL     1       6.113   4.618  16.293  0.00  0.00    +0.000 C 
ATOM      3  C   UNL     1       6.089   4.589  14.758  0.00  0.00    +0.000 C 
ATOM      4  N   UNL     1       5.366   3.483  16.812  0.00  0.00    +0.000 N 
ATOM      5  C   UNL     1       4.061   3.667  17.267  0.00  0.00    +0.000 A 
ATOM      6  C   UNL     1       3.287   2.552  17.612  0.00  0.00    +0.000 A 
ATOM      7  C   UNL     1       2.019   2.703  18.172  0.00  0.00    +0.000 A 
ATOM      8  C   UNL     1       1.514   3.979  18.419  0.00  0.00    +0.000 A 
ATOM      9  C   UNL     1       2.276   5.113  18.105  0.00  0.00    +0.000 A 
ATOM     10  C   UNL     1       1.803   6.406  18.371  0.00  0.00    +0.000 A 
ATOM     11  C   UNL     1       2.594   7.517  18.075  0.00  0.00    +0.000 A 
ATOM     12  C   UNL     1       3.861   7.344  17.515  0.00  0.00    +0.000 A 
ATOM     13  C   UNL     1       4.346   6.064  17.217  0.00  0.00    +0.000 A 
ATOM     14  C   UNL     1       3.561   4.949  17.529  0.00  0.00    +0.000 A 
ATOM     15  N   UNL     1       5.657   5.918  16.762  0.00  0.00    +0.000 N 
ATOM     16  H   UNL     1       5.509   2.615  16.310  0.00  0.00    +0.000 HD
ATOM     17  H   UNL     1       5.997   6.706  16.224  0.00  0.00    +0.000 HD
ENDROOT
TORSDOF 0
ENDMDL
MODEL 4
REMARK VINA RESULT:      -7.0      1.676      3.628
REMARK  Name = 
REMARK  2 active torsions:
REMARK  status: ('A' for Active; 'I' for Inactive)
REMARK    1  A    between atoms: C_1  and  C_2
REMARK    2  A    between atoms: C_2  and  C_3
REMARK                            x       y       z     vdW  Elec       q    Type
REMARK                         _______ _______ _______ _____ _____    ______ ____
ROOT
ATOM      1  C   UNL     1       4.463   2.061  20.324  0.00  0.00    +0.000 C 
ATOM      2  C   UNL     1       3.759   2.772  19.157  0.00  0.00    +0.000 C 
ATOM      3  C   UNL     1       2.660   1.861  18.594  0.00  0.00    +0.000 C 
ATOM      4  N   UNL     1       3.157   3.978  19.705  0.00  0.00    +0.000 N 
ATOM      5  C   UNL     1       3.173   5.157  18.959  0.00  0.00    +0.000 A 
ATOM      6  C   UNL     1       2.453   6.269  19.413  0.00  0.00    +0.000 A 
ATOM      7  C   UNL     1       2.534   7.495  18.751  0.00  0.00    +0.000 A 
ATOM      8  C   UNL     1       3.359   7.631  17.636  0.00  0.00    +0.000 A 
ATOM      9  C   UNL     1       4.108   6.541  17.173  0.00  0.00    +0.000 A 
ATOM     10  C   UNL     1       4.967   6.660  16.072  0.00  0.00    +0.000 A 
ATOM     11  C   UNL     1       5.724   5.566  15.650  0.00  0.00    +0.000 A 
ATOM     12  C   UNL     1       5.629   4.349  16.326  0.00  0.00    +0.000 A 
ATOM     13  C   UNL     1       4.760   4.196  17.414  0.00  0.00    +0.000 A 
ATOM     14  C   UNL     1       4.014   5.297  17.848  0.00  0.00    +0.000 A 
ATOM     15  N   UNL     1       4.770   3.002  18.136  0.00  0.00    +0.000 N 
ATOM     16  H   UNL     1       2.298   3.828  20.219  0.00  0.00    +0.000 HD
ATOM     17  H   UNL     1       5.006   2.188  17.582  0.00  0.00    +0.000 HD
ENDROOT
TORSDOF 0
ENDMDL
MODEL 5
REMARK VINA RESULT:      -7.0      1.902      1.994
REMARK  Name = 
REMARK  2 active torsions:
REMARK  status: ('A' for Active; 'I' for Inactive)
REMARK    1  A    between atoms: C_1  and  C_2
REMARK    2  A    between atoms: C_2  and  C_3
REMARK                            x       y       z     vdW  Elec       q    Type
REMARK                         _______ _______ _______ _____ _____    ______ ____
ROOT
ATOM      1  C   UNL     1       5.405   3.968  15.813  0.00  0.00    +0.000 C 
ATOM      2  C   UNL     1       5.405   4.459  17.269  0.00  0.00    +0.000 C 
ATOM      3  C   UNL     1       6.840   4.812  17.688  0.00  0.00    +0.000 C 
ATOM      4  N   UNL     1       4.579   5.656  17.306  0.00  0.00    +0.000 N 
ATOM      5  C   UNL     1       3.738   5.880  18.396  0.00  0.00    +0.000 A 
ATOM      6  C   UNL     1       3.070   7.106  18.510  0.00  0.00    +0.000 A 
ATOM      7  C   UNL     1       2.139   7.323  19.526  0.00  0.00    +0.000 A 
ATOM      8  C   UNL     1       1.845   6.304  20.431  0.00  0.00    +0.000 A 
ATOM      9  C   UNL     1       2.481   5.061  20.327  0.00  0.00    +0.000 A 
ATOM     10  C   UNL     1       2.182   4.011  21.206  0.00  0.00    +0.000 A 
ATOM     11  C   UNL     1       2.809   2.773  21.062  0.00  0.00    +0.000 A 
ATOM     12  C   UNL     1       3.737   2.576  20.038  0.00  0.00    +0.000 A 
ATOM     13  C   UNL     1       4.073   3.616  19.162  0.00  0.00    +0.000 A 
ATOM     14  C   UNL     1       3.431   4.851  19.295  0.00  0.00    +0.000 A 
ATOM     15  N   UNL     1       4.920   3.355  18.083  0.00  0.00    +0.000 N 
ATOM     16  H   UNL     1       5.029   6.493  16.954  0.00  0.00    +0.000 HD
ATOM     17  H   UNL     1       5.601   2.628  18.261  0.00  0.00    +0.000 HD
ENDROOT
TORSDOF 0
ENDMDL
MODEL 6
REMARK VINA RESULT:      -7.0      1.788      3.852
REMARK  Name = 
REMARK  2 active torsions:
REMARK  status: ('A' for Active; 'I' for Inactive)
REMARK    1  A    between atoms: C_1  and  C_2
REMARK    2  A    between atoms: C_2  and  C_3
REMARK                            x       y       z     vdW  Elec       q    Type
REMARK                         _______ _______ _______ _____ _____    ______ ____
ROOT
ATOM      1  C   UNL     1       4.113   2.168  20.684  0.00  0.00    +0.000 C 
ATOM      2  C   UNL     1       4.030   2.787  19.279  0.00  0.00    +0.000 C 
ATOM      3  C   UNL     1       3.545   1.726  18.282  0.00  0.00    +0.000 C 
ATOM      4  N   UNL     1       3.055   3.865  19.356  0.00  0.00    +0.000 N 
ATOM      5  C   UNL     1       3.281   5.050  18.657  0.00  0.00    +0.000 A 
ATOM      6  C   UNL     1       2.271   6.018  18.597  0.00  0.00    +0.000 A 
ATOM      7  C   UNL     1       2.501   7.259  18.001  0.00  0.00    +0.000 A 
ATOM      8  C   UNL     1       3.757   7.558  17.476  0.00  0.00    +0.000 A 
ATOM      9  C   UNL     1       4.793   6.616  17.542  0.00  0.00    +0.000 A 
ATOM     10  C   UNL     1       6.073   6.903  17.048  0.00  0.00    +0.000 A 
ATOM     11  C   UNL     1       7.094   5.958  17.153  0.00  0.00    +0.000 A 
ATOM     12  C   UNL     1       6.844   4.723  17.753  0.00  0.00    +0.000 A 
ATOM     13  C   UNL     1       5.568   4.402  18.233  0.00  0.00    +0.000 A 
ATOM     14  C   UNL     1       4.548   5.355  18.144  0.00  0.00    +0.000 A 
ATOM     15  N   UNL     1       5.378   3.206  18.926  0.00  0.00    +0.000 N 
ATOM     16  H   UNL     1       2.088   3.563  19.353  0.00  0.00    +0.000 HD
ATOM     17  H   UNL     1       5.990   2.456  18.629  0.00  0.00    +0.000 HD
ENDROOT
TORSDOF 0
ENDMDL
MODEL 7
REMARK VINA RESULT:      -6.9      1.615      4.005
REMARK  Name = 
REMARK  2 active torsions:
REMARK  status: ('A' for Active; 'I' for Inactive)
REMARK    1  A    between atoms: C_1  and  C_2
REMARK    2  A    between atoms: C_2  and  C_3
REMARK                            x       y       z     vdW  Elec       q    Type
REMARK                         _______ _______ _______ _____ _____    ______ ____
ROOT
ATOM      1  C   UNL     1       2.408   1.561  18.757  0.00  0.00    +0.000 C 
ATOM      2  C   UNL     1       3.431   2.697  18.925  0.00  0.00    +0.000 C 
ATOM      3  C   UNL     1       4.382   2.359  20.081  0.00  0.00    +0.000 C 
ATOM      4  N   UNL     1       4.183   2.768  17.681  0.00  0.00    +0.000 N 
ATOM      5  C   UNL     1       4.545   4.012  17.166  0.00  0.00    +0.000 A 
ATOM      6  C   UNL     1       5.406   4.077  16.063  0.00  0.00    +0.000 A 
ATOM      7  C   UNL     1       5.703   5.297  15.454  0.00  0.00    +0.000 A 
ATOM      8  C   UNL     1       5.120   6.471  15.928  0.00  0.00    +0.000 A 
ATOM      9  C   UNL     1       4.238   6.433  17.016  0.00  0.00    +0.000 A 
ATOM     10  C   UNL     1       3.617   7.596  17.492  0.00  0.00    +0.000 A 
ATOM     11  C   UNL     1       2.719   7.527  18.559  0.00  0.00    +0.000 A 
ATOM     12  C   UNL     1       2.436   6.296  19.153  0.00  0.00    +0.000 A 
ATOM     13  C   UNL     1       3.062   5.123  18.712  0.00  0.00    +0.000 A 
ATOM     14  C   UNL     1       3.948   5.190  17.632  0.00  0.00    +0.000 A 
ATOM     15  N   UNL     1       2.674   3.896  19.253  0.00  0.00    +0.000 N 
ATOM     16  H   UNL     1       4.893   2.055  17.573  0.00  0.00    +0.000 HD
ATOM     17  H   UNL     1       2.361   3.949  20.214  0.00  0.00    +0.000 HD
ENDROOT
TORSDOF 0
ENDMDL
MODEL 8
REMARK VINA RESULT:      -6.9      1.590      3.497
REMARK  Name = 
REMARK  2 active torsions:
REMARK  status: ('A' for Active; 'I' for Inactive)
REMARK    1  A    between atoms: C_1  and  C_2
REMARK    2  A    between atoms: C_2  and  C_3
REMARK                            x       y       z     vdW  Elec       q    Type
REMARK                         _______ _______ _______ _____ _____    ______ ____
ROOT
ATOM      1  C   UNL     1       6.967   4.794  17.666  0.00  0.00    +0.000 C 
ATOM      2  C   UNL     1       5.455   4.832  17.391  0.00  0.00    +0.000 C 
ATOM      3  C   UNL     1       5.209   5.372  15.975  0.00  0.00    +0.000 C 
ATOM      4  N   UNL     1       4.980   3.460  17.477  0.00  0.00    +0.000 N 
ATOM      5  C   UNL     1       3.744   3.194  18.066  0.00  0.00    +0.000 A 
ATOM      6  C   UNL     1       3.215   1.899  18.001  0.00  0.00    +0.000 A 
ATOM      7  C   UNL     1       2.035   1.572  18.671  0.00  0.00    +0.000 A 
ATOM      8  C   UNL     1       1.379   2.534  19.437  0.00  0.00    +0.000 A 
ATOM      9  C   UNL     1       1.899   3.832  19.538  0.00  0.00    +0.000 A 
ATOM     10  C   UNL     1       1.274   4.809  20.325  0.00  0.00    +0.000 A 
ATOM     11  C   UNL     1       1.827   6.085  20.431  0.00  0.00    +0.000 A 
ATOM     12  C   UNL     1       3.009   6.392  19.753  0.00  0.00    +0.000 A 
ATOM     13  C   UNL     1       3.640   5.441  18.940  0.00  0.00    +0.000 A 
ATOM     14  C   UNL     1       3.094   4.157  18.848  0.00  0.00    +0.000 A 
ATOM     15  N   UNL     1       4.875   5.744  18.367  0.00  0.00    +0.000 N 
ATOM     16  H   UNL     1       5.181   2.890  16.665  0.00  0.00    +0.000 HD
ATOM     17  H   UNL     1       5.003   6.726  18.158  0.00  0.00    +0.000 HD
ENDROOT
TORSDOF 0
ENDMDL
MODEL 9
REMARK VINA RESULT:      -6.9      1.174      1.240
REMARK  Name = 
REMARK  2 active torsions:
REMARK  status: ('A' for Active; 'I' for Inactive)
REMARK    1  A    between atoms: C_1  and  C_2
REMARK    2  A    between atoms: C_2  and  C_3
REMARK                            x       y       z     vdW  Elec       q    Type
REMARK                         _______ _______ _______ _____ _____    ______ ____
ROOT
ATOM      1  C   UNL     1       5.625   4.634  14.867  0.00  0.00    +0.000 C 
ATOM      2  C   UNL     1       5.557   4.574  16.401  0.00  0.00    +0.000 C 
ATOM      3  C   UNL     1       6.980   4.590  16.976  0.00  0.00    +0.000 C 
ATOM      4  N   UNL     1       4.844   5.766  16.834  0.00  0.00    +0.000 N 
ATOM      5  C   UNL     1       3.944   5.683  17.897  0.00  0.00    +0.000 A 
ATOM      6  C   UNL     1       3.384   6.855  18.419  0.00  0.00    +0.000 A 
ATOM      7  C   UNL     1       2.400   6.803  19.406  0.00  0.00    +0.000 A 
ATOM      8  C   UNL     1       1.944   5.570  19.871  0.00  0.00    +0.000 A 
ATOM      9  C   UNL     1       2.470   4.381  19.350  0.00  0.00    +0.000 A 
ATOM     10  C   UNL     1       2.008   3.129  19.779  0.00  0.00    +0.000 A 
ATOM     11  C   UNL     1       2.528   1.959  19.223  0.00  0.00    +0.000 A 
ATOM     12  C   UNL     1       3.512   2.034  18.235  0.00  0.00    +0.000 A 
ATOM     13  C   UNL     1       4.009   3.271  17.807  0.00  0.00    +0.000 A 
ATOM     14  C   UNL     1       3.475   4.444  18.351  0.00  0.00    +0.000 A 
ATOM     15  N   UNL     1       4.910   3.315  16.742  0.00  0.00    +0.000 N 
ATOM     16  H   UNL     1       5.394   6.616  16.826  0.00  0.00    +0.000 HD
ATOM     17  H   UNL     1       5.506   2.500  16.672  0.00  0.00    +0.000 HD
ENDROOT
TORSDOF 0
ENDMDL
