MODEL 1
REMARK VINA RESULT:      -7.1      0.000      0.000
REMARK  Name = 
REMARK  11 active torsions:
REMARK  status: ('A' for Active; 'I' for Inactive)
REMARK    1  A    between atoms: C_1  and  O_2
REMARK    2  A    between atoms: O_2  and  C_3
REMARK    3  A    between atoms: C_6  and  C_7
REMARK    4  A    between atoms: C_7  and  C_9
REMARK    5  A    between atoms: C_16  and  O_17
REMARK    6  A    between atoms: O_17  and  C_18
REMARK    7  A    between atoms: C_19  and  O_20
REMARK    8  A    between atoms: O_20  and  C_21
REMARK    9  A    between atoms: C_22  and  O_23
REMARK   10  A    between atoms: O_23  and  C_24
REMARK   11  A    between atoms: C_26  and  O_27
REMARK                            x       y       z     vdW  Elec       q    Type
REMARK                         _______ _______ _______ _____ _____    ______ ____
ROOT
ATOM      1  C   UNL     1       0.547  10.342  18.800  0.00  0.00    +0.000 C 
ATOM      2  C   UNL     1       1.218  11.528  18.973  0.00  0.00    +0.000 C 
ATOM      3  C   UNL     1       0.608  12.902  18.784  0.00  0.00    +0.000 C 
ATOM      4  C   UNL     1      -0.698  12.851  18.045  0.00  0.00    +0.000 C 
ATOM      5  C   UNL     1      -1.462  11.692  18.706  0.00  0.00    +0.000 A 
ATOM      6  C   UNL     1      -0.944  10.504  18.239  0.00  0.00    +0.000 A 
ATOM      7  C   UNL     1      -1.767  10.076  17.106  0.00  0.00    +0.000 A 
ATOM      8  C   UNL     1      -3.085  10.680  16.831  0.00  0.00    +0.000 A 
ATOM      9  C   UNL     1      -3.667  11.506  17.806  0.00  0.00    +0.000 A 
ATOM     10  C   UNL     1      -2.833  11.856  18.838  0.00  0.00    +0.000 A 
ENDROOT
BRANCH   1  11
ATOM     11  C   UNL     1       1.038   9.348  19.933  0.00  0.00    +0.000 C 
ATOM     12  O   UNL     1       1.086   9.805  21.081  0.00  0.00    +0.000 OA
BRANCH  11  16
ATOM     13  C   UNL     1       2.955   5.305  19.114  0.00  0.00    +0.000 A 
ATOM     14  C   UNL     1       3.005   6.377  18.243  0.00  0.00    +0.000 A 
ATOM     15  C   UNL     1       2.386   7.630  18.541  0.00  0.00    +0.000 A 
ATOM     16  C   UNL     1       1.673   7.887  19.737  0.00  0.00    +0.000 A 
ATOM     17  C   UNL     1       1.656   6.791  20.626  0.00  0.00    +0.000 A 
ATOM     18  C   UNL     1       2.276   5.520  20.316  0.00  0.00    +0.000 A 
BRANCH  13  20
ATOM     19  C   UNL     1       4.836   3.719  19.214  0.00  0.00    +0.000 C 
ATOM     20  O   UNL     1       3.588   4.189  18.671  0.00  0.00    +0.000 OA
ENDBRANCH  13  20
BRANCH  18  21
ATOM     21  O   UNL     1       2.191   4.495  21.228  0.00  0.00    +0.000 OA
ATOM     22  H   UNL     1       1.671   4.784  21.999  0.00  0.00    +0.000 HD
ENDBRANCH  18  21
ENDBRANCH  11  16
ENDBRANCH   1  11
BRANCH   8  23
ATOM     23  O   UNL     1      -3.844  10.634  15.699  0.00  0.00    +0.000 OA
ATOM     24  C   UNL     1      -3.527  10.026  14.484  0.00  0.00    +0.000 C 
ENDBRANCH   8  23
BRANCH   9  25
ATOM     25  O   UNL     1      -4.911  12.046  17.932  0.00  0.00    +0.000 OA
ATOM     26  C   UNL     1      -6.110  11.330  18.184  0.00  0.00    +0.000 C 
ENDBRANCH   9  25
BRANCH  10  27
ATOM     27  O   UNL     1      -3.347  12.253  20.047  0.00  0.00    +0.000 OA
ATOM     28  C   UNL     1      -2.278  12.256  21.008  0.00  0.00    +0.000 C 
ENDBRANCH  10  27
TORSDOF 7
ENDMDL
MODEL 2
REMARK VINA RESULT:      -7.0      0.685      1.347
REMARK  Name = 
REMARK  11 active torsions:
REMARK  status: ('A' for Active; 'I' for Inactive)
REMARK    1  A    between atoms: C_1  and  O_2
REMARK    2  A    between atoms: O_2  and  C_3
REMARK    3  A    between atoms: C_6  and  C_7
REMARK    4  A    between atoms: C_7  and  C_9
REMARK    5  A    between atoms: C_16  and  O_17
REMARK    6  A    between atoms: O_17  and  C_18
REMARK    7  A    between atoms: C_19  and  O_20
REMARK    8  A    between atoms: O_20  and  C_21
REMARK    9  A    between atoms: C_22  and  O_23
REMARK   10  A    between atoms: O_23  and  C_24
REMARK   11  A    between atoms: C_26  and  O_27
REMARK                            x       y       z     vdW  Elec       q    Type
REMARK                         _______ _______ _______ _____ _____    ______ ____
ROOT
ATOM      1  C   UNL     1       0.538  10.380  18.790  0.00  0.00    +0.000 C 
ATOM      2  C   UNL     1       1.200  11.570  18.971  0.00  0.00    +0.000 C 
ATOM      3  C   UNL     1       0.580  12.941  18.792  0.00  0.00    +0.000 C 
ATOM      4  C   UNL     1      -0.726  12.886  18.053  0.00  0.00    +0.000 C 
ATOM      5  C   UNL     1      -1.481  11.716  18.706  0.00  0.00    +0.000 A 
ATOM      6  C   UNL     1      -0.955  10.535  18.230  0.00  0.00    +0.000 A 
ATOM      7  C   UNL     1      -1.775  10.109  17.095  0.00  0.00    +0.000 A 
ATOM      8  C   UNL     1      -3.097  10.705  16.824  0.00  0.00    +0.000 A 
ATOM      9  C   UNL     1      -3.685  11.520  17.805  0.00  0.00    +0.000 A 
ATOM     10  C   UNL     1      -2.854  11.868  18.839  0.00  0.00    +0.000 A 
ENDROOT
BRANCH   1  11
ATOM     11  C   UNL     1       1.037   9.382  19.916  0.00  0.00    +0.000 C 
ATOM     12  O   UNL     1       1.043   9.818  21.073  0.00  0.00    +0.000 OA
BRANCH  11  16
ATOM     13  C   UNL     1       2.853   5.225  19.580  0.00  0.00    +0.000 A 
ATOM     14  C   UNL     1       2.065   5.644  20.635  0.00  0.00    +0.000 A 
ATOM     15  C   UNL     1       1.517   6.961  20.701  0.00  0.00    +0.000 A 
ATOM     16  C   UNL     1       1.725   7.947  19.707  0.00  0.00    +0.000 A 
ATOM     17  C   UNL     1       2.508   7.494  18.624  0.00  0.00    +0.000 A 
ATOM     18  C   UNL     1       3.071   6.161  18.566  0.00  0.00    +0.000 A 
BRANCH  13  20
ATOM     19  C   UNL     1       2.440   2.798  19.553  0.00  0.00    +0.000 C 
ATOM     20  O   UNL     1       3.299   3.947  19.680  0.00  0.00    +0.000 OA
ENDBRANCH  13  20
BRANCH  18  21
ATOM     21  O   UNL     1       3.844   5.809  17.485  0.00  0.00    +0.000 OA
ATOM     22  H   UNL     1       4.420   5.062  17.724  0.00  0.00    +0.000 HD
ENDBRANCH  18  21
ENDBRANCH  11  16
ENDBRANCH   1  11
BRANCH   8  23
ATOM     23  O   UNL     1      -3.856  10.662  15.692  0.00  0.00    +0.000 OA
ATOM     24  C   UNL     1      -3.507  10.128  14.451  0.00  0.00    +0.000 C 
ENDBRANCH   8  23
BRANCH   9  25
ATOM     25  O   UNL     1      -4.933  12.050  17.935  0.00  0.00    +0.000 OA
ATOM     26  C   UNL     1      -6.135  11.319  18.118  0.00  0.00    +0.000 C 
ENDBRANCH   9  25
BRANCH  10  27
ATOM     27  O   UNL     1      -3.369  12.254  20.052  0.00  0.00    +0.000 OA
ATOM     28  C   UNL     1      -2.295  12.289  21.004  0.00  0.00    +0.000 C 
ENDBRANCH  10  27
TORSDOF 7
ENDMDL
MODEL 3
REMARK VINA RESULT:      -6.8      1.731      2.389
REMARK  Name = 
REMARK  11 active torsions:
REMARK  status: ('A' for Active; 'I' for Inactive)
REMARK    1  A    between atoms: C_1  and  O_2
REMARK    2  A    between atoms: O_2  and  C_3
REMARK    3  A    between atoms: C_6  and  C_7
REMARK    4  A    between atoms: C_7  and  C_9
REMARK    5  A    between atoms: C_16  and  O_17
REMARK    6  A    between atoms: O_17  and  C_18
REMARK    7  A    between atoms: C_19  and  O_20
REMARK    8  A    between atoms: O_20  and  C_21
REMARK    9  A    between atoms: C_22  and  O_23
REMARK   10  A    between atoms: O_23  and  C_24
REMARK   11  A    between atoms: C_26  and  O_27
REMARK                            x       y       z     vdW  Elec       q    Type
REMARK                         _______ _______ _______ _____ _____    ______ ____
ROOT
ATOM      1  C   UNL     1       1.167   9.584  18.285  0.00  0.00    +0.000 C 
ATOM      2  C   UNL     1       2.212  10.465  18.142  0.00  0.00    +0.000 C 
ATOM      3  C   UNL     1       2.111  11.965  18.330  0.00  0.00    +0.000 C 
ATOM      4  C   UNL     1       0.688  12.445  18.339  0.00  0.00    +0.000 C 
ATOM      5  C   UNL     1      -0.043  11.446  19.252  0.00  0.00    +0.000 A 
ATOM      6  C   UNL     1      -0.251  10.281  18.547  0.00  0.00    +0.000 A 
ATOM      7  C   UNL     1      -1.591  10.349  17.962  0.00  0.00    +0.000 A 
ATOM      8  C   UNL     1      -2.581  11.351  18.402  0.00  0.00    +0.000 A 
ATOM      9  C   UNL     1      -2.321  12.093  19.566  0.00  0.00    +0.000 A 
ATOM     10  C   UNL     1      -1.046  11.968  20.056  0.00  0.00    +0.000 A 
ENDROOT
BRANCH   1  11
ATOM     11  C   UNL     1       1.736   8.281  18.986  0.00  0.00    +0.000 C 
ATOM     12  O   UNL     1       1.679   8.253  20.221  0.00  0.00    +0.000 OA
BRANCH  11  16
ATOM     13  C   UNL     1       4.278   5.104  16.953  0.00  0.00    +0.000 A 
ATOM     14  C   UNL     1       4.575   6.454  16.950  0.00  0.00    +0.000 A 
ATOM     15  C   UNL     1       3.746   7.418  17.601  0.00  0.00    +0.000 A 
ATOM     16  C   UNL     1       2.560   7.088  18.298  0.00  0.00    +0.000 A 
ATOM     17  C   UNL     1       2.286   5.703  18.316  0.00  0.00    +0.000 A 
ATOM     18  C   UNL     1       3.124   4.730  17.647  0.00  0.00    +0.000 A 
BRANCH  13  20
ATOM     19  C   UNL     1       6.169   4.862  15.395  0.00  0.00    +0.000 C 
ATOM     20  O   UNL     1       5.167   4.329  16.281  0.00  0.00    +0.000 OA
ENDBRANCH  13  20
BRANCH  18  21
ATOM     21  O   UNL     1       2.772   3.402  17.691  0.00  0.00    +0.000 OA
ATOM     22  H   UNL     1       3.413   2.875  17.183  0.00  0.00    +0.000 HD
ENDBRANCH  18  21
ENDBRANCH  11  16
ENDBRANCH   1  11
BRANCH   8  23
ATOM     23  O   UNL     1      -3.734  11.758  17.798  0.00  0.00    +0.000 OA
ATOM     24  C   UNL     1      -4.316  11.246  16.639  0.00  0.00    +0.000 C 
ENDBRANCH   8  23
BRANCH   9  25
ATOM     25  O   UNL     1      -3.091  12.931  20.313  0.00  0.00    +0.000 OA
ATOM     26  C   UNL     1      -4.222  12.560  21.086  0.00  0.00    +0.000 C 
ENDBRANCH   9  25
BRANCH  10  27
ATOM     27  O   UNL     1      -0.774  12.241  21.373  0.00  0.00    +0.000 OA
ATOM     28  C   UNL     1      -0.676  10.994  22.078  0.00  0.00    +0.000 C 
ENDBRANCH  10  27
TORSDOF 7
ENDMDL
MODEL 4
REMARK VINA RESULT:      -6.8      1.762      2.690
REMARK  Name = 
REMARK  11 active torsions:
REMARK  status: ('A' for Active; 'I' for Inactive)
REMARK    1  A    between atoms: C_1  and  O_2
REMARK    2  A    between atoms: O_2  and  C_3
REMARK    3  A    between atoms: C_6  and  C_7
REMARK    4  A    between atoms: C_7  and  C_9
REMARK    5  A    between atoms: C_16  and  O_17
REMARK    6  A    between atoms: O_17  and  C_18
REMARK    7  A    between atoms: C_19  and  O_20
REMARK    8  A    between atoms: O_20  and  C_21
REMARK    9  A    between atoms: C_22  and  O_23
REMARK   10  A    between atoms: O_23  and  C_24
REMARK   11  A    between atoms: C_26  and  O_27
REMARK                            x       y       z     vdW  Elec       q    Type
REMARK                         _______ _______ _______ _____ _____    ______ ____
ROOT
ATOM      1  C   UNL     1       1.123   9.729  18.357  0.00  0.00    +0.000 C 
ATOM      2  C   UNL     1       2.149  10.632  18.215  0.00  0.00    +0.000 C 
ATOM      3  C   UNL     1       2.015  12.129  18.404  0.00  0.00    +0.000 C 
ATOM      4  C   UNL     1       0.582  12.579  18.413  0.00  0.00    +0.000 C 
ATOM      5  C   UNL     1      -0.127  11.564  19.325  0.00  0.00    +0.000 A 
ATOM      6  C   UNL     1      -0.310  10.395  18.619  0.00  0.00    +0.000 A 
ATOM      7  C   UNL     1      -1.650  10.435  18.032  0.00  0.00    +0.000 A 
ATOM      8  C   UNL     1      -2.662  11.415  18.472  0.00  0.00    +0.000 A 
ATOM      9  C   UNL     1      -2.419  12.162  19.637  0.00  0.00    +0.000 A 
ATOM     10  C   UNL     1      -1.142  12.064  20.128  0.00  0.00    +0.000 A 
ENDROOT
BRANCH   1  11
ATOM     11  C   UNL     1       1.719   8.438  19.058  0.00  0.00    +0.000 C 
ATOM     12  O   UNL     1       1.389   8.251  20.234  0.00  0.00    +0.000 OA
BRANCH  11  16
ATOM     13  C   UNL     1       4.893   5.485  17.680  0.00  0.00    +0.000 A 
ATOM     14  C   UNL     1       4.170   5.356  18.851  0.00  0.00    +0.000 A 
ATOM     15  C   UNL     1       3.182   6.310  19.246  0.00  0.00    +0.000 A 
ATOM     16  C   UNL     1       2.857   7.460  18.488  0.00  0.00    +0.000 A 
ATOM     17  C   UNL     1       3.584   7.562  17.283  0.00  0.00    +0.000 A 
ATOM     18  C   UNL     1       4.591   6.598  16.891  0.00  0.00    +0.000 A 
BRANCH  13  20
ATOM     19  C   UNL     1       7.203   4.635  17.734  0.00  0.00    +0.000 C 
ATOM     20  O   UNL     1       5.796   4.495  17.462  0.00  0.00    +0.000 OA
ENDBRANCH  13  20
BRANCH  18  21
ATOM     21  O   UNL     1       5.273   6.786  15.711  0.00  0.00    +0.000 OA
ATOM     22  H   UNL     1       4.970   7.606  15.285  0.00  0.00    +0.000 HD
ENDBRANCH  18  21
ENDBRANCH  11  16
ENDBRANCH   1  11
BRANCH   8  23
ATOM     23  O   UNL     1      -3.823  11.798  17.868  0.00  0.00    +0.000 OA
ATOM     24  C   UNL     1      -5.010  11.073  17.763  0.00  0.00    +0.000 C 
ENDBRANCH   8  23
BRANCH   9  25
ATOM     25  O   UNL     1      -3.207  12.983  20.384  0.00  0.00    +0.000 OA
ATOM     26  C   UNL     1      -4.318  12.584  21.172  0.00  0.00    +0.000 C 
ENDBRANCH   9  25
BRANCH  10  27
ATOM     27  O   UNL     1      -0.877  12.342  21.445  0.00  0.00    +0.000 OA
ATOM     28  C   UNL     1      -0.741  11.096  22.147  0.00  0.00    +0.000 C 
ENDBRANCH  10  27
TORSDOF 7
ENDMDL
MODEL 5
REMARK VINA RESULT:      -6.8      2.103      3.842
REMARK  Name = 
REMARK  11 active torsions:
REMARK  status: ('A' for Active; 'I' for Inactive)
REMARK    1  A    between atoms: C_1  and  O_2
REMARK    2  A    between atoms: O_2  and  C_3
REMARK    3  A    between atoms: C_6  and  C_7
REMARK    4  A    between atoms: C_7  and  C_9
REMARK    5  A    between atoms: C_16  and  O_17
REMARK    6  A    between atoms: O_17  and  C_18
REMARK    7  A    between atoms: C_19  and  O_20
REMARK    8  A    between atoms: O_20  and  C_21
REMARK    9  A    between atoms: C_22  and  O_23
REMARK   10  A    between atoms: O_23  and  C_24
REMARK   11  A    between atoms: C_26  and  O_27
REMARK                            x       y       z     vdW  Elec       q    Type
REMARK                         _______ _______ _______ _____ _____    ______ ____
ROOT
ATOM      1  C   UNL     1       2.045   8.821  19.383  0.00  0.00    +0.000 C 
ATOM      2  C   UNL     1       1.641   7.900  20.319  0.00  0.00    +0.000 C 
ATOM      3  C   UNL     1       0.396   8.022  21.172  0.00  0.00    +0.000 C 
ATOM      4  C   UNL     1      -0.172   9.413  21.159  0.00  0.00    +0.000 C 
ATOM      5  C   UNL     1      -0.143   9.819  19.676  0.00  0.00    +0.000 A 
ATOM      6  C   UNL     1       1.151  10.150  19.339  0.00  0.00    +0.000 A 
ATOM      7  C   UNL     1       1.291  11.599  19.485  0.00  0.00    +0.000 A 
ATOM      8  C   UNL     1       0.118  12.484  19.620  0.00  0.00    +0.000 A 
ATOM      9  C   UNL     1      -1.159  11.958  19.362  0.00  0.00    +0.000 A 
ATOM     10  C   UNL     1      -1.204  10.594  19.230  0.00  0.00    +0.000 A 
ENDROOT
BRANCH   1  11
ATOM     11  C   UNL     1       2.627   8.020  18.146  0.00  0.00    +0.000 C 
ATOM     12  O   UNL     1       2.561   8.583  17.047  0.00  0.00    +0.000 OA
BRANCH  11  16
ATOM     13  C   UNL     1       3.698   3.602  17.976  0.00  0.00    +0.000 A 
ATOM     14  C   UNL     1       2.434   4.104  17.729  0.00  0.00    +0.000 A 
ATOM     15  C   UNL     1       2.142   5.501  17.796  0.00  0.00    +0.000 A 
ATOM     16  C   UNL     1       3.104   6.487  18.117  0.00  0.00    +0.000 A 
ATOM     17  C   UNL     1       4.394   5.961  18.340  0.00  0.00    +0.000 A 
ATOM     18  C   UNL     1       4.684   4.544  18.281  0.00  0.00    +0.000 A 
BRANCH  13  20
ATOM     19  C   UNL     1       3.437   1.353  18.943  0.00  0.00    +0.000 C 
ATOM     20  O   UNL     1       3.798   2.252  17.878  0.00  0.00    +0.000 OA
ENDBRANCH  13  20
BRANCH  18  21
ATOM     21  O   UNL     1       5.965   4.112  18.536  0.00  0.00    +0.000 OA
ATOM     22  H   UNL     1       6.228   4.379  19.434  0.00  0.00    +0.000 HD
ENDBRANCH  18  21
ENDBRANCH  11  16
ENDBRANCH   1  11
BRANCH   8  23
ATOM     23  O   UNL     1       0.047  13.776  20.051  0.00  0.00    +0.000 OA
ATOM     24  C   UNL     1       0.055  14.935  19.275  0.00  0.00    +0.000 C 
ENDBRANCH   8  23
BRANCH   9  25
ATOM     25  O   UNL     1      -2.382  12.539  19.222  0.00  0.00    +0.000 OA
ATOM     26  C   UNL     1      -3.316  12.782  20.263  0.00  0.00    +0.000 C 
ENDBRANCH   9  25
BRANCH  10  27
ATOM     27  O   UNL     1      -2.234   9.991  18.552  0.00  0.00    +0.000 OA
ATOM     28  C   UNL     1      -1.856   9.879  17.170  0.00  0.00    +0.000 C 
ENDBRANCH  10  27
TORSDOF 7
ENDMDL
MODEL 6
REMARK VINA RESULT:      -6.7      2.406      4.016
REMARK  Name = 
REMARK  11 active torsions:
REMARK  status: ('A' for Active; 'I' for Inactive)
REMARK    1  A    between atoms: C_1  and  O_2
REMARK    2  A    between atoms: O_2  and  C_3
REMARK    3  A    between atoms: C_6  and  C_7
REMARK    4  A    between atoms: C_7  and  C_9
REMARK    5  A    between atoms: C_16  and  O_17
REMARK    6  A    between atoms: O_17  and  C_18
REMARK    7  A    between atoms: C_19  and  O_20
REMARK    8  A    between atoms: O_20  and  C_21
REMARK    9  A    between atoms: C_22  and  O_23
REMARK   10  A    between atoms: O_23  and  C_24
REMARK   11  A    between atoms: C_26  and  O_27
REMARK                            x       y       z     vdW  Elec       q    Type
REMARK                         _______ _______ _______ _____ _____    ______ ____
ROOT
ATOM      1  C   UNL     1       0.057   9.863  18.887  0.00  0.00    +0.000 C 
ATOM      2  C   UNL     1      -0.762   9.955  17.787  0.00  0.00    +0.000 C 
ATOM      3  C   UNL     1      -1.823  11.018  17.585  0.00  0.00    +0.000 C 
ATOM      4  C   UNL     1      -2.144  11.754  18.854  0.00  0.00    +0.000 C 
ATOM      5  C   UNL     1      -0.769  12.065  19.470  0.00  0.00    +0.000 A 
ATOM      6  C   UNL     1      -0.279  10.915  20.048  0.00  0.00    +0.000 A 
ATOM      7  C   UNL     1      -0.645  10.939  21.465  0.00  0.00    +0.000 A 
ATOM      8  C   UNL     1      -1.126  12.170  22.122  0.00  0.00    +0.000 A 
ATOM      9  C   UNL     1      -1.003  13.392  21.442  0.00  0.00    +0.000 A 
ATOM     10  C   UNL     1      -0.649  13.284  20.121  0.00  0.00    +0.000 A 
ENDROOT
BRANCH   1  11
ATOM     11  C   UNL     1       1.494   9.431  18.375  0.00  0.00    +0.000 C 
ATOM     12  O   UNL     1       2.034  10.184  17.557  0.00  0.00    +0.000 OA
BRANCH  11  16
ATOM     13  C   UNL     1       3.763   5.520  18.863  0.00  0.00    +0.000 A 
ATOM     14  C   UNL     1       3.907   6.370  17.783  0.00  0.00    +0.000 A 
ATOM     15  C   UNL     1       3.171   7.590  17.670  0.00  0.00    +0.000 A 
ATOM     16  C   UNL     1       2.239   8.034  18.637  0.00  0.00    +0.000 A 
ATOM     17  C   UNL     1       2.125   7.169  19.746  0.00  0.00    +0.000 A 
ATOM     18  C   UNL     1       2.866   5.929  19.852  0.00  0.00    +0.000 A 
BRANCH  13  20
ATOM     19  C   UNL     1       4.071   3.154  18.256  0.00  0.00    +0.000 C 
ATOM     20  O   UNL     1       4.531   4.402  18.807  0.00  0.00    +0.000 OA
ENDBRANCH  13  20
BRANCH  18  21
ATOM     21  O   UNL     1       2.677   5.130  20.955  0.00  0.00    +0.000 OA
ATOM     22  H   UNL     1       2.809   4.197  20.711  0.00  0.00    +0.000 HD
ENDBRANCH  18  21
ENDBRANCH  11  16
ENDBRANCH   1  11
BRANCH   8  23
ATOM     23  O   UNL     1      -1.777  12.324  23.310  0.00  0.00    +0.000 OA
ATOM     24  C   UNL     1      -3.153  12.285  23.540  0.00  0.00    +0.000 C 
ENDBRANCH   8  23
BRANCH   9  25
ATOM     25  O   UNL     1      -1.174  14.685  21.835  0.00  0.00    +0.000 OA
ATOM     26  C   UNL     1      -0.343  15.402  22.734  0.00  0.00    +0.000 C 
ENDBRANCH   9  25
BRANCH  10  27
ATOM     27  O   UNL     1      -0.062  14.338  19.466  0.00  0.00    +0.000 OA
ATOM     28  C   UNL     1       1.348  14.078  19.373  0.00  0.00    +0.000 C 
ENDBRANCH  10  27
TORSDOF 7
ENDMDL
MODEL 7
REMARK VINA RESULT:      -6.7      1.400      2.136
REMARK  Name = 
REMARK  11 active torsions:
REMARK  status: ('A' for Active; 'I' for Inactive)
REMARK    1  A    between atoms: C_1  and  O_2
REMARK    2  A    between atoms: O_2  and  C_3
REMARK    3  A    between atoms: C_6  and  C_7
REMARK    4  A    between atoms: C_7  and  C_9
REMARK    5  A    between atoms: C_16  and  O_17
REMARK    6  A    between atoms: O_17  and  C_18
REMARK    7  A    between atoms: C_19  and  O_20
REMARK    8  A    between atoms: O_20  and  C_21
REMARK    9  A    between atoms: C_22  and  O_23
REMARK   10  A    between atoms: O_23  and  C_24
REMARK   11  A    between atoms: C_26  and  O_27
REMARK                            x       y       z     vdW  Elec       q    Type
REMARK                         _______ _______ _______ _____ _____    ______ ____
ROOT
ATOM      1  C   UNL     1       0.885   9.755  18.870  0.00  0.00    +0.000 C 
ATOM      2  C   UNL     1       1.894  10.671  18.698  0.00  0.00    +0.000 C 
ATOM      3  C   UNL     1       1.705  12.175  18.694  0.00  0.00    +0.000 C 
ATOM      4  C   UNL     1       0.264  12.570  18.540  0.00  0.00    +0.000 C 
ATOM      5  C   UNL     1      -0.488  11.645  19.512  0.00  0.00    +0.000 A 
ATOM      6  C   UNL     1      -0.582  10.395  18.941  0.00  0.00    +0.000 A 
ATOM      7  C   UNL     1      -1.872  10.316  18.254  0.00  0.00    +0.000 A 
ATOM      8  C   UNL     1      -2.942  11.304  18.495  0.00  0.00    +0.000 A 
ATOM      9  C   UNL     1      -2.812  12.191  19.575  0.00  0.00    +0.000 A 
ATOM     10  C   UNL     1      -1.576  12.199  20.169  0.00  0.00    +0.000 A 
ENDROOT
BRANCH   1  11
ATOM     11  C   UNL     1       1.458   8.578  19.765  0.00  0.00    +0.000 C 
ATOM     12  O   UNL     1       1.392   8.738  20.989  0.00  0.00    +0.000 OA
BRANCH  11  16
ATOM     13  C   UNL     1       3.716   4.805  18.601  0.00  0.00    +0.000 A 
ATOM     14  C   UNL     1       2.916   4.915  19.723  0.00  0.00    +0.000 A 
ATOM     15  C   UNL     1       2.226   6.122  20.051  0.00  0.00    +0.000 A 
ATOM     16  C   UNL     1       2.296   7.301  19.272  0.00  0.00    +0.000 A 
ATOM     17  C   UNL     1       3.093   7.163  18.116  0.00  0.00    +0.000 A 
ATOM     18  C   UNL     1       3.799   5.941  17.791  0.00  0.00    +0.000 A 
BRANCH  13  20
ATOM     19  C   UNL     1       3.639   2.463  17.846  0.00  0.00    +0.000 C 
ATOM     20  O   UNL     1       4.304   3.592  18.443  0.00  0.00    +0.000 OA
ENDBRANCH  13  20
BRANCH  18  21
ATOM     21  O   UNL     1       4.576   5.899  16.657  0.00  0.00    +0.000 OA
ATOM     22  H   UNL     1       4.989   6.768  16.511  0.00  0.00    +0.000 HD
ENDBRANCH  18  21
ENDBRANCH  11  16
ENDBRANCH   1  11
BRANCH   8  23
ATOM     23  O   UNL     1      -4.061  11.571  17.762  0.00  0.00    +0.000 OA
ATOM     24  C   UNL     1      -4.296  11.264  16.422  0.00  0.00    +0.000 C 
ENDBRANCH   8  23
BRANCH   9  25
ATOM     25  O   UNL     1      -3.679  13.066  20.157  0.00  0.00    +0.000 OA
ATOM     26  C   UNL     1      -4.807  12.724  20.947  0.00  0.00    +0.000 C 
ENDBRANCH   9  25
BRANCH  10  27
ATOM     27  O   UNL     1      -1.424  12.641  21.460  0.00  0.00    +0.000 OA
ATOM     28  C   UNL     1      -1.207  11.497  22.302  0.00  0.00    +0.000 C 
ENDBRANCH  10  27
TORSDOF 7
ENDMDL
MODEL 8
REMARK VINA RESULT:      -6.6      1.993      3.615
REMARK  Name = 
REMARK  11 active torsions:
REMARK  status: ('A' for Active; 'I' for Inactive)
REMARK    1  A    between atoms: C_1  and  O_2
REMARK    2  A    between atoms: O_2  and  C_3
REMARK    3  A    between atoms: C_6  and  C_7
REMARK    4  A    between atoms: C_7  and  C_9
REMARK    5  A    between atoms: C_16  and  O_17
REMARK    6  A    between atoms: O_17  and  C_18
REMARK    7  A    between atoms: C_19  and  O_20
REMARK    8  A    between atoms: O_20  and  C_21
REMARK    9  A    between atoms: C_22  and  O_23
REMARK   10  A    between atoms: O_23  and  C_24
REMARK   11  A    between atoms: C_26  and  O_27
REMARK                            x       y       z     vdW  Elec       q    Type
REMARK                         _______ _______ _______ _____ _____    ______ ____
ROOT
ATOM      1  C   UNL     1       1.875   8.928  19.512  0.00  0.00    +0.000 C 
ATOM      2  C   UNL     1       1.472   8.089  20.523  0.00  0.00    +0.000 C 
ATOM      3  C   UNL     1       0.226   8.283  21.362  0.00  0.00    +0.000 C 
ATOM      4  C   UNL     1      -0.343   9.666  21.230  0.00  0.00    +0.000 C 
ATOM      5  C   UNL     1      -0.314   9.945  19.718  0.00  0.00    +0.000 A 
ATOM      6  C   UNL     1       0.979  10.247  19.354  0.00  0.00    +0.000 A 
ATOM      7  C   UNL     1       1.118  11.704  19.376  0.00  0.00    +0.000 A 
ATOM      8  C   UNL     1      -0.057  12.596  19.435  0.00  0.00    +0.000 A 
ATOM      9  C   UNL     1      -1.332  12.048  19.223  0.00  0.00    +0.000 A 
ATOM     10  C   UNL     1      -1.376  10.677  19.207  0.00  0.00    +0.000 A 
ENDROOT
BRANCH   1  11
ATOM     11  C   UNL     1       2.458   8.025  18.347  0.00  0.00    +0.000 C 
ATOM     12  O   UNL     1       2.528   8.548  17.229  0.00  0.00    +0.000 OA
BRANCH  11  16
ATOM     13  C   UNL     1       3.619   3.637  18.646  0.00  0.00    +0.000 A 
ATOM     14  C   UNL     1       4.419   4.681  19.071  0.00  0.00    +0.000 A 
ATOM     15  C   UNL     1       4.014   6.046  18.956  0.00  0.00    +0.000 A 
ATOM     16  C   UNL     1       2.776   6.452  18.403  0.00  0.00    +0.000 A 
ATOM     17  C   UNL     1       1.961   5.374  17.999  0.00  0.00    +0.000 A 
ATOM     18  C   UNL     1       2.379   3.992  18.109  0.00  0.00    +0.000 A 
BRANCH  13  20
ATOM     19  C   UNL     1       4.522   1.877  20.112  0.00  0.00    +0.000 C 
ATOM     20  O   UNL     1       4.160   2.404  18.822  0.00  0.00    +0.000 OA
ENDBRANCH  13  20
BRANCH  18  21
ATOM     21  O   UNL     1       1.533   3.001  17.668  0.00  0.00    +0.000 OA
ATOM     22  H   UNL     1       2.052   2.226  17.390  0.00  0.00    +0.000 HD
ENDBRANCH  18  21
ENDBRANCH  11  16
ENDBRANCH   1  11
BRANCH   8  23
ATOM     23  O   UNL     1      -0.129  13.919  19.754  0.00  0.00    +0.000 OA
ATOM     24  C   UNL     1      -0.086  15.009  18.884  0.00  0.00    +0.000 C 
ENDBRANCH   8  23
BRANCH   9  25
ATOM     25  O   UNL     1      -2.556  12.614  19.033  0.00  0.00    +0.000 OA
ATOM     26  C   UNL     1      -3.555  12.795  20.025  0.00  0.00    +0.000 C 
ENDBRANCH   9  25
BRANCH  10  27
ATOM     27  O   UNL     1      -2.405  10.018  18.583  0.00  0.00    +0.000 OA
ATOM     28  C   UNL     1      -2.060   9.859  17.197  0.00  0.00    +0.000 C 
ENDBRANCH  10  27
TORSDOF 7
ENDMDL
MODEL 9
REMARK VINA RESULT:      -6.5      2.424      4.069
REMARK  Name = 
REMARK  11 active torsions:
REMARK  status: ('A' for Active; 'I' for Inactive)
REMARK    1  A    between atoms: C_1  and  O_2
REMARK    2  A    between atoms: O_2  and  C_3
REMARK    3  A    between atoms: C_6  and  C_7
REMARK    4  A    between atoms: C_7  and  C_9
REMARK    5  A    between atoms: C_16  and  O_17
REMARK    6  A    between atoms: O_17  and  C_18
REMARK    7  A    between atoms: C_19  and  O_20
REMARK    8  A    between atoms: O_20  and  C_21
REMARK    9  A    between atoms: C_22  and  O_23
REMARK   10  A    between atoms: O_23  and  C_24
REMARK   11  A    between atoms: C_26  and  O_27
REMARK                            x       y       z     vdW  Elec       q    Type
REMARK                         _______ _______ _______ _____ _____    ______ ____
ROOT
ATOM      1  C   UNL     1       0.276   9.694  18.810  0.00  0.00    +0.000 C 
ATOM      2  C   UNL     1      -0.601   9.638  17.754  0.00  0.00    +0.000 C 
ATOM      3  C   UNL     1      -1.758  10.592  17.538  0.00  0.00    +0.000 C 
ATOM      4  C   UNL     1      -2.078  11.390  18.769  0.00  0.00    +0.000 C 
ATOM      5  C   UNL     1      -0.706  11.857  19.285  0.00  0.00    +0.000 A 
ATOM      6  C   UNL     1      -0.091  10.797  19.913  0.00  0.00    +0.000 A 
ATOM      7  C   UNL     1      -0.388  10.894  21.343  0.00  0.00    +0.000 A 
ATOM      8  C   UNL     1      -0.941  12.126  21.939  0.00  0.00    +0.000 A 
ATOM      9  C   UNL     1      -0.957  13.301  21.171  0.00  0.00    +0.000 A 
ATOM     10  C   UNL     1      -0.660  13.126  19.843  0.00  0.00    +0.000 A 
ENDROOT
BRANCH   1  11
ATOM     11  C   UNL     1       1.718   9.346  18.251  0.00  0.00    +0.000 C 
ATOM     12  O   UNL     1       2.220  10.170  17.477  0.00  0.00    +0.000 OA
BRANCH  11  16
ATOM     13  C   UNL     1       3.809   5.367  18.945  0.00  0.00    +0.000 A 
ATOM     14  C   UNL     1       2.866   5.907  19.799  0.00  0.00    +0.000 A 
ATOM     15  C   UNL     1       2.236   7.163  19.542  0.00  0.00    +0.000 A 
ATOM     16  C   UNL     1       2.513   7.961  18.407  0.00  0.00    +0.000 A 
ATOM     17  C   UNL     1       3.457   7.383  17.532  0.00  0.00    +0.000 A 
ATOM     18  C   UNL     1       4.101   6.114  17.801  0.00  0.00    +0.000 A 
BRANCH  13  20
ATOM     19  C   UNL     1       3.704   2.908  19.019  0.00  0.00    +0.000 C 
ATOM     20  O   UNL     1       4.314   4.172  19.344  0.00  0.00    +0.000 OA
ENDBRANCH  13  20
BRANCH  18  21
ATOM     21  O   UNL     1       5.029   5.633  16.907  0.00  0.00    +0.000 OA
ATOM     22  H   UNL     1       5.920   5.922  17.172  0.00  0.00    +0.000 HD
ENDBRANCH  18  21
ENDBRANCH  11  16
ENDBRANCH   1  11
BRANCH   8  23
ATOM     23  O   UNL     1      -1.543  12.312  23.148  0.00  0.00    +0.000 OA
ATOM     24  C   UNL     1      -2.888  12.124  23.469  0.00  0.00    +0.000 C 
ENDBRANCH   8  23
BRANCH   9  25
ATOM     25  O   UNL     1      -1.219  14.600  21.483  0.00  0.00    +0.000 OA
ATOM     26  C   UNL     1      -2.487  15.235  21.419  0.00  0.00    +0.000 C 
ENDBRANCH   9  25
BRANCH  10  27
ATOM     27  O   UNL     1      -0.199  14.174  19.086  0.00  0.00    +0.000 OA
ATOM     28  C   UNL     1       1.165  13.902  18.728  0.00  0.00    +0.000 C 
ENDBRANCH  10  27
TORSDOF 7
ENDMDL
