MODEL 1
REMARK VINA RESULT:      -8.5      0.000      0.000
REMARK  Name = 
REMARK  5 active torsions:
REMARK  status: ('A' for Active; 'I' for Inactive)
REMARK    1  A    between atoms: C_1  and  C_2
REMARK    2  A    between atoms: C_2  and  C_3
REMARK    3  A    between atoms: C_3  and  C_4
REMARK    4  A    between atoms: C_4  and  N_5
REMARK    5  A    between atoms: N_5  and  C_6
REMARK                            x       y       z     vdW  Elec       q    Type
REMARK                         _______ _______ _______ _____ _____    ______ ____
ROOT
ATOM      1  C   UNL     1       5.957   4.730  15.100  0.00  0.00    +0.000 A 
ATOM      2  N   UNL     1       7.122   5.428  15.117  0.00  0.00    +0.000 NA
ATOM      3  N   UNL     1       7.645   5.911  16.241  0.00  0.00    +0.000 NA
ATOM      4  C   UNL     1       7.065   5.700  17.449  0.00  0.00    +0.000 A 
ATOM      5 CL   UNL     1       7.874   6.351  18.872  0.00  0.00    +0.000 Cl
ATOM      6  C   UNL     1       5.883   4.945  17.524  0.00  0.00    +0.000 A 
ATOM      7  C   UNL     1       5.287   4.625  18.760  0.00  0.00    +0.000 A 
ATOM      8  C   UNL     1       4.152   3.804  18.812  0.00  0.00    +0.000 A 
ATOM      9  C   UNL     1       3.600   3.414  20.043  0.00  0.00    +0.000 A 
ATOM     10  C   UNL     1       2.492   2.561  20.078  0.00  0.00    +0.000 A 
ATOM     11  C   UNL     1       1.915   2.107  18.890  0.00  0.00    +0.000 A 
ATOM     12  C   UNL     1       2.446   2.498  17.660  0.00  0.00    +0.000 A 
ATOM     13  C   UNL     1       3.570   3.337  17.615  0.00  0.00    +0.000 A 
ATOM     14  C   UNL     1       4.132   3.681  16.386  0.00  0.00    +0.000 A 
ATOM     15  C   UNL     1       5.301   4.467  16.322  0.00  0.00    +0.000 A 
ENDROOT
BRANCH   1  16
ATOM     16  N   UNL     1       5.475   4.208  13.864  0.00  0.00    +0.000 N 
ATOM     17  H   UNL     1       4.473   4.027  13.713  0.00  0.00    +0.000 HD
BRANCH  16  18
ATOM     18  C   UNL     1       6.384   3.718  12.850  0.00  0.00    +0.000 C 
BRANCH  18  19
ATOM     19  C   UNL     1       5.601   2.923  11.782  0.00  0.00    +0.000 C 
BRANCH  19  21
ATOM     20  C   UNL     1       3.598   3.623  10.384  0.00  0.00    +0.000 C 
ATOM     21  C   UNL     1       4.102   3.287  11.784  0.00  0.00    +0.000 C 
ENDBRANCH  19  21
ENDBRANCH  18  19
ENDBRANCH  16  18
ENDBRANCH   1  16
TORSDOF 4
ENDMDL
MODEL 2
REMARK VINA RESULT:      -8.5      1.185      1.207
REMARK  Name = 
REMARK  5 active torsions:
REMARK  status: ('A' for Active; 'I' for Inactive)
REMARK    1  A    between atoms: C_1  and  C_2
REMARK    2  A    between atoms: C_2  and  C_3
REMARK    3  A    between atoms: C_3  and  C_4
REMARK    4  A    between atoms: C_4  and  N_5
REMARK    5  A    between atoms: N_5  and  C_6
REMARK                            x       y       z     vdW  Elec       q    Type
REMARK                         _______ _______ _______ _____ _____    ______ ____
ROOT
ATOM      1  C   UNL     1       6.248   4.345  15.072  0.00  0.00    +0.000 A 
ATOM      2  N   UNL     1       7.406   5.049  14.970  0.00  0.00    +0.000 NA
ATOM      3  N   UNL     1       7.697   6.059  15.785  0.00  0.00    +0.000 NA
ATOM      4  C   UNL     1       6.873   6.423  16.798  0.00  0.00    +0.000 A 
ATOM      5 CL   UNL     1       7.386   7.747  17.839  0.00  0.00    +0.000 Cl
ATOM      6  C   UNL     1       5.678   5.713  17.003  0.00  0.00    +0.000 A 
ATOM      7  C   UNL     1       4.827   5.995  18.090  0.00  0.00    +0.000 A 
ATOM      8  C   UNL     1       3.681   5.220  18.318  0.00  0.00    +0.000 A 
ATOM      9  C   UNL     1       2.873   5.442  19.445  0.00  0.00    +0.000 A 
ATOM     10  C   UNL     1       1.755   4.633  19.678  0.00  0.00    +0.000 A 
ATOM     11  C   UNL     1       1.425   3.613  18.783  0.00  0.00    +0.000 A 
ATOM     12  C   UNL     1       2.213   3.391  17.653  0.00  0.00    +0.000 A 
ATOM     13  C   UNL     1       3.347   4.183  17.421  0.00  0.00    +0.000 A 
ATOM     14  C   UNL     1       4.164   3.924  16.321  0.00  0.00    +0.000 A 
ATOM     15  C   UNL     1       5.344   4.665  16.108  0.00  0.00    +0.000 A 
ENDROOT
BRANCH   1  16
ATOM     16  N   UNL     1       6.019   3.249  14.189  0.00  0.00    +0.000 N 
ATOM     17  H   UNL     1       5.921   2.288  14.543  0.00  0.00    +0.000 HD
BRANCH  16  18
ATOM     18  C   UNL     1       6.119   3.406  12.754  0.00  0.00    +0.000 C 
BRANCH  18  19
ATOM     19  C   UNL     1       4.791   3.957  12.190  0.00  0.00    +0.000 C 
BRANCH  19  21
ATOM     20  C   UNL     1       3.248   3.661  10.193  0.00  0.00    +0.000 C 
ATOM     21  C   UNL     1       4.123   2.956  11.225  0.00  0.00    +0.000 C 
ENDBRANCH  19  21
ENDBRANCH  18  19
ENDBRANCH  16  18
ENDBRANCH   1  16
TORSDOF 4
ENDMDL
MODEL 3
REMARK VINA RESULT:      -8.3      1.266      1.442
REMARK  Name = 
REMARK  5 active torsions:
REMARK  status: ('A' for Active; 'I' for Inactive)
REMARK    1  A    between atoms: C_1  and  C_2
REMARK    2  A    between atoms: C_2  and  C_3
REMARK    3  A    between atoms: C_3  and  C_4
REMARK    4  A    between atoms: C_4  and  N_5
REMARK    5  A    between atoms: N_5  and  C_6
REMARK                            x       y       z     vdW  Elec       q    Type
REMARK                         _______ _______ _______ _____ _____    ______ ____
ROOT
ATOM      1  C   UNL     1       6.217   3.981  15.948  0.00  0.00    +0.000 A 
ATOM      2  N   UNL     1       7.517   4.328  16.133  0.00  0.00    +0.000 NA
ATOM      3  N   UNL     1       7.948   4.893  17.259  0.00  0.00    +0.000 NA
ATOM      4  C   UNL     1       7.121   5.119  18.309  0.00  0.00    +0.000 A 
ATOM      5 CL   UNL     1       7.816   5.831  19.762  0.00  0.00    +0.000 Cl
ATOM      6  C   UNL     1       5.771   4.744  18.216  0.00  0.00    +0.000 A 
ATOM      7  C   UNL     1       4.888   4.879  19.306  0.00  0.00    +0.000 A 
ATOM      8  C   UNL     1       3.566   4.424  19.214  0.00  0.00    +0.000 A 
ATOM      9  C   UNL     1       2.704   4.481  20.321  0.00  0.00    +0.000 A 
ATOM     10  C   UNL     1       1.399   3.985  20.223  0.00  0.00    +0.000 A 
ATOM     11  C   UNL     1       0.939   3.449  19.019  0.00  0.00    +0.000 A 
ATOM     12  C   UNL     1       1.781   3.398  17.907  0.00  0.00    +0.000 A 
ATOM     13  C   UNL     1       3.098   3.874  18.001  0.00  0.00    +0.000 A 
ATOM     14  C   UNL     1       3.955   3.773  16.906  0.00  0.00    +0.000 A 
ATOM     15  C   UNL     1       5.300   4.183  17.001  0.00  0.00    +0.000 A 
ENDROOT
BRANCH   1  16
ATOM     16  N   UNL     1       5.833   3.345  14.731  0.00  0.00    +0.000 N 
ATOM     17  H   UNL     1       5.843   2.320  14.637  0.00  0.00    +0.000 HD
BRANCH  16  18
ATOM     18  C   UNL     1       5.611   4.107  13.521  0.00  0.00    +0.000 C 
BRANCH  18  19
ATOM     19  C   UNL     1       6.386   3.469  12.348  0.00  0.00    +0.000 C 
BRANCH  19  21
ATOM     20  C   UNL     1       6.351   1.231  11.145  0.00  0.00    +0.000 C 
ATOM     21  C   UNL     1       5.527   2.435  11.592  0.00  0.00    +0.000 C 
ENDBRANCH  19  21
ENDBRANCH  18  19
ENDBRANCH  16  18
ENDBRANCH   1  16
TORSDOF 4
ENDMDL
MODEL 4
REMARK VINA RESULT:      -8.3      1.262      1.562
REMARK  Name = 
REMARK  5 active torsions:
REMARK  status: ('A' for Active; 'I' for Inactive)
REMARK    1  A    between atoms: C_1  and  C_2
REMARK    2  A    between atoms: C_2  and  C_3
REMARK    3  A    between atoms: C_3  and  C_4
REMARK    4  A    between atoms: C_4  and  N_5
REMARK    5  A    between atoms: N_5  and  C_6
REMARK                            x       y       z     vdW  Elec       q    Type
REMARK                         _______ _______ _______ _____ _____    ______ ____
ROOT
ATOM      1  C   UNL     1       6.291   4.538  15.078  0.00  0.00    +0.000 A 
ATOM      2  N   UNL     1       7.475   5.200  15.009  0.00  0.00    +0.000 NA
ATOM      3  N   UNL     1       7.819   6.135  15.891  0.00  0.00    +0.000 NA
ATOM      4  C   UNL     1       7.024   6.456  16.942  0.00  0.00    +0.000 A 
ATOM      5 CL   UNL     1       7.606   7.677  18.068  0.00  0.00    +0.000 Cl
ATOM      6  C   UNL     1       5.804   5.781  17.113  0.00  0.00    +0.000 A 
ATOM      7  C   UNL     1       4.980   6.015  18.232  0.00  0.00    +0.000 A 
ATOM      8  C   UNL     1       3.806   5.272  18.421  0.00  0.00    +0.000 A 
ATOM      9  C   UNL     1       3.024   5.442  19.575  0.00  0.00    +0.000 A 
ATOM     10  C   UNL     1       1.877   4.663  19.767  0.00  0.00    +0.000 A 
ATOM     11  C   UNL     1       1.493   3.726  18.805  0.00  0.00    +0.000 A 
ATOM     12  C   UNL     1       2.256   3.557  17.649  0.00  0.00    +0.000 A 
ATOM     13  C   UNL     1       3.418   4.319  17.456  0.00  0.00    +0.000 A 
ATOM     14  C   UNL     1       4.209   4.109  16.327  0.00  0.00    +0.000 A 
ATOM     15  C   UNL     1       5.415   4.816  16.149  0.00  0.00    +0.000 A 
ENDROOT
BRANCH   1  16
ATOM     16  N   UNL     1       6.005   3.520  14.121  0.00  0.00    +0.000 N 
ATOM     17  H   UNL     1       5.707   2.580  14.412  0.00  0.00    +0.000 HD
BRANCH  16  18
ATOM     18  C   UNL     1       6.317   3.698  12.719  0.00  0.00    +0.000 C 
BRANCH  18  19
ATOM     19  C   UNL     1       5.271   2.965  11.850  0.00  0.00    +0.000 C 
BRANCH  19  21
ATOM     20  C   UNL     1       7.280   1.691  10.957  0.00  0.00    +0.000 C 
ATOM     21  C   UNL     1       5.805   1.612  11.336  0.00  0.00    +0.000 C 
ENDBRANCH  19  21
ENDBRANCH  18  19
ENDBRANCH  16  18
ENDBRANCH   1  16
TORSDOF 4
ENDMDL
MODEL 5
REMARK VINA RESULT:      -8.2      2.838      5.467
REMARK  Name = 
REMARK  5 active torsions:
REMARK  status: ('A' for Active; 'I' for Inactive)
REMARK    1  A    between atoms: C_1  and  C_2
REMARK    2  A    between atoms: C_2  and  C_3
REMARK    3  A    between atoms: C_3  and  C_4
REMARK    4  A    between atoms: C_4  and  N_5
REMARK    5  A    between atoms: N_5  and  C_6
REMARK                            x       y       z     vdW  Elec       q    Type
REMARK                         _______ _______ _______ _____ _____    ______ ____
ROOT
ATOM      1  C   UNL     1       7.038   6.279  17.101  0.00  0.00    +0.000 A 
ATOM      2  N   UNL     1       7.675   6.153  15.908  0.00  0.00    +0.000 NA
ATOM      3  N   UNL     1       7.246   5.327  14.956  0.00  0.00    +0.000 NA
ATOM      4  C   UNL     1       6.118   4.589  15.104  0.00  0.00    +0.000 A 
ATOM      5 CL   UNL     1       5.626   3.566  13.758  0.00  0.00    +0.000 Cl
ATOM      6  C   UNL     1       5.373   4.698  16.290  0.00  0.00    +0.000 A 
ATOM      7  C   UNL     1       4.151   4.019  16.460  0.00  0.00    +0.000 A 
ATOM      8  C   UNL     1       3.387   4.206  17.621  0.00  0.00    +0.000 A 
ATOM      9  C   UNL     1       2.130   3.597  17.763  0.00  0.00    +0.000 A 
ATOM     10  C   UNL     1       1.363   3.827  18.910  0.00  0.00    +0.000 A 
ATOM     11  C   UNL     1       1.849   4.649  19.930  0.00  0.00    +0.000 A 
ATOM     12  C   UNL     1       3.102   5.250  19.805  0.00  0.00    +0.000 A 
ATOM     13  C   UNL     1       3.871   5.042  18.650  0.00  0.00    +0.000 A 
ATOM     14  C   UNL     1       5.098   5.688  18.504  0.00  0.00    +0.000 A 
ATOM     15  C   UNL     1       5.853   5.544  17.322  0.00  0.00    +0.000 A 
ENDROOT
BRANCH   1  16
ATOM     16  N   UNL     1       7.531   7.211  18.059  0.00  0.00    +0.000 N 
ATOM     17  H   UNL     1       7.564   6.982  19.062  0.00  0.00    +0.000 HD
BRANCH  16  18
ATOM     18  C   UNL     1       7.813   8.584  17.697  0.00  0.00    +0.000 C 
BRANCH  18  19
ATOM     19  C   UNL     1       8.746   9.225  18.747  0.00  0.00    +0.000 C 
BRANCH  19  21
ATOM     20  C   UNL     1      10.293  11.185  19.218  0.00  0.00    +0.000 C 
ATOM     21  C   UNL     1       9.158  10.657  18.347  0.00  0.00    +0.000 C 
ENDBRANCH  19  21
ENDBRANCH  18  19
ENDBRANCH  16  18
ENDBRANCH   1  16
TORSDOF 4
ENDMDL
MODEL 6
REMARK VINA RESULT:      -7.9      1.397      1.774
REMARK  Name = 
REMARK  5 active torsions:
REMARK  status: ('A' for Active; 'I' for Inactive)
REMARK    1  A    between atoms: C_1  and  C_2
REMARK    2  A    between atoms: C_2  and  C_3
REMARK    3  A    between atoms: C_3  and  C_4
REMARK    4  A    between atoms: C_4  and  N_5
REMARK    5  A    between atoms: N_5  and  C_6
REMARK                            x       y       z     vdW  Elec       q    Type
REMARK                         _______ _______ _______ _____ _____    ______ ____
ROOT
ATOM      1  C   UNL     1       6.125   3.991  15.996  0.00  0.00    +0.000 A 
ATOM      2  N   UNL     1       7.424   4.351  16.164  0.00  0.00    +0.000 NA
ATOM      3  N   UNL     1       7.864   4.918  17.285  0.00  0.00    +0.000 NA
ATOM      4  C   UNL     1       7.049   5.134  18.347  0.00  0.00    +0.000 A 
ATOM      5 CL   UNL     1       7.756   5.851  19.792  0.00  0.00    +0.000 Cl
ATOM      6  C   UNL     1       5.701   4.745  18.271  0.00  0.00    +0.000 A 
ATOM      7  C   UNL     1       4.833   4.868  19.374  0.00  0.00    +0.000 A 
ATOM      8  C   UNL     1       3.514   4.399  19.299  0.00  0.00    +0.000 A 
ATOM      9  C   UNL     1       2.667   4.444  20.418  0.00  0.00    +0.000 A 
ATOM     10  C   UNL     1       1.367   3.935  20.337  0.00  0.00    +0.000 A 
ATOM     11  C   UNL     1       0.895   3.396  19.138  0.00  0.00    +0.000 A 
ATOM     12  C   UNL     1       1.723   3.357  18.015  0.00  0.00    +0.000 A 
ATOM     13  C   UNL     1       3.035   3.847  18.092  0.00  0.00    +0.000 A 
ATOM     14  C   UNL     1       3.878   3.756  16.984  0.00  0.00    +0.000 A 
ATOM     15  C   UNL     1       5.220   4.181  17.062  0.00  0.00    +0.000 A 
ENDROOT
BRANCH   1  16
ATOM     16  N   UNL     1       5.731   3.352  14.784  0.00  0.00    +0.000 N 
ATOM     17  H   UNL     1       5.713   2.327  14.700  0.00  0.00    +0.000 HD
BRANCH  16  18
ATOM     18  C   UNL     1       5.539   4.107  13.564  0.00  0.00    +0.000 C 
BRANCH  18  19
ATOM     19  C   UNL     1       6.215   3.380  12.382  0.00  0.00    +0.000 C 
BRANCH  19  21
ATOM     20  C   UNL     1       7.862   5.292  12.677  0.00  0.00    +0.000 C 
ATOM     21  C   UNL     1       7.292   4.258  11.712  0.00  0.00    +0.000 C 
ENDBRANCH  19  21
ENDBRANCH  18  19
ENDBRANCH  16  18
ENDBRANCH   1  16
TORSDOF 4
ENDMDL
MODEL 7
REMARK VINA RESULT:      -7.8      2.146      5.937
REMARK  Name = 
REMARK  5 active torsions:
REMARK  status: ('A' for Active; 'I' for Inactive)
REMARK    1  A    between atoms: C_1  and  C_2
REMARK    2  A    between atoms: C_2  and  C_3
REMARK    3  A    between atoms: C_3  and  C_4
REMARK    4  A    between atoms: C_4  and  N_5
REMARK    5  A    between atoms: N_5  and  C_6
REMARK                            x       y       z     vdW  Elec       q    Type
REMARK                         _______ _______ _______ _____ _____    ______ ____
ROOT
ATOM      1  C   UNL     1       4.465   3.970  18.076  0.00  0.00    +0.000 A 
ATOM      2  N   UNL     1       4.731   4.576  19.262  0.00  0.00    +0.000 NA
ATOM      3  N   UNL     1       5.806   5.340  19.444  0.00  0.00    +0.000 NA
ATOM      4  C   UNL     1       6.682   5.595  18.441  0.00  0.00    +0.000 A 
ATOM      5 CL   UNL     1       8.042   6.657  18.789  0.00  0.00    +0.000 Cl
ATOM      6  C   UNL     1       6.451   5.046  17.168  0.00  0.00    +0.000 A 
ATOM      7  C   UNL     1       7.282   5.347  16.071  0.00  0.00    +0.000 A 
ATOM      8  C   UNL     1       6.985   4.849  14.794  0.00  0.00    +0.000 A 
ATOM      9  C   UNL     1       7.761   5.211  13.681  0.00  0.00    +0.000 A 
ATOM     10  C   UNL     1       7.426   4.738  12.407  0.00  0.00    +0.000 A 
ATOM     11  C   UNL     1       6.331   3.888  12.237  0.00  0.00    +0.000 A 
ATOM     12  C   UNL     1       5.560   3.512  13.338  0.00  0.00    +0.000 A 
ATOM     13  C   UNL     1       5.875   3.997  14.616  0.00  0.00    +0.000 A 
ATOM     14  C   UNL     1       5.070   3.664  15.705  0.00  0.00    +0.000 A 
ATOM     15  C   UNL     1       5.331   4.196  16.984  0.00  0.00    +0.000 A 
ENDROOT
BRANCH   1  16
ATOM     16  N   UNL     1       3.275   3.197  17.941  0.00  0.00    +0.000 N 
ATOM     17  H   UNL     1       3.293   2.254  17.528  0.00  0.00    +0.000 HD
BRANCH  16  18
ATOM     18  C   UNL     1       1.971   3.775  18.184  0.00  0.00    +0.000 C 
BRANCH  18  19
ATOM     19  C   UNL     1       1.151   2.853  19.113  0.00  0.00    +0.000 C 
BRANCH  19  21
ATOM     20  C   UNL     1       2.136   2.944  21.453  0.00  0.00    +0.000 C 
ATOM     21  C   UNL     1       1.025   3.440  20.533  0.00  0.00    +0.000 C 
ENDBRANCH  19  21
ENDBRANCH  18  19
ENDBRANCH  16  18
ENDBRANCH   1  16
TORSDOF 4
ENDMDL
MODEL 8
REMARK VINA RESULT:      -7.7      3.922      5.335
REMARK  Name = 
REMARK  5 active torsions:
REMARK  status: ('A' for Active; 'I' for Inactive)
REMARK    1  A    between atoms: C_1  and  C_2
REMARK    2  A    between atoms: C_2  and  C_3
REMARK    3  A    between atoms: C_3  and  C_4
REMARK    4  A    between atoms: C_4  and  N_5
REMARK    5  A    between atoms: N_5  and  C_6
REMARK                            x       y       z     vdW  Elec       q    Type
REMARK                         _______ _______ _______ _____ _____    ______ ____
ROOT
ATOM      1  C   UNL     1       3.881   3.871  17.710  0.00  0.00    +0.000 A 
ATOM      2  N   UNL     1       3.881   2.651  18.307  0.00  0.00    +0.000 NA
ATOM      3  N   UNL     1       3.414   2.463  19.539  0.00  0.00    +0.000 NA
ATOM      4  C   UNL     1       2.870   3.473  20.261  0.00  0.00    +0.000 A 
ATOM      5 CL   UNL     1       2.244   3.093  21.862  0.00  0.00    +0.000 Cl
ATOM      6  C   UNL     1       2.788   4.757  19.696  0.00  0.00    +0.000 A 
ATOM      7  C   UNL     1       2.156   5.822  20.369  0.00  0.00    +0.000 A 
ATOM      8  C   UNL     1       2.018   7.073  19.752  0.00  0.00    +0.000 A 
ATOM      9  C   UNL     1       1.318   8.115  20.382  0.00  0.00    +0.000 A 
ATOM     10  C   UNL     1       1.154   9.344  19.735  0.00  0.00    +0.000 A 
ATOM     11  C   UNL     1       1.700   9.550  18.465  0.00  0.00    +0.000 A 
ATOM     12  C   UNL     1       2.408   8.527  17.834  0.00  0.00    +0.000 A 
ATOM     13  C   UNL     1       2.561   7.283  18.466  0.00  0.00    +0.000 A 
ATOM     14  C   UNL     1       3.220   6.245  17.810  0.00  0.00    +0.000 A 
ATOM     15  C   UNL     1       3.325   4.969  18.401  0.00  0.00    +0.000 A 
ENDROOT
BRANCH   1  16
ATOM     16  N   UNL     1       4.362   3.993  16.374  0.00  0.00    +0.000 N 
ATOM     17  H   UNL     1       3.727   3.919  15.567  0.00  0.00    +0.000 HD
BRANCH  16  18
ATOM     18  C   UNL     1       5.780   4.019  16.083  0.00  0.00    +0.000 C 
BRANCH  18  19
ATOM     19  C   UNL     1       6.241   5.472  15.843  0.00  0.00    +0.000 C 
BRANCH  19  21
ATOM     20  C   UNL     1       7.596   4.870  17.907  0.00  0.00    +0.000 C 
ATOM     21  C   UNL     1       7.096   6.001  17.013  0.00  0.00    +0.000 C 
ENDBRANCH  19  21
ENDBRANCH  18  19
ENDBRANCH  16  18
ENDBRANCH   1  16
TORSDOF 4
ENDMDL
MODEL 9
REMARK VINA RESULT:      -7.6      3.944      6.233
REMARK  Name = 
REMARK  5 active torsions:
REMARK  status: ('A' for Active; 'I' for Inactive)
REMARK    1  A    between atoms: C_1  and  C_2
REMARK    2  A    between atoms: C_2  and  C_3
REMARK    3  A    between atoms: C_3  and  C_4
REMARK    4  A    between atoms: C_4  and  N_5
REMARK    5  A    between atoms: N_5  and  C_6
REMARK                            x       y       z     vdW  Elec       q    Type
REMARK                         _______ _______ _______ _____ _____    ______ ____
ROOT
ATOM      1  C   UNL     1       2.450   5.838  20.348  0.00  0.00    +0.000 A 
ATOM      2  N   UNL     1       1.599   6.843  20.684  0.00  0.00    +0.000 NA
ATOM      3  N   UNL     1       1.506   7.963  19.971  0.00  0.00    +0.000 NA
ATOM      4  C   UNL     1       2.227   8.153  18.838  0.00  0.00    +0.000 A 
ATOM      5 CL   UNL     1       1.986   9.657  17.955  0.00  0.00    +0.000 Cl
ATOM      6  C   UNL     1       3.094   7.141  18.395  0.00  0.00    +0.000 A 
ATOM      7  C   UNL     1       3.802   7.252  17.181  0.00  0.00    +0.000 A 
ATOM      8  C   UNL     1       4.600   6.194  16.722  0.00  0.00    +0.000 A 
ATOM      9  C   UNL     1       5.242   6.265  15.476  0.00  0.00    +0.000 A 
ATOM     10  C   UNL     1       6.002   5.184  15.014  0.00  0.00    +0.000 A 
ATOM     11  C   UNL     1       6.142   4.036  15.798  0.00  0.00    +0.000 A 
ATOM     12  C   UNL     1       5.518   3.959  17.044  0.00  0.00    +0.000 A 
ATOM     13  C   UNL     1       4.738   5.030  17.507  0.00  0.00    +0.000 A 
ATOM     14  C   UNL     1       4.070   4.928  18.727  0.00  0.00    +0.000 A 
ATOM     15  C   UNL     1       3.228   5.965  19.177  0.00  0.00    +0.000 A 
ENDROOT
BRANCH   1  16
ATOM     16  N   UNL     1       2.470   4.650  21.135  0.00  0.00    +0.000 N 
ATOM     17  H   UNL     1       3.316   4.359  21.645  0.00  0.00    +0.000 HD
BRANCH  16  18
ATOM     18  C   UNL     1       1.380   3.699  21.090  0.00  0.00    +0.000 C 
BRANCH  18  19
ATOM     19  C   UNL     1       1.787   2.471  20.247  0.00  0.00    +0.000 C 
BRANCH  19  21
ATOM     20  C   UNL     1       2.285   2.173  17.773  0.00  0.00    +0.000 C 
ATOM     21  C   UNL     1       1.234   2.557  18.809  0.00  0.00    +0.000 C 
ENDBRANCH  19  21
ENDBRANCH  18  19
ENDBRANCH  16  18
ENDBRANCH   1  16
TORSDOF 4
ENDMDL
