MODEL 1
REMARK VINA RESULT:      -8.3      0.000      0.000
REMARK  Name = 
REMARK  6 active torsions:
REMARK  status: ('A' for Active; 'I' for Inactive)
REMARK    1  A    between atoms: C_1  and  C_2
REMARK    2  A    between atoms: C_7  and  C_8
REMARK    3  A    between atoms: N_10  and  C_11
REMARK    4  A    between atoms: C_11  and  C_12
REMARK    5  A    between atoms: N_15  and  C_16
REMARK    6  A    between atoms: C_16  and  C_17
REMARK                            x       y       z     vdW  Elec       q    Type
REMARK                         _______ _______ _______ _____ _____    ______ ____
ROOT
ATOM      1  C   UNL     1       1.673   2.179  19.424  0.00  0.00    +0.000 C 
ATOM      2  C   UNL     1       2.441   2.091  20.736  0.00  0.00    +0.000 C 
ATOM      3  C   UNL     1       1.688   3.079  21.613  0.00  0.00    +0.000 C 
ATOM      4  N   UNL     1       1.394   4.225  20.731  0.00  0.00    +0.000 NA
ATOM      5  C   UNL     1       1.126   3.614  19.406  0.00  0.00    +0.000 C 
ENDROOT
BRANCH   1   6
ATOM      6  C   UNL     1       2.515   1.843  18.195  0.00  0.00    +0.000 C 
BRANCH   6   9
ATOM      7  C   UNL     1       4.081   3.663  17.573  0.00  0.00    +0.000 C 
ATOM      8  O   UNL     1       3.246   4.212  16.853  0.00  0.00    +0.000 OA
ATOM      9  N   UNL     1       3.818   2.490  18.244  0.00  0.00    +0.000 N 
ATOM     10  H   UNL     1       4.449   2.192  18.970  0.00  0.00    +0.000 HD
BRANCH   7  17
ATOM     11  C   UNL     1       6.335   4.001  15.399  0.00  0.00    +0.000 C 
ATOM     12  C   UNL     1       6.418   4.463  16.821  0.00  0.00    +0.000 A 
ATOM     13  C   UNL     1       7.573   5.138  17.225  0.00  0.00    +0.000 A 
ATOM     14  N   UNL     1       7.781   5.652  18.457  0.00  0.00    +0.000 NA
ATOM     15  C   UNL     1       6.787   5.504  19.351  0.00  0.00    +0.000 A 
ATOM     16  C   UNL     1       5.602   4.853  19.068  0.00  0.00    +0.000 A 
ATOM     17  C   UNL     1       5.408   4.313  17.788  0.00  0.00    +0.000 A 
ENDBRANCH   7  17
ENDBRANCH   6   9
ENDBRANCH   1   6
BRANCH   4  18
ATOM     18  C   UNL     1       2.555   5.141  20.683  0.00  0.00    +0.000 C 
BRANCH  18  19
ATOM     19  C   UNL     1       2.206   6.503  20.170  0.00  0.00    +0.000 A 
ATOM     20  N   UNL     1       2.466   6.981  18.968  0.00  0.00    +0.000 NA
ATOM     21  C   UNL     1       1.959   8.256  18.961  0.00  0.00    +0.000 A 
ATOM     22  C   UNL     1       1.967   9.215  17.938  0.00  0.00    +0.000 A 
ATOM     23  C   UNL     1       1.366  10.458  18.178  0.00  0.00    +0.000 A 
ATOM     24  C   UNL     1       0.772  10.738  19.411  0.00  0.00    +0.000 A 
ATOM     25  C   UNL     1       0.758   9.793  20.446  0.00  0.00    +0.000 A 
ATOM     26  C   UNL     1       1.365   8.564  20.179  0.00  0.00    +0.000 A 
ATOM     27  N   UNL     1       1.540   7.431  20.934  0.00  0.00    +0.000 N 
ATOM     28  H   UNL     1       1.222   7.282  21.881  0.00  0.00    +0.000 HD
ENDBRANCH  18  19
ENDBRANCH   4  18
TORSDOF 5
ENDMDL
MODEL 2
REMARK VINA RESULT:      -8.3      1.267      1.314
REMARK  Name = 
REMARK  6 active torsions:
REMARK  status: ('A' for Active; 'I' for Inactive)
REMARK    1  A    between atoms: C_1  and  C_2
REMARK    2  A    between atoms: C_7  and  C_8
REMARK    3  A    between atoms: N_10  and  C_11
REMARK    4  A    between atoms: C_11  and  C_12
REMARK    5  A    between atoms: N_15  and  C_16
REMARK    6  A    between atoms: C_16  and  C_17
REMARK                            x       y       z     vdW  Elec       q    Type
REMARK                         _______ _______ _______ _____ _____    ______ ____
ROOT
ATOM      1  C   UNL     1       1.772   2.790  18.491  0.00  0.00    +0.000 C 
ATOM      2  C   UNL     1       2.652   2.200  19.585  0.00  0.00    +0.000 C 
ATOM      3  C   UNL     1       1.839   2.485  20.837  0.00  0.00    +0.000 C 
ATOM      4  N   UNL     1       1.306   3.847  20.644  0.00  0.00    +0.000 NA
ATOM      5  C   UNL     1       1.021   3.932  19.192  0.00  0.00    +0.000 C 
ENDROOT
BRANCH   1   6
ATOM      6  C   UNL     1       2.549   3.250  17.259  0.00  0.00    +0.000 C 
BRANCH   6   9
ATOM      7  C   UNL     1       4.879   4.080  17.084  0.00  0.00    +0.000 C 
ATOM      8  O   UNL     1       5.206   3.172  16.319  0.00  0.00    +0.000 OA
ATOM      9  N   UNL     1       3.612   4.180  17.612  0.00  0.00    +0.000 N 
ATOM     10  H   UNL     1       3.338   5.038  18.063  0.00  0.00    +0.000 HD
BRANCH   7  17
ATOM     11  C   UNL     1       5.001   6.931  15.750  0.00  0.00    +0.000 C 
ATOM     12  C   UNL     1       5.923   6.427  16.816  0.00  0.00    +0.000 A 
ATOM     13  C   UNL     1       6.904   7.297  17.299  0.00  0.00    +0.000 A 
ATOM     14  N   UNL     1       7.781   7.007  18.286  0.00  0.00    +0.000 NA
ATOM     15  C   UNL     1       7.684   5.788  18.844  0.00  0.00    +0.000 A 
ATOM     16  C   UNL     1       6.757   4.843  18.447  0.00  0.00    +0.000 A 
ATOM     17  C   UNL     1       5.864   5.155  17.412  0.00  0.00    +0.000 A 
ENDBRANCH   7  17
ENDBRANCH   6   9
ENDBRANCH   1   6
BRANCH   4  18
ATOM     18  C   UNL     1       2.311   4.850  21.062  0.00  0.00    +0.000 C 
BRANCH  18  19
ATOM     19  C   UNL     1       2.146   6.168  20.372  0.00  0.00    +0.000 A 
ATOM     20  N   UNL     1       2.610   6.497  19.182  0.00  0.00    +0.000 NA
ATOM     21  C   UNL     1       2.209   7.793  18.975  0.00  0.00    +0.000 A 
ATOM     22  C   UNL     1       2.437   8.633  17.875  0.00  0.00    +0.000 A 
ATOM     23  C   UNL     1       1.907   9.931  17.902  0.00  0.00    +0.000 A 
ATOM     24  C   UNL     1       1.167  10.378  18.998  0.00  0.00    +0.000 A 
ATOM     25  C   UNL     1       0.933   9.552  20.106  0.00  0.00    +0.000 A 
ATOM     26  C   UNL     1       1.475   8.267  20.055  0.00  0.00    +0.000 A 
ATOM     27  N   UNL     1       1.452   7.213  20.934  0.00  0.00    +0.000 N 
ATOM     28  H   UNL     1       0.992   7.186  21.833  0.00  0.00    +0.000 HD
ENDBRANCH  18  19
ENDBRANCH   4  18
TORSDOF 5
ENDMDL
MODEL 3
REMARK VINA RESULT:      -8.2      0.580      1.279
REMARK  Name = 
REMARK  6 active torsions:
REMARK  status: ('A' for Active; 'I' for Inactive)
REMARK    1  A    between atoms: C_1  and  C_2
REMARK    2  A    between atoms: C_7  and  C_8
REMARK    3  A    between atoms: N_10  and  C_11
REMARK    4  A    between atoms: C_11  and  C_12
REMARK    5  A    between atoms: N_15  and  C_16
REMARK    6  A    between atoms: C_16  and  C_17
REMARK                            x       y       z     vdW  Elec       q    Type
REMARK                         _______ _______ _______ _____ _____    ______ ____
ROOT
ATOM      1  C   UNL     1       1.532   2.405  19.531  0.00  0.00    +0.000 C 
ATOM      2  C   UNL     1       2.656   2.298  20.553  0.00  0.00    +0.000 C 
ATOM      3  C   UNL     1       2.175   3.227  21.656  0.00  0.00    +0.000 C 
ATOM      4  N   UNL     1       1.606   4.392  20.951  0.00  0.00    +0.000 NA
ATOM      5  C   UNL     1       0.971   3.819  19.739  0.00  0.00    +0.000 C 
ENDROOT
BRANCH   1   6
ATOM      6  C   UNL     1       1.980   2.141  18.095  0.00  0.00    +0.000 C 
BRANCH   6   9
ATOM      7  C   UNL     1       3.661   3.840  17.431  0.00  0.00    +0.000 C 
ATOM      8  O   UNL     1       2.795   4.670  17.151  0.00  0.00    +0.000 OA
ATOM      9  N   UNL     1       3.352   2.574  17.874  0.00  0.00    +0.000 N 
ATOM     10  H   UNL     1       4.081   2.008  18.280  0.00  0.00    +0.000 HD
BRANCH   7  17
ATOM     11  C   UNL     1       5.384   4.005  14.799  0.00  0.00    +0.000 C 
ATOM     12  C   UNL     1       5.875   4.298  16.183  0.00  0.00    +0.000 A 
ATOM     13  C   UNL     1       7.198   4.719  16.334  0.00  0.00    +0.000 A 
ATOM     14  N   UNL     1       7.776   5.061  17.506  0.00  0.00    +0.000 NA
ATOM     15  C   UNL     1       7.002   4.997  18.604  0.00  0.00    +0.000 A 
ATOM     16  C   UNL     1       5.682   4.592  18.579  0.00  0.00    +0.000 A 
ATOM     17  C   UNL     1       5.102   4.226  17.355  0.00  0.00    +0.000 A 
ENDBRANCH   7  17
ENDBRANCH   6   9
ENDBRANCH   1   6
BRANCH   4  18
ATOM     18  C   UNL     1       2.679   5.350  20.604  0.00  0.00    +0.000 C 
BRANCH  18  19
ATOM     19  C   UNL     1       2.158   6.701  20.224  0.00  0.00    +0.000 A 
ATOM     20  N   UNL     1       1.445   7.511  20.983  0.00  0.00    +0.000 NA
ATOM     21  C   UNL     1       1.206   8.622  20.214  0.00  0.00    +0.000 A 
ATOM     22  C   UNL     1       0.491   9.787  20.526  0.00  0.00    +0.000 A 
ATOM     23  C   UNL     1       0.398  10.797  19.558  0.00  0.00    +0.000 A 
ATOM     24  C   UNL     1       1.004  10.646  18.309  0.00  0.00    +0.000 A 
ATOM     25  C   UNL     1       1.720   9.487  17.979  0.00  0.00    +0.000 A 
ATOM     26  C   UNL     1       1.794   8.497  18.961  0.00  0.00    +0.000 A 
ATOM     27  N   UNL     1       2.391   7.261  18.991  0.00  0.00    +0.000 N 
ATOM     28  H   UNL     1       2.930   6.833  18.252  0.00  0.00    +0.000 HD
ENDBRANCH  18  19
ENDBRANCH   4  18
TORSDOF 5
ENDMDL
MODEL 4
REMARK VINA RESULT:      -8.2      1.243      1.697
REMARK  Name = 
REMARK  6 active torsions:
REMARK  status: ('A' for Active; 'I' for Inactive)
REMARK    1  A    between atoms: C_1  and  C_2
REMARK    2  A    between atoms: C_7  and  C_8
REMARK    3  A    between atoms: N_10  and  C_11
REMARK    4  A    between atoms: C_11  and  C_12
REMARK    5  A    between atoms: N_15  and  C_16
REMARK    6  A    between atoms: C_16  and  C_17
REMARK                            x       y       z     vdW  Elec       q    Type
REMARK                         _______ _______ _______ _____ _____    ______ ____
ROOT
ATOM      1  C   UNL     1       1.982   2.127  19.401  0.00  0.00    +0.000 C 
ATOM      2  C   UNL     1       2.323   2.007  20.880  0.00  0.00    +0.000 C 
ATOM      3  C   UNL     1       1.286   2.914  21.522  0.00  0.00    +0.000 C 
ATOM      4  N   UNL     1       1.206   4.089  20.632  0.00  0.00    +0.000 NA
ATOM      5  C   UNL     1       1.384   3.535  19.268  0.00  0.00    +0.000 C 
ENDROOT
BRANCH   1   6
ATOM      6  C   UNL     1       3.173   1.890  18.475  0.00  0.00    +0.000 C 
BRANCH   6   9
ATOM      7  C   UNL     1       4.770   3.785  18.564  0.00  0.00    +0.000 C 
ATOM      8  O   UNL     1       5.297   3.367  19.595  0.00  0.00    +0.000 OA
ATOM      9  N   UNL     1       3.712   3.143  17.964  0.00  0.00    +0.000 N 
ATOM     10  H   UNL     1       3.450   3.404  17.026  0.00  0.00    +0.000 HD
BRANCH   7  17
ATOM     11  C   UNL     1       7.296   5.413  19.510  0.00  0.00    +0.000 C 
ATOM     12  C   UNL     1       6.454   5.728  18.313  0.00  0.00    +0.000 A 
ATOM     13  C   UNL     1       6.829   6.810  17.514  0.00  0.00    +0.000 A 
ATOM     14  N   UNL     1       6.201   7.195  16.381  0.00  0.00    +0.000 NA
ATOM     15  C   UNL     1       5.139   6.463  16.000  0.00  0.00    +0.000 A 
ATOM     16  C   UNL     1       4.673   5.374  16.710  0.00  0.00    +0.000 A 
ATOM     17  C   UNL     1       5.329   4.997  17.891  0.00  0.00    +0.000 A 
ENDBRANCH   7  17
ENDBRANCH   6   9
ENDBRANCH   1   6
BRANCH   4  18
ATOM     18  C   UNL     1       2.272   5.057  20.971  0.00  0.00    +0.000 C 
BRANCH  18  19
ATOM     19  C   UNL     1       2.084   6.390  20.316  0.00  0.00    +0.000 A 
ATOM     20  N   UNL     1       2.482   6.735  19.107  0.00  0.00    +0.000 NA
ATOM     21  C   UNL     1       2.087   8.040  18.947  0.00  0.00    +0.000 A 
ATOM     22  C   UNL     1       2.262   8.898  17.851  0.00  0.00    +0.000 A 
ATOM     23  C   UNL     1       1.751  10.201  17.932  0.00  0.00    +0.000 A 
ATOM     24  C   UNL     1       1.083  10.636  19.078  0.00  0.00    +0.000 A 
ATOM     25  C   UNL     1       0.902   9.793  20.183  0.00  0.00    +0.000 A 
ATOM     26  C   UNL     1       1.424   8.502  20.077  0.00  0.00    +0.000 A 
ATOM     27  N   UNL     1       1.438   7.432  20.937  0.00  0.00    +0.000 N 
ATOM     28  H   UNL     1       1.032   7.395  21.860  0.00  0.00    +0.000 HD
ENDBRANCH  18  19
ENDBRANCH   4  18
TORSDOF 5
ENDMDL
MODEL 5
REMARK VINA RESULT:      -7.9      2.098      6.611
REMARK  Name = 
REMARK  6 active torsions:
REMARK  status: ('A' for Active; 'I' for Inactive)
REMARK    1  A    between atoms: C_1  and  C_2
REMARK    2  A    between atoms: C_7  and  C_8
REMARK    3  A    between atoms: N_10  and  C_11
REMARK    4  A    between atoms: C_11  and  C_12
REMARK    5  A    between atoms: N_15  and  C_16
REMARK    6  A    between atoms: C_16  and  C_17
REMARK                            x       y       z     vdW  Elec       q    Type
REMARK                         _______ _______ _______ _____ _____    ______ ____
ROOT
ATOM      1  C   UNL     1       2.086   5.117  19.453  0.00  0.00    +0.000 C 
ATOM      2  C   UNL     1       1.421   4.558  18.202  0.00  0.00    +0.000 C 
ATOM      3  C   UNL     1       1.559   3.059  18.410  0.00  0.00    +0.000 C 
ATOM      4  N   UNL     1       2.917   2.873  18.957  0.00  0.00    +0.000 NA
ATOM      5  C   UNL     1       3.131   4.056  19.826  0.00  0.00    +0.000 C 
ENDROOT
BRANCH   1   6
ATOM      6  C   UNL     1       2.685   6.508  19.260  0.00  0.00    +0.000 C 
BRANCH   6   9
ATOM      7  C   UNL     1       1.499   8.615  19.812  0.00  0.00    +0.000 C 
ATOM      8  O   UNL     1       1.391   8.932  18.626  0.00  0.00    +0.000 OA
ATOM      9  N   UNL     1       2.138   7.464  20.212  0.00  0.00    +0.000 N 
ATOM     10  H   UNL     1       2.025   7.149  21.163  0.00  0.00    +0.000 HD
BRANCH   7  17
ATOM     11  C   UNL     1       0.936  11.706  19.578  0.00  0.00    +0.000 C 
ATOM     12  C   UNL     1       0.613  10.848  20.762  0.00  0.00    +0.000 A 
ATOM     13  C   UNL     1      -0.027  11.446  21.849  0.00  0.00    +0.000 A 
ATOM     14  N   UNL     1      -0.422  10.800  22.969  0.00  0.00    +0.000 NA
ATOM     15  C   UNL     1      -0.182   9.478  23.022  0.00  0.00    +0.000 A 
ATOM     16  C   UNL     1       0.447   8.779  22.010  0.00  0.00    +0.000 A 
ATOM     17  C   UNL     1       0.863   9.468  20.861  0.00  0.00    +0.000 A 
ENDBRANCH   7  17
ENDBRANCH   6   9
ENDBRANCH   1   6
BRANCH   4  18
ATOM     18  C   UNL     1       3.906   2.819  17.858  0.00  0.00    +0.000 C 
BRANCH  18  19
ATOM     19  C   UNL     1       4.884   3.951  17.891  0.00  0.00    +0.000 A 
ATOM     20  N   UNL     1       4.889   5.010  17.105  0.00  0.00    +0.000 NA
ATOM     21  C   UNL     1       5.960   5.765  17.510  0.00  0.00    +0.000 A 
ATOM     22  C   UNL     1       6.430   6.989  17.011  0.00  0.00    +0.000 A 
ATOM     23  C   UNL     1       7.555   7.570  17.611  0.00  0.00    +0.000 A 
ATOM     24  C   UNL     1       8.196   6.946  18.683  0.00  0.00    +0.000 A 
ATOM     25  C   UNL     1       7.742   5.722  19.192  0.00  0.00    +0.000 A 
ATOM     26  C   UNL     1       6.621   5.164  18.574  0.00  0.00    +0.000 A 
ATOM     27  N   UNL     1       5.917   4.006  18.795  0.00  0.00    +0.000 N 
ATOM     28  H   UNL     1       6.102   3.315  19.508  0.00  0.00    +0.000 HD
ENDBRANCH  18  19
ENDBRANCH   4  18
TORSDOF 5
ENDMDL
MODEL 6
REMARK VINA RESULT:      -7.9      2.190      6.715
REMARK  Name = 
REMARK  6 active torsions:
REMARK  status: ('A' for Active; 'I' for Inactive)
REMARK    1  A    between atoms: C_1  and  C_2
REMARK    2  A    between atoms: C_7  and  C_8
REMARK    3  A    between atoms: N_10  and  C_11
REMARK    4  A    between atoms: C_11  and  C_12
REMARK    5  A    between atoms: N_15  and  C_16
REMARK    6  A    between atoms: C_16  and  C_17
REMARK                            x       y       z     vdW  Elec       q    Type
REMARK                         _______ _______ _______ _____ _____    ______ ____
ROOT
ATOM      1  C   UNL     1       1.859   5.091  20.664  0.00  0.00    +0.000 C 
ATOM      2  C   UNL     1       1.012   4.216  19.749  0.00  0.00    +0.000 C 
ATOM      3  C   UNL     1       1.406   2.816  20.191  0.00  0.00    +0.000 C 
ATOM      4  N   UNL     1       2.866   2.880  20.401  0.00  0.00    +0.000 NA
ATOM      5  C   UNL     1       3.102   4.236  20.951  0.00  0.00    +0.000 C 
ENDROOT
BRANCH   1   6
ATOM      6  C   UNL     1       2.194   6.457  20.070  0.00  0.00    +0.000 C 
BRANCH   6   9
ATOM      7  C   UNL     1       1.242   8.732  20.333  0.00  0.00    +0.000 C 
ATOM      8  O   UNL     1       1.339   8.974  19.129  0.00  0.00    +0.000 OA
ATOM      9  N   UNL     1       1.658   7.541  20.882  0.00  0.00    +0.000 N 
ATOM     10  H   UNL     1       1.376   7.311  21.821  0.00  0.00    +0.000 HD
BRANCH   7  17
ATOM     11  C   UNL     1       1.096  11.838  19.831  0.00  0.00    +0.000 C 
ATOM     12  C   UNL     1       0.527  11.118  21.015  0.00  0.00    +0.000 A 
ATOM     13  C   UNL     1      -0.163  11.869  21.969  0.00  0.00    +0.000 A 
ATOM     14  N   UNL     1      -0.768  11.363  23.067  0.00  0.00    +0.000 NA
ATOM     15  C   UNL     1      -0.700  10.031  23.235  0.00  0.00    +0.000 A 
ATOM     16  C   UNL     1      -0.042   9.187  22.361  0.00  0.00    +0.000 A 
ATOM     17  C   UNL     1       0.592   9.731  21.234  0.00  0.00    +0.000 A 
ENDBRANCH   7  17
ENDBRANCH   6   9
ENDBRANCH   1   6
BRANCH   4  18
ATOM     18  C   UNL     1       3.574   2.681  19.117  0.00  0.00    +0.000 C 
BRANCH  18  19
ATOM     19  C   UNL     1       4.562   3.765  18.818  0.00  0.00    +0.000 A 
ATOM     20  N   UNL     1       5.731   3.946  19.403  0.00  0.00    +0.000 NA
ATOM     21  C   UNL     1       6.276   5.052  18.800  0.00  0.00    +0.000 A 
ATOM     22  C   UNL     1       7.503   5.687  19.042  0.00  0.00    +0.000 A 
ATOM     23  C   UNL     1       7.839   6.811  18.275  0.00  0.00    +0.000 A 
ATOM     24  C   UNL     1       6.971   7.289  17.291  0.00  0.00    +0.000 A 
ATOM     25  C   UNL     1       5.741   6.669  17.038  0.00  0.00    +0.000 A 
ATOM     26  C   UNL     1       5.430   5.554  17.818  0.00  0.00    +0.000 A 
ATOM     27  N   UNL     1       4.342   4.717  17.853  0.00  0.00    +0.000 N 
ATOM     28  H   UNL     1       3.524   4.767  17.263  0.00  0.00    +0.000 HD
ENDBRANCH  18  19
ENDBRANCH   4  18
TORSDOF 5
ENDMDL
MODEL 7
REMARK VINA RESULT:      -7.9      0.930      1.983
REMARK  Name = 
REMARK  6 active torsions:
REMARK  status: ('A' for Active; 'I' for Inactive)
REMARK    1  A    between atoms: C_1  and  C_2
REMARK    2  A    between atoms: C_7  and  C_8
REMARK    3  A    between atoms: N_10  and  C_11
REMARK    4  A    between atoms: C_11  and  C_12
REMARK    5  A    between atoms: N_15  and  C_16
REMARK    6  A    between atoms: C_16  and  C_17
REMARK                            x       y       z     vdW  Elec       q    Type
REMARK                         _______ _______ _______ _____ _____    ______ ____
ROOT
ATOM      1  C   UNL     1       1.602   2.778  19.471  0.00  0.00    +0.000 C 
ATOM      2  C   UNL     1       2.903   2.674  20.257  0.00  0.00    +0.000 C 
ATOM      3  C   UNL     1       2.583   3.473  21.510  0.00  0.00    +0.000 C 
ATOM      4  N   UNL     1       1.825   4.645  21.031  0.00  0.00    +0.000 NA
ATOM      5  C   UNL     1       1.009   4.126  19.908  0.00  0.00    +0.000 C 
ENDROOT
BRANCH   1   6
ATOM      6  C   UNL     1       1.787   2.665  17.960  0.00  0.00    +0.000 C 
BRANCH   6   9
ATOM      7  C   UNL     1       3.622   4.202  17.310  0.00  0.00    +0.000 C 
ATOM      8  O   UNL     1       2.886   5.190  17.352  0.00  0.00    +0.000 OA
ATOM      9  N   UNL     1       3.163   2.930  17.566  0.00  0.00    +0.000 N 
ATOM     10  H   UNL     1       3.832   2.192  17.719  0.00  0.00    +0.000 HD
BRANCH   7  17
ATOM     11  C   UNL     1       5.790   5.100  19.411  0.00  0.00    +0.000 C 
ATOM     12  C   UNL     1       6.049   4.786  17.970  0.00  0.00    +0.000 A 
ATOM     13  C   UNL     1       7.366   4.855  17.510  0.00  0.00    +0.000 A 
ATOM     14  N   UNL     1       7.767   4.561  16.254  0.00  0.00    +0.000 NA
ATOM     15  C   UNL     1       6.815   4.163  15.392  0.00  0.00    +0.000 A 
ATOM     16  C   UNL     1       5.479   4.060  15.731  0.00  0.00    +0.000 A 
ATOM     17  C   UNL     1       5.079   4.383  17.036  0.00  0.00    +0.000 A 
ENDBRANCH   7  17
ENDBRANCH   6   9
ENDBRANCH   1   6
BRANCH   4  18
ATOM     18  C   UNL     1       2.756   5.705  20.585  0.00  0.00    +0.000 C 
BRANCH  18  19
ATOM     19  C   UNL     1       2.072   7.006  20.304  0.00  0.00    +0.000 A 
ATOM     20  N   UNL     1       1.295   7.681  21.129  0.00  0.00    +0.000 NA
ATOM     21  C   UNL     1       0.906   8.800  20.438  0.00  0.00    +0.000 A 
ATOM     22  C   UNL     1       0.072   9.853  20.839  0.00  0.00    +0.000 A 
ATOM     23  C   UNL     1      -0.167  10.901  19.939  0.00  0.00    +0.000 A 
ATOM     24  C   UNL     1       0.412  10.896  18.668  0.00  0.00    +0.000 A 
ATOM     25  C   UNL     1       1.245   9.851  18.249  0.00  0.00    +0.000 A 
ATOM     26  C   UNL     1       1.464   8.820  19.165  0.00  0.00    +0.000 A 
ATOM     27  N   UNL     1       2.200   7.662  19.103  0.00  0.00    +0.000 N 
ATOM     28  H   UNL     1       2.760   7.344  18.326  0.00  0.00    +0.000 HD
ENDBRANCH  18  19
ENDBRANCH   4  18
TORSDOF 5
ENDMDL
MODEL 8
REMARK VINA RESULT:      -7.9      1.150      1.190
REMARK  Name = 
REMARK  6 active torsions:
REMARK  status: ('A' for Active; 'I' for Inactive)
REMARK    1  A    between atoms: C_1  and  C_2
REMARK    2  A    between atoms: C_7  and  C_8
REMARK    3  A    between atoms: N_10  and  C_11
REMARK    4  A    between atoms: C_11  and  C_12
REMARK    5  A    between atoms: N_15  and  C_16
REMARK    6  A    between atoms: C_16  and  C_17
REMARK                            x       y       z     vdW  Elec       q    Type
REMARK                         _______ _______ _______ _____ _____    ______ ____
ROOT
ATOM      1  C   UNL     1       2.087   2.311  19.195  0.00  0.00    +0.000 C 
ATOM      2  C   UNL     1       2.322   2.511  20.686  0.00  0.00    +0.000 C 
ATOM      3  C   UNL     1       1.323   3.607  21.022  0.00  0.00    +0.000 C 
ATOM      4  N   UNL     1       1.397   4.550  19.889  0.00  0.00    +0.000 NA
ATOM      5  C   UNL     1       1.616   3.687  18.703  0.00  0.00    +0.000 C 
ENDROOT
BRANCH   1   6
ATOM      6  C   UNL     1       3.312   1.792  18.445  0.00  0.00    +0.000 C 
BRANCH   6   9
ATOM      7  C   UNL     1       5.095   3.514  18.525  0.00  0.00    +0.000 C 
ATOM      8  O   UNL     1       5.392   3.235  19.687  0.00  0.00    +0.000 OA
ATOM      9  N   UNL     1       4.077   2.879  17.851  0.00  0.00    +0.000 N 
ATOM     10  H   UNL     1       4.006   2.995  16.852  0.00  0.00    +0.000 HD
BRANCH   7  17
ATOM     11  C   UNL     1       5.751   3.451  15.444  0.00  0.00    +0.000 C 
ATOM     12  C   UNL     1       6.199   4.504  16.410  0.00  0.00    +0.000 A 
ATOM     13  C   UNL     1       6.940   5.579  15.912  0.00  0.00    +0.000 A 
ATOM     14  N   UNL     1       7.379   6.626  16.645  0.00  0.00    +0.000 NA
ATOM     15  C   UNL     1       7.061   6.625  17.952  0.00  0.00    +0.000 A 
ATOM     16  C   UNL     1       6.337   5.617  18.557  0.00  0.00    +0.000 A 
ATOM     17  C   UNL     1       5.902   4.530  17.784  0.00  0.00    +0.000 A 
ENDBRANCH   7  17
ENDBRANCH   6   9
ENDBRANCH   1   6
BRANCH   4  18
ATOM     18  C   UNL     1       2.514   5.498  20.088  0.00  0.00    +0.000 C 
BRANCH  18  19
ATOM     19  C   UNL     1       2.114   6.927  19.889  0.00  0.00    +0.000 A 
ATOM     20  N   UNL     1       2.226   7.627  18.777  0.00  0.00    +0.000 NA
ATOM     21  C   UNL     1       1.730   8.872  19.074  0.00  0.00    +0.000 A 
ATOM     22  C   UNL     1       1.617  10.007  18.258  0.00  0.00    +0.000 A 
ATOM     23  C   UNL     1       1.059  11.172  18.802  0.00  0.00    +0.000 A 
ATOM     24  C   UNL     1       0.625  11.204  20.128  0.00  0.00    +0.000 A 
ATOM     25  C   UNL     1       0.733  10.080  20.959  0.00  0.00    +0.000 A 
ATOM     26  C   UNL     1       1.294   8.934  20.392  0.00  0.00    +0.000 A 
ATOM     27  N   UNL     1       1.554   7.682  20.891  0.00  0.00    +0.000 N 
ATOM     28  H   UNL     1       1.355   7.351  21.825  0.00  0.00    +0.000 HD
ENDBRANCH  18  19
ENDBRANCH   4  18
TORSDOF 5
ENDMDL
MODEL 9
REMARK VINA RESULT:      -7.9      1.012      1.780
REMARK  Name = 
REMARK  6 active torsions:
REMARK  status: ('A' for Active; 'I' for Inactive)
REMARK    1  A    between atoms: C_1  and  C_2
REMARK    2  A    between atoms: C_7  and  C_8
REMARK    3  A    between atoms: N_10  and  C_11
REMARK    4  A    between atoms: C_11  and  C_12
REMARK    5  A    between atoms: N_15  and  C_16
REMARK    6  A    between atoms: C_16  and  C_17
REMARK                            x       y       z     vdW  Elec       q    Type
REMARK                         _______ _______ _______ _____ _____    ______ ____
ROOT
ATOM      1  C   UNL     1       2.224   2.369  19.730  0.00  0.00    +0.000 C 
ATOM      2  C   UNL     1       3.320   2.891  20.649  0.00  0.00    +0.000 C 
ATOM      3  C   UNL     1       2.595   3.980  21.424  0.00  0.00    +0.000 C 
ATOM      4  N   UNL     1       1.755   4.664  20.423  0.00  0.00    +0.000 NA
ATOM      5  C   UNL     1       1.311   3.584  19.509  0.00  0.00    +0.000 C 
ENDROOT
BRANCH   1   6
ATOM      6  C   UNL     1       2.749   1.767  18.428  0.00  0.00    +0.000 C 
BRANCH   6   9
ATOM      7  C   UNL     1       3.879   3.522  17.089  0.00  0.00    +0.000 C 
ATOM      8  O   UNL     1       2.816   3.924  16.614  0.00  0.00    +0.000 OA
ATOM      9  N   UNL     1       3.941   2.459  17.961  0.00  0.00    +0.000 N 
ATOM     10  H   UNL     1       4.794   2.297  18.474  0.00  0.00    +0.000 HD
BRANCH   7  17
ATOM     11  C   UNL     1       5.719   5.019  19.161  0.00  0.00    +0.000 C 
ATOM     12  C   UNL     1       5.970   4.914  17.689  0.00  0.00    +0.000 A 
ATOM     13  C   UNL     1       7.135   5.491  17.179  0.00  0.00    +0.000 A 
ATOM     14  N   UNL     1       7.524   5.445  15.886  0.00  0.00    +0.000 NA
ATOM     15  C   UNL     1       6.721   4.780  15.036  0.00  0.00    +0.000 A 
ATOM     16  C   UNL     1       5.543   4.172  15.423  0.00  0.00    +0.000 A 
ATOM     17  C   UNL     1       5.148   4.242  16.767  0.00  0.00    +0.000 A 
ENDBRANCH   7  17
ENDBRANCH   6   9
ENDBRANCH   1   6
BRANCH   4  18
ATOM     18  C   UNL     1       2.547   5.690  19.709  0.00  0.00    +0.000 C 
BRANCH  18  19
ATOM     19  C   UNL     1       2.023   7.079  19.906  0.00  0.00    +0.000 A 
ATOM     20  N   UNL     1       1.890   8.008  18.980  0.00  0.00    +0.000 NA
ATOM     21  C   UNL     1       1.371   9.101  19.626  0.00  0.00    +0.000 A 
ATOM     22  C   UNL     1       1.041  10.366  19.118  0.00  0.00    +0.000 A 
ATOM     23  C   UNL     1       0.510  11.323  19.994  0.00  0.00    +0.000 A 
ATOM     24  C   UNL     1       0.315  11.026  21.344  0.00  0.00    +0.000 A 
ATOM     25  C   UNL     1       0.643   9.768  21.870  0.00  0.00    +0.000 A 
ATOM     26  C   UNL     1       1.171   8.835  20.976  0.00  0.00    +0.000 A 
ATOM     27  N   UNL     1       1.599   7.540  21.129  0.00  0.00    +0.000 N 
ATOM     28  H   UNL     1       1.590   6.998  21.982  0.00  0.00    +0.000 HD
ENDBRANCH  18  19
ENDBRANCH   4  18
TORSDOF 5
ENDMDL
