MODEL 1
REMARK VINA RESULT:      -9.2      0.000      0.000
REMARK  Name = 
REMARK  4 active torsions:
REMARK  status: ('A' for Active; 'I' for Inactive)
REMARK    1  A    between atoms: C_1  and  C_2
REMARK    2  A    between atoms: C_3  and  C_4
REMARK    3  A    between atoms: C_20  and  S_21
REMARK    4  A    between atoms: S_21  and  N_24
REMARK                            x       y       z     vdW  Elec       q    Type
REMARK                         _______ _______ _______ _____ _____    ______ ____
ROOT
ATOM      1  C   UNL     1       2.364   9.061  17.902  0.00  0.00    +0.000 C 
ATOM      2  C   UNL     1       1.960   8.200  19.045  0.00  0.00    +0.000 A 
ATOM      3  C   UNL     1       1.374   8.577  20.253  0.00  0.00    +0.000 A 
ATOM      4  O   UNL     1       1.144   7.456  21.004  0.00  0.00    +0.000 OA
ATOM      5  C   UNL     1       1.744   6.413  20.391  0.00  0.00    +0.000 A 
ATOM      6  C   UNL     1       1.922   5.154  20.952  0.00  0.00    +0.000 A 
ATOM      7  C   UNL     1       2.529   4.201  20.134  0.00  0.00    +0.000 A 
ATOM      8  C   UNL     1       2.889   4.520  18.816  0.00  0.00    +0.000 A 
ATOM      9  C   UNL     1       2.749   5.818  18.302  0.00  0.00    +0.000 A 
ATOM     10  C   UNL     1       2.181   6.792  19.135  0.00  0.00    +0.000 A 
ENDROOT
BRANCH   3  11
ATOM     11  C   UNL     1       1.001   9.895  20.773  0.00  0.00    +0.000 C 
ATOM     12  O   UNL     1       1.428  10.223  21.879  0.00  0.00    +0.000 OA
ATOM     13  N   UNL     1       0.103  10.708  20.016  0.00  0.00    +0.000 N 
ATOM     14  C   UNL     1      -0.546  10.246  18.775  0.00  0.00    +0.000 C 
ATOM     15  C   UNL     1      -2.026  10.546  18.732  0.00  0.00    +0.000 C 
ATOM     16  C   UNL     1      -2.252  12.033  18.810  0.00  0.00    +0.000 C 
ATOM     17  C   UNL     1      -1.387  12.685  19.857  0.00  0.00    +0.000 A 
ATOM     18  C   UNL     1      -1.742  13.991  20.244  0.00  0.00    +0.000 A 
ATOM     19  C   UNL     1      -0.993  14.681  21.188  0.00  0.00    +0.000 A 
ATOM     20  C   UNL     1       0.128  14.080  21.740  0.00  0.00    +0.000 A 
ATOM     21  C   UNL     1       0.495  12.785  21.356  0.00  0.00    +0.000 A 
ATOM     22  C   UNL     1      -0.255  12.053  20.420  0.00  0.00    +0.000 A 
ENDBRANCH   3  11
BRANCH   8  23
ATOM     23  S   UNL     1       3.662   3.287  17.803  0.00  0.00    +0.000 S 
ATOM     24  O   UNL     1       4.046   2.191  18.669  0.00  0.00    +0.000 OA
ATOM     25  O   UNL     1       2.797   3.065  16.658  0.00  0.00    +0.000 OA
BRANCH  23  26
ATOM     26  N   UNL     1       5.048   4.039  17.263  0.00  0.00    +0.000 NA
ATOM     27  C   UNL     1       5.160   4.539  15.875  0.00  0.00    +0.000 C 
ATOM     28  C   UNL     1       6.630   4.401  15.443  0.00  0.00    +0.000 C 
ATOM     29  O   UNL     1       7.525   5.059  16.362  0.00  0.00    +0.000 OA
ATOM     30  C   UNL     1       7.357   4.556  17.703  0.00  0.00    +0.000 C 
ATOM     31  C   UNL     1       5.919   4.796  18.182  0.00  0.00    +0.000 C 
ENDBRANCH  23  26
ENDBRANCH   8  23
TORSDOF 3
ENDMDL
MODEL 2
REMARK VINA RESULT:      -8.9      3.509      9.691
REMARK  Name = 
REMARK  4 active torsions:
REMARK  status: ('A' for Active; 'I' for Inactive)
REMARK    1  A    between atoms: C_1  and  C_2
REMARK    2  A    between atoms: C_3  and  C_4
REMARK    3  A    between atoms: C_20  and  S_21
REMARK    4  A    between atoms: S_21  and  N_24
REMARK                            x       y       z     vdW  Elec       q    Type
REMARK                         _______ _______ _______ _____ _____    ______ ____
ROOT
ATOM      1  C   UNL     1      -0.144  10.136  17.988  0.00  0.00    +0.000 C 
ATOM      2  C   UNL     1       0.336   9.774  19.348  0.00  0.00    +0.000 A 
ATOM      3  C   UNL     1       1.321   8.853  19.706  0.00  0.00    +0.000 A 
ATOM      4  O   UNL     1       1.461   8.860  21.067  0.00  0.00    +0.000 OA
ATOM      5  C   UNL     1       0.464   9.608  21.586  0.00  0.00    +0.000 A 
ATOM      6  C   UNL     1       0.138   9.677  22.936  0.00  0.00    +0.000 A 
ATOM      7  C   UNL     1      -0.902  10.545  23.269  0.00  0.00    +0.000 A 
ATOM      8  C   UNL     1      -1.531  11.315  22.280  0.00  0.00    +0.000 A 
ATOM      9  C   UNL     1      -1.216  11.177  20.919  0.00  0.00    +0.000 A 
ATOM     10  C   UNL     1      -0.203  10.272  20.572  0.00  0.00    +0.000 A 
ENDROOT
BRANCH   3  11
ATOM     11  C   UNL     1       2.153   7.966  18.889  0.00  0.00    +0.000 C 
ATOM     12  O   UNL     1       2.561   8.388  17.808  0.00  0.00    +0.000 OA
ATOM     13  N   UNL     1       2.391   6.631  19.340  0.00  0.00    +0.000 N 
ATOM     14  C   UNL     1       1.760   6.069  20.549  0.00  0.00    +0.000 C 
ATOM     15  C   UNL     1       1.184   4.689  20.331  0.00  0.00    +0.000 C 
ATOM     16  C   UNL     1       2.278   3.734  19.929  0.00  0.00    +0.000 C 
ATOM     17  C   UNL     1       3.203   4.329  18.901  0.00  0.00    +0.000 A 
ATOM     18  C   UNL     1       4.047   3.434  18.218  0.00  0.00    +0.000 A 
ATOM     19  C   UNL     1       4.949   3.891  17.266  0.00  0.00    +0.000 A 
ATOM     20  C   UNL     1       5.029   5.250  17.002  0.00  0.00    +0.000 A 
ATOM     21  C   UNL     1       4.201   6.150  17.682  0.00  0.00    +0.000 A 
ATOM     22  C   UNL     1       3.263   5.716  18.633  0.00  0.00    +0.000 A 
ENDBRANCH   3  11
BRANCH   8  23
ATOM     23  S   UNL     1      -2.852  12.406  22.736  0.00  0.00    +0.000 S 
ATOM     24  O   UNL     1      -3.640  12.656  21.546  0.00  0.00    +0.000 OA
ATOM     25  O   UNL     1      -3.465  11.864  23.936  0.00  0.00    +0.000 OA
BRANCH  23  26
ATOM     26  N   UNL     1      -2.068  13.817  23.151  0.00  0.00    +0.000 NA
ATOM     27  C   UNL     1      -1.365  14.632  22.135  0.00  0.00    +0.000 C 
ATOM     28  C   UNL     1      -0.157  15.296  22.820  0.00  0.00    +0.000 C 
ATOM     29  O   UNL     1      -0.546  16.047  23.988  0.00  0.00    +0.000 OA
ATOM     30  C   UNL     1      -1.251  15.215  24.930  0.00  0.00    +0.000 C 
ATOM     31  C   UNL     1      -2.520  14.642  24.287  0.00  0.00    +0.000 C 
ENDBRANCH  23  26
ENDBRANCH   8  23
TORSDOF 3
ENDMDL
MODEL 3
REMARK VINA RESULT:      -8.7      3.499      9.524
REMARK  Name = 
REMARK  4 active torsions:
REMARK  status: ('A' for Active; 'I' for Inactive)
REMARK    1  A    between atoms: C_1  and  C_2
REMARK    2  A    between atoms: C_3  and  C_4
REMARK    3  A    between atoms: C_20  and  S_21
REMARK    4  A    between atoms: S_21  and  N_24
REMARK                            x       y       z     vdW  Elec       q    Type
REMARK                         _______ _______ _______ _____ _____    ______ ____
ROOT
ATOM      1  C   UNL     1       0.185  10.228  18.081  0.00  0.00    +0.000 C 
ATOM      2  C   UNL     1       0.561   9.719  19.427  0.00  0.00    +0.000 A 
ATOM      3  C   UNL     1       1.434   8.681  19.752  0.00  0.00    +0.000 A 
ATOM      4  O   UNL     1       1.507   8.574  21.115  0.00  0.00    +0.000 OA
ATOM      5  C   UNL     1       0.563   9.377  21.649  0.00  0.00    +0.000 A 
ATOM      6  C   UNL     1       0.179   9.378  22.985  0.00  0.00    +0.000 A 
ATOM      7  C   UNL     1      -0.787  10.319  23.342  0.00  0.00    +0.000 A 
ATOM      8  C   UNL     1      -1.290  11.219  22.391  0.00  0.00    +0.000 A 
ATOM      9  C   UNL     1      -0.924  11.151  21.038  0.00  0.00    +0.000 A 
ATOM     10  C   UNL     1       0.013  10.178  20.663  0.00  0.00    +0.000 A 
ENDROOT
BRANCH   3  11
ATOM     11  C   UNL     1       2.215   7.778  18.904  0.00  0.00    +0.000 C 
ATOM     12  O   UNL     1       2.637   8.211  17.833  0.00  0.00    +0.000 OA
ATOM     13  N   UNL     1       2.388   6.421  19.314  0.00  0.00    +0.000 N 
ATOM     14  C   UNL     1       1.736   5.855  20.510  0.00  0.00    +0.000 C 
ATOM     15  C   UNL     1       1.091   4.512  20.255  0.00  0.00    +0.000 C 
ATOM     16  C   UNL     1       2.133   3.516  19.817  0.00  0.00    +0.000 C 
ATOM     17  C   UNL     1       3.081   4.095  18.801  0.00  0.00    +0.000 A 
ATOM     18  C   UNL     1       3.875   3.179  18.085  0.00  0.00    +0.000 A 
ATOM     19  C   UNL     1       4.793   3.618  17.141  0.00  0.00    +0.000 A 
ATOM     20  C   UNL     1       4.939   4.979  16.916  0.00  0.00    +0.000 A 
ATOM     21  C   UNL     1       4.162   5.899  17.628  0.00  0.00    +0.000 A 
ATOM     22  C   UNL     1       3.208   5.484  18.573  0.00  0.00    +0.000 A 
ENDBRANCH   3  11
BRANCH   8  23
ATOM     23  S   UNL     1      -2.520  12.400  22.876  0.00  0.00    +0.000 S 
ATOM     24  O   UNL     1      -3.290  11.809  23.952  0.00  0.00    +0.000 OA
ATOM     25  O   UNL     1      -1.849  13.675  23.053  0.00  0.00    +0.000 OA
BRANCH  23  26
ATOM     26  N   UNL     1      -3.501  12.516  21.534  0.00  0.00    +0.000 NA
ATOM     27  C   UNL     1      -4.957  12.746  21.663  0.00  0.00    +0.000 C 
ATOM     28  C   UNL     1      -5.651  12.027  20.493  0.00  0.00    +0.000 C 
ATOM     29  O   UNL     1      -5.119  12.436  19.218  0.00  0.00    +0.000 OA
ATOM     30  C   UNL     1      -3.695  12.219  19.154  0.00  0.00    +0.000 C 
ATOM     31  C   UNL     1      -2.987  13.027  20.249  0.00  0.00    +0.000 C 
ENDBRANCH  23  26
ENDBRANCH   8  23
TORSDOF 3
ENDMDL
MODEL 4
REMARK VINA RESULT:      -8.7      2.527      3.881
REMARK  Name = 
REMARK  4 active torsions:
REMARK  status: ('A' for Active; 'I' for Inactive)
REMARK    1  A    between atoms: C_1  and  C_2
REMARK    2  A    between atoms: C_3  and  C_4
REMARK    3  A    between atoms: C_20  and  S_21
REMARK    4  A    between atoms: S_21  and  N_24
REMARK                            x       y       z     vdW  Elec       q    Type
REMARK                         _______ _______ _______ _____ _____    ______ ____
ROOT
ATOM      1  C   UNL     1      -0.083   8.343  21.926  0.00  0.00    +0.000 C 
ATOM      2  C   UNL     1       0.425   8.962  20.673  0.00  0.00    +0.000 A 
ATOM      3  C   UNL     1       0.003  10.137  20.050  0.00  0.00    +0.000 A 
ATOM      4  O   UNL     1       0.767  10.346  18.934  0.00  0.00    +0.000 OA
ATOM      5  C   UNL     1       1.519   9.244  18.730  0.00  0.00    +0.000 A 
ATOM      6  C   UNL     1       2.259   8.985  17.581  0.00  0.00    +0.000 A 
ATOM      7  C   UNL     1       3.004   7.805  17.588  0.00  0.00    +0.000 A 
ATOM      8  C   UNL     1       3.011   6.974  18.719  0.00  0.00    +0.000 A 
ATOM      9  C   UNL     1       2.206   7.237  19.838  0.00  0.00    +0.000 A 
ATOM     10  C   UNL     1       1.421   8.398  19.820  0.00  0.00    +0.000 A 
ENDROOT
BRANCH   3  11
ATOM     11  C   UNL     1      -1.050  11.091  20.405  0.00  0.00    +0.000 C 
ATOM     12  O   UNL     1      -0.995  11.629  21.510  0.00  0.00    +0.000 OA
ATOM     13  N   UNL     1      -2.131  11.299  19.495  0.00  0.00    +0.000 N 
ATOM     14  C   UNL     1      -2.290  10.526  18.249  0.00  0.00    +0.000 C 
ATOM     15  C   UNL     1      -3.698  10.019  18.040  0.00  0.00    +0.000 C 
ATOM     16  C   UNL     1      -4.655  11.179  17.956  0.00  0.00    +0.000 C 
ATOM     17  C   UNL     1      -4.384  12.218  19.011  0.00  0.00    +0.000 A 
ATOM     18  C   UNL     1      -5.398  13.167  19.238  0.00  0.00    +0.000 A 
ATOM     19  C   UNL     1      -5.232  14.177  20.177  0.00  0.00    +0.000 A 
ATOM     20  C   UNL     1      -4.042  14.258  20.885  0.00  0.00    +0.000 A 
ATOM     21  C   UNL     1      -3.023  13.325  20.661  0.00  0.00    +0.000 A 
ATOM     22  C   UNL     1      -3.171  12.279  19.734  0.00  0.00    +0.000 A 
ENDBRANCH   3  11
BRANCH   8  23
ATOM     23  S   UNL     1       3.965   5.480  18.694  0.00  0.00    +0.000 S 
ATOM     24  O   UNL     1       4.348   5.232  17.319  0.00  0.00    +0.000 OA
ATOM     25  O   UNL     1       4.968   5.590  19.739  0.00  0.00    +0.000 OA
BRANCH  23  26
ATOM     26  N   UNL     1       2.870   4.310  19.152  0.00  0.00    +0.000 NA
ATOM     27  C   UNL     1       2.296   3.368  18.166  0.00  0.00    +0.000 C 
ATOM     28  C   UNL     1       0.863   3.032  18.618  0.00  0.00    +0.000 C 
ATOM     29  O   UNL     1       0.827   2.537  19.971  0.00  0.00    +0.000 OA
ATOM     30  C   UNL     1       1.425   3.478  20.886  0.00  0.00    +0.000 C 
ATOM     31  C   UNL     1       2.890   3.728  20.507  0.00  0.00    +0.000 C 
ENDBRANCH  23  26
ENDBRANCH   8  23
TORSDOF 3
ENDMDL
MODEL 5
REMARK VINA RESULT:      -8.7      1.385      2.004
REMARK  Name = 
REMARK  4 active torsions:
REMARK  status: ('A' for Active; 'I' for Inactive)
REMARK    1  A    between atoms: C_1  and  C_2
REMARK    2  A    between atoms: C_3  and  C_4
REMARK    3  A    between atoms: C_20  and  S_21
REMARK    4  A    between atoms: S_21  and  N_24
REMARK                            x       y       z     vdW  Elec       q    Type
REMARK                         _______ _______ _______ _____ _____    ______ ____
ROOT
ATOM      1  C   UNL     1       2.811   9.015  17.320  0.00  0.00    +0.000 C 
ATOM      2  C   UNL     1       2.250   8.324  18.511  0.00  0.00    +0.000 A 
ATOM      3  C   UNL     1       1.421   8.843  19.507  0.00  0.00    +0.000 A 
ATOM      4  O   UNL     1       1.121   7.847  20.397  0.00  0.00    +0.000 OA
ATOM      5  C   UNL     1       1.890   6.778  20.102  0.00  0.00    +0.000 A 
ATOM      6  C   UNL     1       2.034   5.653  20.906  0.00  0.00    +0.000 A 
ATOM      7  C   UNL     1       2.844   4.637  20.397  0.00  0.00    +0.000 A 
ATOM      8  C   UNL     1       3.430   4.763  19.128  0.00  0.00    +0.000 A 
ATOM      9  C   UNL     1       3.311   5.937  18.368  0.00  0.00    +0.000 A 
ATOM     10  C   UNL     1       2.535   6.979  18.895  0.00  0.00    +0.000 A 
ENDROOT
BRANCH   3  11
ATOM     11  C   UNL     1       0.875  10.188  19.702  0.00  0.00    +0.000 C 
ATOM     12  O   UNL     1       1.303  11.095  18.990  0.00  0.00    +0.000 OA
ATOM     13  N   UNL     1      -0.067  10.406  20.753  0.00  0.00    +0.000 N 
ATOM     14  C   UNL     1      -0.450   9.358  21.718  0.00  0.00    +0.000 C 
ATOM     15  C   UNL     1      -0.445   9.839  23.150  0.00  0.00    +0.000 C 
ATOM     16  C   UNL     1      -1.433  10.963  23.318  0.00  0.00    +0.000 C 
ATOM     17  C   UNL     1      -1.355  11.962  22.193  0.00  0.00    +0.000 A 
ATOM     18  C   UNL     1      -1.983  13.204  22.407  0.00  0.00    +0.000 A 
ATOM     19  C   UNL     1      -1.981  14.181  21.421  0.00  0.00    +0.000 A 
ATOM     20  C   UNL     1      -1.366  13.920  20.205  0.00  0.00    +0.000 A 
ATOM     21  C   UNL     1      -0.747  12.686  19.979  0.00  0.00    +0.000 A 
ATOM     22  C   UNL     1      -0.712  11.686  20.965  0.00  0.00    +0.000 A 
ENDBRANCH   3  11
BRANCH   8  23
ATOM     23  S   UNL     1       4.457   3.456  18.511  0.00  0.00    +0.000 S 
ATOM     24  O   UNL     1       5.174   2.897  19.639  0.00  0.00    +0.000 OA
ATOM     25  O   UNL     1       3.626   2.616  17.666  0.00  0.00    +0.000 OA
BRANCH  23  26
ATOM     26  N   UNL     1       5.551   4.247  17.534  0.00  0.00    +0.000 NA
ATOM     27  C   UNL     1       6.854   4.713  18.060  0.00  0.00    +0.000 C 
ATOM     28  C   UNL     1       7.231   6.000  17.306  0.00  0.00    +0.000 C 
ATOM     29  O   UNL     1       7.225   5.809  15.877  0.00  0.00    +0.000 OA
ATOM     30  C   UNL     1       5.945   5.328  15.421  0.00  0.00    +0.000 C 
ATOM     31  C   UNL     1       5.617   3.984  16.084  0.00  0.00    +0.000 C 
ENDBRANCH  23  26
ENDBRANCH   8  23
TORSDOF 3
ENDMDL
MODEL 6
REMARK VINA RESULT:      -8.7      3.402      9.670
REMARK  Name = 
REMARK  4 active torsions:
REMARK  status: ('A' for Active; 'I' for Inactive)
REMARK    1  A    between atoms: C_1  and  C_2
REMARK    2  A    between atoms: C_3  and  C_4
REMARK    3  A    between atoms: C_20  and  S_21
REMARK    4  A    between atoms: S_21  and  N_24
REMARK                            x       y       z     vdW  Elec       q    Type
REMARK                         _______ _______ _______ _____ _____    ______ ____
ROOT
ATOM      1  C   UNL     1       0.371   9.915  17.945  0.00  0.00    +0.000 C 
ATOM      2  C   UNL     1       0.713   9.495  19.330  0.00  0.00    +0.000 A 
ATOM      3  C   UNL     1       1.565   8.472  19.743  0.00  0.00    +0.000 A 
ATOM      4  O   UNL     1       1.609   8.456  21.111  0.00  0.00    +0.000 OA
ATOM      5  C   UNL     1       0.663   9.304  21.569  0.00  0.00    +0.000 A 
ATOM      6  C   UNL     1       0.252   9.401  22.893  0.00  0.00    +0.000 A 
ATOM      7  C   UNL     1      -0.709  10.374  23.165  0.00  0.00    +0.000 A 
ATOM      8  C   UNL     1      -1.181  11.213  22.144  0.00  0.00    +0.000 A 
ATOM      9  C   UNL     1      -0.787  11.049  20.807  0.00  0.00    +0.000 A 
ATOM     10  C   UNL     1       0.145  10.043  20.520  0.00  0.00    +0.000 A 
ENDROOT
BRANCH   3  11
ATOM     11  C   UNL     1       2.352   7.504  18.975  0.00  0.00    +0.000 C 
ATOM     12  O   UNL     1       2.884   7.887  17.934  0.00  0.00    +0.000 OA
ATOM     13  N   UNL     1       2.406   6.148  19.420  0.00  0.00    +0.000 N 
ATOM     14  C   UNL     1       1.628   5.649  20.569  0.00  0.00    +0.000 C 
ATOM     15  C   UNL     1       0.921   4.343  20.285  0.00  0.00    +0.000 C 
ATOM     16  C   UNL     1       1.929   3.276  19.949  0.00  0.00    +0.000 C 
ATOM     17  C   UNL     1       2.990   3.773  19.002  0.00  0.00    +0.000 A 
ATOM     18  C   UNL     1       3.778   2.795  18.367  0.00  0.00    +0.000 A 
ATOM     19  C   UNL     1       4.794   3.157  17.493  0.00  0.00    +0.000 A 
ATOM     20  C   UNL     1       5.043   4.501  17.258  0.00  0.00    +0.000 A 
ATOM     21  C   UNL     1       4.272   5.482  17.890  0.00  0.00    +0.000 A 
ATOM     22  C   UNL     1       3.222   5.147  18.763  0.00  0.00    +0.000 A 
ENDBRANCH   3  11
BRANCH   8  23
ATOM     23  S   UNL     1      -2.406  12.438  22.522  0.00  0.00    +0.000 S 
ATOM     24  O   UNL     1      -3.047  12.810  21.277  0.00  0.00    +0.000 OA
ATOM     25  O   UNL     1      -3.185  11.940  23.642  0.00  0.00    +0.000 OA
BRANCH  23  26
ATOM     26  N   UNL     1      -1.508  13.736  23.056  0.00  0.00    +0.000 NA
ATOM     27  C   UNL     1      -1.652  14.254  24.435  0.00  0.00    +0.000 C 
ATOM     28  C   UNL     1      -1.410  15.773  24.394  0.00  0.00    +0.000 C 
ATOM     29  O   UNL     1      -0.142  16.100  23.790  0.00  0.00    +0.000 OA
ATOM     30  C   UNL     1      -0.041  15.548  22.462  0.00  0.00    +0.000 C 
ATOM     31  C   UNL     1      -0.167  14.020  22.511  0.00  0.00    +0.000 C 
ENDBRANCH  23  26
ENDBRANCH   8  23
TORSDOF 3
ENDMDL
MODEL 7
REMARK VINA RESULT:      -8.7      4.167     10.145
REMARK  Name = 
REMARK  4 active torsions:
REMARK  status: ('A' for Active; 'I' for Inactive)
REMARK    1  A    between atoms: C_1  and  C_2
REMARK    2  A    between atoms: C_3  and  C_4
REMARK    3  A    between atoms: C_20  and  S_21
REMARK    4  A    between atoms: S_21  and  N_24
REMARK                            x       y       z     vdW  Elec       q    Type
REMARK                         _______ _______ _______ _____ _____    ______ ____
ROOT
ATOM      1  C   UNL     1      -1.737  10.216  18.296  0.00  0.00    +0.000 C 
ATOM      2  C   UNL     1      -0.667  10.934  19.038  0.00  0.00    +0.000 A 
ATOM      3  C   UNL     1       0.694  10.637  19.105  0.00  0.00    +0.000 A 
ATOM      4  O   UNL     1       1.316  11.579  19.879  0.00  0.00    +0.000 OA
ATOM      5  C   UNL     1       0.363  12.340  20.458  0.00  0.00    +0.000 A 
ATOM      6  C   UNL     1       0.585  13.257  21.478  0.00  0.00    +0.000 A 
ATOM      7  C   UNL     1      -0.532  13.975  21.908  0.00  0.00    +0.000 A 
ATOM      8  C   UNL     1      -1.780  13.783  21.296  0.00  0.00    +0.000 A 
ATOM      9  C   UNL     1      -1.980  12.807  20.308  0.00  0.00    +0.000 A 
ATOM     10  C   UNL     1      -0.871  12.050  19.904  0.00  0.00    +0.000 A 
ENDROOT
BRANCH   3  11
ATOM     11  C   UNL     1       1.475   9.552  18.506  0.00  0.00    +0.000 C 
ATOM     12  O   UNL     1       1.747   9.628  17.309  0.00  0.00    +0.000 OA
ATOM     13  N   UNL     1       1.819   8.421  19.309  0.00  0.00    +0.000 N 
ATOM     14  C   UNL     1       1.344   8.247  20.694  0.00  0.00    +0.000 C 
ATOM     15  C   UNL     1       0.812   6.860  20.970  0.00  0.00    +0.000 C 
ATOM     16  C   UNL     1       1.899   5.840  20.753  0.00  0.00    +0.000 C 
ATOM     17  C   UNL     1       2.684   6.104  19.496  0.00  0.00    +0.000 A 
ATOM     18  C   UNL     1       3.490   5.052  19.023  0.00  0.00    +0.000 A 
ATOM     19  C   UNL     1       4.266   5.207  17.881  0.00  0.00    +0.000 A 
ATOM     20  C   UNL     1       4.255   6.421  17.211  0.00  0.00    +0.000 A 
ATOM     21  C   UNL     1       3.464   7.477  17.678  0.00  0.00    +0.000 A 
ATOM     22  C   UNL     1       2.652   7.343  18.816  0.00  0.00    +0.000 A 
ENDBRANCH   3  11
BRANCH   8  23
ATOM     23  S   UNL     1      -3.180  14.709  21.868  0.00  0.00    +0.000 S 
ATOM     24  O   UNL     1      -2.690  15.715  22.788  0.00  0.00    +0.000 OA
ATOM     25  O   UNL     1      -3.957  15.082  20.699  0.00  0.00    +0.000 OA
BRANCH  23  26
ATOM     26  N   UNL     1      -4.060  13.590  22.735  0.00  0.00    +0.000 NA
ATOM     27  C   UNL     1      -5.354  13.075  22.234  0.00  0.00    +0.000 C 
ATOM     28  C   UNL     1      -6.246  12.784  23.454  0.00  0.00    +0.000 C 
ATOM     29  O   UNL     1      -5.604  11.899  24.393  0.00  0.00    +0.000 OA
ATOM     30  C   UNL     1      -4.336  12.432  24.826  0.00  0.00    +0.000 C 
ATOM     31  C   UNL     1      -3.400  12.616  23.625  0.00  0.00    +0.000 C 
ENDBRANCH  23  26
ENDBRANCH   8  23
TORSDOF 3
ENDMDL
MODEL 8
REMARK VINA RESULT:      -8.7      3.913     10.087
REMARK  Name = 
REMARK  4 active torsions:
REMARK  status: ('A' for Active; 'I' for Inactive)
REMARK    1  A    between atoms: C_1  and  C_2
REMARK    2  A    between atoms: C_3  and  C_4
REMARK    3  A    between atoms: C_20  and  S_21
REMARK    4  A    between atoms: S_21  and  N_24
REMARK                            x       y       z     vdW  Elec       q    Type
REMARK                         _______ _______ _______ _____ _____    ______ ____
ROOT
ATOM      1  C   UNL     1      -1.294  10.066  17.484  0.00  0.00    +0.000 C 
ATOM      2  C   UNL     1      -0.530  10.364  18.724  0.00  0.00    +0.000 A 
ATOM      3  C   UNL     1       0.728   9.896  19.104  0.00  0.00    +0.000 A 
ATOM      4  O   UNL     1       1.061  10.450  20.311  0.00  0.00    +0.000 OA
ATOM      5  C   UNL     1      -0.026  11.091  20.790  0.00  0.00    +0.000 A 
ATOM      6  C   UNL     1      -0.153  11.591  22.081  0.00  0.00    +0.000 A 
ATOM      7  C   UNL     1      -1.344  12.260  22.363  0.00  0.00    +0.000 A 
ATOM      8  C   UNL     1      -2.316  12.434  21.367  0.00  0.00    +0.000 A 
ATOM      9  C   UNL     1      -2.180  11.866  20.090  0.00  0.00    +0.000 A 
ATOM     10  C   UNL     1      -1.005  11.153  19.814  0.00  0.00    +0.000 A 
ENDROOT
BRANCH   3  11
ATOM     11  C   UNL     1       1.657   8.979  18.439  0.00  0.00    +0.000 C 
ATOM     12  O   UNL     1       1.945   9.200  17.264  0.00  0.00    +0.000 OA
ATOM     13  N   UNL     1       2.126   7.833  19.150  0.00  0.00    +0.000 N 
ATOM     14  C   UNL     1       1.646   7.474  20.498  0.00  0.00    +0.000 C 
ATOM     15  C   UNL     1       1.292   6.010  20.632  0.00  0.00    +0.000 C 
ATOM     16  C   UNL     1       2.508   5.162  20.364  0.00  0.00    +0.000 C 
ATOM     17  C   UNL     1       3.280   5.638  19.163  0.00  0.00    +0.000 A 
ATOM     18  C   UNL     1       4.228   4.745  18.627  0.00  0.00    +0.000 A 
ATOM     19  C   UNL     1       5.003   5.102  17.532  0.00  0.00    +0.000 A 
ATOM     20  C   UNL     1       4.851   6.361  16.972  0.00  0.00    +0.000 A 
ATOM     21  C   UNL     1       3.918   7.260  17.501  0.00  0.00    +0.000 A 
ATOM     22  C   UNL     1       3.103   6.920  18.594  0.00  0.00    +0.000 A 
ENDBRANCH   3  11
BRANCH   8  23
ATOM     23  S   UNL     1      -3.820  13.287  21.758  0.00  0.00    +0.000 S 
ATOM     24  O   UNL     1      -4.267  13.955  20.553  0.00  0.00    +0.000 OA
ATOM     25  O   UNL     1      -4.682  12.346  22.453  0.00  0.00    +0.000 OA
BRANCH  23  26
ATOM     26  N   UNL     1      -3.338  14.447  22.852  0.00  0.00    +0.000 NA
ATOM     27  C   UNL     1      -2.699  15.705  22.406  0.00  0.00    +0.000 C 
ATOM     28  C   UNL     1      -1.695  16.132  23.492  0.00  0.00    +0.000 C 
ATOM     29  O   UNL     1      -2.316  16.235  24.789  0.00  0.00    +0.000 OA
ATOM     30  C   UNL     1      -2.948  14.994  25.163  0.00  0.00    +0.000 C 
ATOM     31  C   UNL     1      -4.031  14.622  24.143  0.00  0.00    +0.000 C 
ENDBRANCH  23  26
ENDBRANCH   8  23
TORSDOF 3
ENDMDL
MODEL 9
REMARK VINA RESULT:      -8.6      3.667      9.834
REMARK  Name = 
REMARK  4 active torsions:
REMARK  status: ('A' for Active; 'I' for Inactive)
REMARK    1  A    between atoms: C_1  and  C_2
REMARK    2  A    between atoms: C_3  and  C_4
REMARK    3  A    between atoms: C_20  and  S_21
REMARK    4  A    between atoms: S_21  and  N_24
REMARK                            x       y       z     vdW  Elec       q    Type
REMARK                         _______ _______ _______ _____ _____    ______ ____
ROOT
ATOM      1  C   UNL     1       1.657  10.925  18.192  0.00  0.00    +0.000 C 
ATOM      2  C   UNL     1       1.362  10.116  19.404  0.00  0.00    +0.000 A 
ATOM      3  C   UNL     1       1.633   8.768  19.637  0.00  0.00    +0.000 A 
ATOM      4  O   UNL     1       1.217   8.444  20.900  0.00  0.00    +0.000 OA
ATOM      5  C   UNL     1       0.519   9.490  21.391  0.00  0.00    +0.000 A 
ATOM      6  C   UNL     1      -0.247   9.464  22.552  0.00  0.00    +0.000 A 
ATOM      7  C   UNL     1      -0.856  10.667  22.909  0.00  0.00    +0.000 A 
ATOM      8  C   UNL     1      -0.654  11.823  22.140  0.00  0.00    +0.000 A 
ATOM      9  C   UNL     1       0.077  11.799  20.942  0.00  0.00    +0.000 A 
ATOM     10  C   UNL     1       0.655  10.582  20.553  0.00  0.00    +0.000 A 
ENDROOT
BRANCH   3  11
ATOM     11  C   UNL     1       2.254   7.749  18.787  0.00  0.00    +0.000 C 
ATOM     12  O   UNL     1       2.568   8.065  17.641  0.00  0.00    +0.000 OA
ATOM     13  N   UNL     1       2.398   6.421  19.293  0.00  0.00    +0.000 N 
ATOM     14  C   UNL     1       1.864   5.998  20.601  0.00  0.00    +0.000 C 
ATOM     15  C   UNL     1       1.117   4.686  20.542  0.00  0.00    +0.000 C 
ATOM     16  C   UNL     1       2.040   3.590  20.076  0.00  0.00    +0.000 C 
ATOM     17  C   UNL     1       2.891   4.020  18.910  0.00  0.00    +0.000 A 
ATOM     18  C   UNL     1       3.539   2.998  18.191  0.00  0.00    +0.000 A 
ATOM     19  C   UNL     1       4.361   3.298  17.112  0.00  0.00    +0.000 A 
ATOM     20  C   UNL     1       4.556   4.623  16.753  0.00  0.00    +0.000 A 
ATOM     21  C   UNL     1       3.923   5.648  17.467  0.00  0.00    +0.000 A 
ATOM     22  C   UNL     1       3.068   5.375  18.548  0.00  0.00    +0.000 A 
ENDBRANCH   3  11
BRANCH   8  23
ATOM     23  S   UNL     1      -1.446  13.335  22.618  0.00  0.00    +0.000 S 
ATOM     24  O   UNL     1      -0.981  13.667  23.950  0.00  0.00    +0.000 OA
ATOM     25  O   UNL     1      -1.289  14.271  21.519  0.00  0.00    +0.000 OA
BRANCH  23  26
ATOM     26  N   UNL     1      -3.057  12.919  22.714  0.00  0.00    +0.000 NA
ATOM     27  C   UNL     1      -3.803  12.454  21.523  0.00  0.00    +0.000 C 
ATOM     28  C   UNL     1      -5.261  12.924  21.669  0.00  0.00    +0.000 C 
ATOM     29  O   UNL     1      -5.844  12.490  22.914  0.00  0.00    +0.000 OA
ATOM     30  C   UNL     1      -5.065  12.944  24.039  0.00  0.00    +0.000 C 
ATOM     31  C   UNL     1      -3.640  12.382  23.958  0.00  0.00    +0.000 C 
ENDBRANCH  23  26
ENDBRANCH   8  23
TORSDOF 3
ENDMDL
