MODEL 1
REMARK VINA RESULT:      -8.9      0.000      0.000
REMARK  Name = 
REMARK  6 active torsions:
REMARK  status: ('A' for Active; 'I' for Inactive)
REMARK    1  A    between atoms: C_1  and  C_2
REMARK    2  A    between atoms: C_8  and  C_9
REMARK    3  A    between atoms: C_9  and  C_11
REMARK    4  A    between atoms: N_19  and  C_20
REMARK    5  A    between atoms: C_20  and  C_21
REMARK    6  A    between atoms: C_26  and  C_27
REMARK                            x       y       z     vdW  Elec       q    Type
REMARK                         _______ _______ _______ _____ _____    ______ ____
ROOT
ATOM      1  C   UNL     1      -1.606  11.762  23.195  0.00  0.00    +0.000 C 
ATOM      2  C   UNL     1      -0.738  10.745  22.516  0.00  0.00    +0.000 A 
ATOM      3  C   UNL     1      -0.316   9.621  23.216  0.00  0.00    +0.000 A 
ATOM      4  C   UNL     1       0.419   8.665  22.538  0.00  0.00    +0.000 A 
ATOM      5  C   UNL     1       0.725   8.876  21.194  0.00  0.00    +0.000 A 
ATOM      6  C   UNL     1       1.455   7.840  20.451  0.00  0.00    +0.000 A 
ATOM      7  O   UNL     1       1.601   6.731  20.955  0.00  0.00    +0.000 OA
ATOM      8  C   UNL     1       1.972   8.173  19.103  0.00  0.00    +0.000 A 
ATOM      9  C   UNL     1       1.551   9.340  18.584  0.00  0.00    +0.000 A 
ATOM     10  N   UNL     1       0.721  10.262  19.210  0.00  0.00    +0.000 N 
ATOM     11  C   UNL     1       0.319  10.047  20.551  0.00  0.00    +0.000 A 
ATOM     12  N   UNL     1      -0.438  10.958  21.211  0.00  0.00    +0.000 NA
ENDROOT
BRANCH   8  13
ATOM     13  C   UNL     1       2.836   7.274  18.284  0.00  0.00    +0.000 C 
ATOM     14  O   UNL     1       3.667   7.731  17.501  0.00  0.00    +0.000 OA
BRANCH  13  15
ATOM     15  C   UNL     1       2.716   5.797  18.431  0.00  0.00    +0.000 A 
ATOM     16  C   UNL     1       3.695   5.103  19.155  0.00  0.00    +0.000 A 
ATOM     17  C   UNL     1       3.589   3.715  19.341  0.00  0.00    +0.000 A 
ATOM     18  C   UNL     1       2.497   3.040  18.803  0.00  0.00    +0.000 A 
ATOM     19  F   UNL     1       2.382   1.722  18.997  0.00  0.00    +0.000 F 
ATOM     20  C   UNL     1       1.521   3.713  18.084  0.00  0.00    +0.000 A 
ATOM     21  C   UNL     1       1.618   5.094  17.913  0.00  0.00    +0.000 A 
ENDBRANCH  13  15
ENDBRANCH   8  13
BRANCH  10  22
ATOM     22  C   UNL     1       0.074  11.391  18.522  0.00  0.00    +0.000 C 
BRANCH  22  23
ATOM     23  C   UNL     1      -1.372  11.141  18.119  0.00  0.00    +0.000 A 
ATOM     24  C   UNL     1      -1.669  10.047  17.282  0.00  0.00    +0.000 A 
ATOM     25  C   UNL     1      -2.984   9.674  17.013  0.00  0.00    +0.000 A 
ATOM     26  C   UNL     1      -4.032  10.398  17.562  0.00  0.00    +0.000 A 
ATOM     27  C   UNL     1      -3.768  11.502  18.368  0.00  0.00    +0.000 A 
ATOM     28  C   UNL     1      -2.446  11.884  18.664  0.00  0.00    +0.000 A 
ATOM     29  C   UNL     1      -2.237  13.038  19.608  0.00  0.00    +0.000 C 
ENDBRANCH  22  23
ENDBRANCH  10  22
TORSDOF 4
ENDMDL
MODEL 2
REMARK VINA RESULT:      -8.8      3.526      7.849
REMARK  Name = 
REMARK  6 active torsions:
REMARK  status: ('A' for Active; 'I' for Inactive)
REMARK    1  A    between atoms: C_1  and  C_2
REMARK    2  A    between atoms: C_8  and  C_9
REMARK    3  A    between atoms: C_9  and  C_11
REMARK    4  A    between atoms: N_19  and  C_20
REMARK    5  A    between atoms: C_20  and  C_21
REMARK    6  A    between atoms: C_26  and  C_27
REMARK                            x       y       z     vdW  Elec       q    Type
REMARK                         _______ _______ _______ _____ _____    ______ ____
ROOT
ATOM      1  C   UNL     1       3.678   2.471  19.816  0.00  0.00    +0.000 C 
ATOM      2  C   UNL     1       3.114   3.860  19.763  0.00  0.00    +0.000 A 
ATOM      3  C   UNL     1       2.174   4.259  20.705  0.00  0.00    +0.000 A 
ATOM      4  C   UNL     1       1.732   5.569  20.676  0.00  0.00    +0.000 A 
ATOM      5  C   UNL     1       2.225   6.427  19.694  0.00  0.00    +0.000 A 
ATOM      6  C   UNL     1       1.806   7.834  19.691  0.00  0.00    +0.000 A 
ATOM      7  O   UNL     1       1.200   8.282  20.659  0.00  0.00    +0.000 OA
ATOM      8  C   UNL     1       2.151   8.669  18.516  0.00  0.00    +0.000 A 
ATOM      9  C   UNL     1       3.004   8.118  17.634  0.00  0.00    +0.000 A 
ATOM     10  N   UNL     1       3.546   6.841  17.708  0.00  0.00    +0.000 N 
ATOM     11  C   UNL     1       3.133   5.962  18.739  0.00  0.00    +0.000 A 
ATOM     12  N   UNL     1       3.593   4.688  18.802  0.00  0.00    +0.000 NA
ENDROOT
BRANCH   8  13
ATOM     13  C   UNL     1       1.688  10.072  18.311  0.00  0.00    +0.000 C 
ATOM     14  O   UNL     1       2.482  10.970  18.035  0.00  0.00    +0.000 OA
BRANCH  13  15
ATOM     15  C   UNL     1       0.237  10.395  18.411  0.00  0.00    +0.000 A 
ATOM     16  C   UNL     1      -0.171  11.447  19.242  0.00  0.00    +0.000 A 
ATOM     17  C   UNL     1      -1.528  11.797  19.327  0.00  0.00    +0.000 A 
ATOM     18  C   UNL     1      -2.460  11.091  18.572  0.00  0.00    +0.000 A 
ATOM     19  F   UNL     1      -3.750  11.436  18.635  0.00  0.00    +0.000 F 
ATOM     20  C   UNL     1      -2.072  10.047  17.747  0.00  0.00    +0.000 A 
ATOM     21  C   UNL     1      -0.722   9.710  17.649  0.00  0.00    +0.000 A 
ENDBRANCH  13  15
ENDBRANCH   8  13
BRANCH  10  22
ATOM     22  C   UNL     1       4.667   6.370  16.879  0.00  0.00    +0.000 C 
BRANCH  22  23
ATOM     23  C   UNL     1       6.040   6.819  17.358  0.00  0.00    +0.000 A 
ATOM     24  C   UNL     1       6.416   8.166  17.190  0.00  0.00    +0.000 A 
ATOM     25  C   UNL     1       7.587   8.670  17.750  0.00  0.00    +0.000 A 
ATOM     26  C   UNL     1       8.419   7.831  18.478  0.00  0.00    +0.000 A 
ATOM     27  C   UNL     1       8.087   6.488  18.635  0.00  0.00    +0.000 A 
ATOM     28  C   UNL     1       6.900   5.966  18.090  0.00  0.00    +0.000 A 
ATOM     29  C   UNL     1       6.568   4.524  18.368  0.00  0.00    +0.000 C 
ENDBRANCH  22  23
ENDBRANCH  10  22
TORSDOF 4
ENDMDL
MODEL 3
REMARK VINA RESULT:      -8.6      3.436      8.022
REMARK  Name = 
REMARK  6 active torsions:
REMARK  status: ('A' for Active; 'I' for Inactive)
REMARK    1  A    between atoms: C_1  and  C_2
REMARK    2  A    between atoms: C_8  and  C_9
REMARK    3  A    between atoms: C_9  and  C_11
REMARK    4  A    between atoms: N_19  and  C_20
REMARK    5  A    between atoms: C_20  and  C_21
REMARK    6  A    between atoms: C_26  and  C_27
REMARK                            x       y       z     vdW  Elec       q    Type
REMARK                         _______ _______ _______ _____ _____    ______ ____
ROOT
ATOM      1  C   UNL     1       3.743   2.435  19.437  0.00  0.00    +0.000 C 
ATOM      2  C   UNL     1       3.200   3.832  19.476  0.00  0.00    +0.000 A 
ATOM      3  C   UNL     1       2.394   4.230  20.536  0.00  0.00    +0.000 A 
ATOM      4  C   UNL     1       1.974   5.548  20.581  0.00  0.00    +0.000 A 
ATOM      5  C   UNL     1       2.354   6.413  19.556  0.00  0.00    +0.000 A 
ATOM      6  C   UNL     1       1.961   7.827  19.626  0.00  0.00    +0.000 A 
ATOM      7  O   UNL     1       1.491   8.268  20.670  0.00  0.00    +0.000 OA
ATOM      8  C   UNL     1       2.169   8.675  18.428  0.00  0.00    +0.000 A 
ATOM      9  C   UNL     1       2.894   8.125  17.438  0.00  0.00    +0.000 A 
ATOM     10  N   UNL     1       3.419   6.839  17.425  0.00  0.00    +0.000 N 
ATOM     11  C   UNL     1       3.124   5.950  18.488  0.00  0.00    +0.000 A 
ATOM     12  N   UNL     1       3.567   4.669  18.474  0.00  0.00    +0.000 NA
ENDROOT
BRANCH   8  13
ATOM     13  C   UNL     1       1.708  10.088  18.303  0.00  0.00    +0.000 C 
ATOM     14  O   UNL     1       2.500  10.997  18.065  0.00  0.00    +0.000 OA
BRANCH  13  15
ATOM     15  C   UNL     1       0.259  10.408  18.439  0.00  0.00    +0.000 A 
ATOM     16  C   UNL     1      -0.136  11.411  19.335  0.00  0.00    +0.000 A 
ATOM     17  C   UNL     1      -1.491  11.759  19.457  0.00  0.00    +0.000 A 
ATOM     18  C   UNL     1      -2.433  11.101  18.672  0.00  0.00    +0.000 A 
ATOM     19  F   UNL     1      -3.722  11.446  18.771  0.00  0.00    +0.000 F 
ATOM     20  C   UNL     1      -2.058  10.108  17.782  0.00  0.00    +0.000 A 
ATOM     21  C   UNL     1      -0.711   9.772  17.650  0.00  0.00    +0.000 A 
ENDBRANCH  13  15
ENDBRANCH   8  13
BRANCH  10  22
ATOM     22  C   UNL     1       4.417   6.365  16.453  0.00  0.00    +0.000 C 
BRANCH  22  23
ATOM     23  C   UNL     1       5.775   6.028  17.054  0.00  0.00    +0.000 A 
ATOM     24  C   UNL     1       6.370   6.939  17.949  0.00  0.00    +0.000 A 
ATOM     25  C   UNL     1       7.528   6.616  18.653  0.00  0.00    +0.000 A 
ATOM     26  C   UNL     1       8.126   5.378  18.463  0.00  0.00    +0.000 A 
ATOM     27  C   UNL     1       7.576   4.470  17.562  0.00  0.00    +0.000 A 
ATOM     28  C   UNL     1       6.398   4.774  16.856  0.00  0.00    +0.000 A 
ATOM     29  C   UNL     1       5.816   3.712  15.959  0.00  0.00    +0.000 C 
ENDBRANCH  22  23
ENDBRANCH  10  22
TORSDOF 4
ENDMDL
MODEL 4
REMARK VINA RESULT:      -8.5      1.605      2.872
REMARK  Name = 
REMARK  6 active torsions:
REMARK  status: ('A' for Active; 'I' for Inactive)
REMARK    1  A    between atoms: C_1  and  C_2
REMARK    2  A    between atoms: C_8  and  C_9
REMARK    3  A    between atoms: C_9  and  C_11
REMARK    4  A    between atoms: N_19  and  C_20
REMARK    5  A    between atoms: C_20  and  C_21
REMARK    6  A    between atoms: C_26  and  C_27
REMARK                            x       y       z     vdW  Elec       q    Type
REMARK                         _______ _______ _______ _____ _____    ______ ____
ROOT
ATOM      1  C   UNL     1      -1.381  11.749  23.036  0.00  0.00    +0.000 C 
ATOM      2  C   UNL     1      -0.544  10.698  22.370  0.00  0.00    +0.000 A 
ATOM      3  C   UNL     1      -0.197   9.547  23.068  0.00  0.00    +0.000 A 
ATOM      4  C   UNL     1       0.510   8.563  22.400  0.00  0.00    +0.000 A 
ATOM      5  C   UNL     1       0.865   8.773  21.068  0.00  0.00    +0.000 A 
ATOM      6  C   UNL     1       1.564   7.710  20.334  0.00  0.00    +0.000 A 
ATOM      7  O   UNL     1       1.642   6.590  20.829  0.00  0.00    +0.000 OA
ATOM      8  C   UNL     1       2.136   8.031  19.006  0.00  0.00    +0.000 A 
ATOM      9  C   UNL     1       1.788   9.222  18.488  0.00  0.00    +0.000 A 
ATOM     10  N   UNL     1       0.985  10.177  19.100  0.00  0.00    +0.000 N 
ATOM     11  C   UNL     1       0.534   9.969  20.427  0.00  0.00    +0.000 A 
ATOM     12  N   UNL     1      -0.196  10.909  21.076  0.00  0.00    +0.000 NA
ENDROOT
BRANCH   8  13
ATOM     13  C   UNL     1       2.978   7.099  18.201  0.00  0.00    +0.000 C 
ATOM     14  O   UNL     1       3.788   7.523  17.377  0.00  0.00    +0.000 OA
BRANCH  13  15
ATOM     15  C   UNL     1       2.865   5.629  18.412  0.00  0.00    +0.000 A 
ATOM     16  C   UNL     1       1.766   4.947  17.872  0.00  0.00    +0.000 A 
ATOM     17  C   UNL     1       1.651   3.555  18.025  0.00  0.00    +0.000 A 
ATOM     18  C   UNL     1       2.645   2.864  18.710  0.00  0.00    +0.000 A 
ATOM     19  F   UNL     1       2.550   1.536  18.838  0.00  0.00    +0.000 F 
ATOM     20  C   UNL     1       3.737   3.525  19.250  0.00  0.00    +0.000 A 
ATOM     21  C   UNL     1       3.859   4.905  19.085  0.00  0.00    +0.000 A 
ENDBRANCH  13  15
ENDBRANCH   8  13
BRANCH  10  22
ATOM     22  C   UNL     1       0.414  11.343  18.408  0.00  0.00    +0.000 C 
BRANCH  22  23
ATOM     23  C   UNL     1       1.194  12.636  18.596  0.00  0.00    +0.000 A 
ATOM     24  C   UNL     1       2.544  12.684  18.196  0.00  0.00    +0.000 A 
ATOM     25  C   UNL     1       3.260  13.879  18.193  0.00  0.00    +0.000 A 
ATOM     26  C   UNL     1       2.644  15.052  18.607  0.00  0.00    +0.000 A 
ATOM     27  C   UNL     1       1.320  15.028  19.036  0.00  0.00    +0.000 A 
ATOM     28  C   UNL     1       0.577  13.833  19.030  0.00  0.00    +0.000 A 
ATOM     29  C   UNL     1      -0.873  13.899  19.431  0.00  0.00    +0.000 C 
ENDBRANCH  22  23
ENDBRANCH  10  22
TORSDOF 4
ENDMDL
MODEL 5
REMARK VINA RESULT:      -8.4      1.950      2.344
REMARK  Name = 
REMARK  6 active torsions:
REMARK  status: ('A' for Active; 'I' for Inactive)
REMARK    1  A    between atoms: C_1  and  C_2
REMARK    2  A    between atoms: C_8  and  C_9
REMARK    3  A    between atoms: C_9  and  C_11
REMARK    4  A    between atoms: N_19  and  C_20
REMARK    5  A    between atoms: C_20  and  C_21
REMARK    6  A    between atoms: C_26  and  C_27
REMARK                            x       y       z     vdW  Elec       q    Type
REMARK                         _______ _______ _______ _____ _____    ______ ____
ROOT
ATOM      1  C   UNL     1      -0.815  11.972  22.726  0.00  0.00    +0.000 C 
ATOM      2  C   UNL     1      -0.146  10.758  22.154  0.00  0.00    +0.000 A 
ATOM      3  C   UNL     1       0.114   9.664  22.971  0.00  0.00    +0.000 A 
ATOM      4  C   UNL     1       0.661   8.531  22.395  0.00  0.00    +0.000 A 
ATOM      5  C   UNL     1       0.951   8.540  21.031  0.00  0.00    +0.000 A 
ATOM      6  C   UNL     1       1.478   7.323  20.401  0.00  0.00    +0.000 A 
ATOM      7  O   UNL     1       1.462   6.267  21.027  0.00  0.00    +0.000 OA
ATOM      8  C   UNL     1       1.996   7.415  19.015  0.00  0.00    +0.000 A 
ATOM      9  C   UNL     1       1.750   8.570  18.373  0.00  0.00    +0.000 A 
ATOM     10  N   UNL     1       1.101   9.679  18.901  0.00  0.00    +0.000 N 
ATOM     11  C   UNL     1       0.716   9.683  20.265  0.00  0.00    +0.000 A 
ATOM     12  N   UNL     1       0.139  10.773  20.828  0.00  0.00    +0.000 NA
ENDROOT
BRANCH   8  13
ATOM     13  C   UNL     1       2.675   6.302  18.291  0.00  0.00    +0.000 C 
ATOM     14  O   UNL     1       2.029   5.462  17.667  0.00  0.00    +0.000 OA
BRANCH  13  15
ATOM     15  C   UNL     1       4.162   6.216  18.293  0.00  0.00    +0.000 A 
ATOM     16  C   UNL     1       4.797   5.432  19.265  0.00  0.00    +0.000 A 
ATOM     17  C   UNL     1       6.196   5.303  19.269  0.00  0.00    +0.000 A 
ATOM     18  C   UNL     1       6.940   5.957  18.292  0.00  0.00    +0.000 A 
ATOM     19  F   UNL     1       8.270   5.819  18.280  0.00  0.00    +0.000 F 
ATOM     20  C   UNL     1       6.326   6.737  17.324  0.00  0.00    +0.000 A 
ATOM     21  C   UNL     1       4.936   6.852  17.311  0.00  0.00    +0.000 A 
ENDBRANCH  13  15
ENDBRANCH   8  13
BRANCH  10  22
ATOM     22  C   UNL     1       0.620  10.816  18.099  0.00  0.00    +0.000 C 
BRANCH  22  23
ATOM     23  C   UNL     1      -0.886  10.847  17.886  0.00  0.00    +0.000 A 
ATOM     24  C   UNL     1      -1.527   9.704  17.369  0.00  0.00    +0.000 A 
ATOM     25  C   UNL     1      -2.916   9.615  17.305  0.00  0.00    +0.000 A 
ATOM     26  C   UNL     1      -3.695  10.677  17.741  0.00  0.00    +0.000 A 
ATOM     27  C   UNL     1      -3.088  11.832  18.228  0.00  0.00    +0.000 A 
ATOM     28  C   UNL     1      -1.687  11.932  18.316  0.00  0.00    +0.000 A 
ATOM     29  C   UNL     1      -1.103  13.178  18.928  0.00  0.00    +0.000 C 
ENDBRANCH  22  23
ENDBRANCH  10  22
TORSDOF 4
ENDMDL
MODEL 6
REMARK VINA RESULT:      -8.3      4.635      7.747
REMARK  Name = 
REMARK  6 active torsions:
REMARK  status: ('A' for Active; 'I' for Inactive)
REMARK    1  A    between atoms: C_1  and  C_2
REMARK    2  A    between atoms: C_8  and  C_9
REMARK    3  A    between atoms: C_9  and  C_11
REMARK    4  A    between atoms: N_19  and  C_20
REMARK    5  A    between atoms: C_20  and  C_21
REMARK    6  A    between atoms: C_26  and  C_27
REMARK                            x       y       z     vdW  Elec       q    Type
REMARK                         _______ _______ _______ _____ _____    ______ ____
ROOT
ATOM      1  C   UNL     1       1.544   6.850  20.670  0.00  0.00    +0.000 C 
ATOM      2  C   UNL     1       2.422   6.748  19.458  0.00  0.00    +0.000 A 
ATOM      3  C   UNL     1       2.423   7.772  18.519  0.00  0.00    +0.000 A 
ATOM      4  C   UNL     1       3.301   7.684  17.453  0.00  0.00    +0.000 A 
ATOM      5  C   UNL     1       4.127   6.565  17.350  0.00  0.00    +0.000 A 
ATOM      6  C   UNL     1       5.102   6.489  16.254  0.00  0.00    +0.000 A 
ATOM      7  O   UNL     1       5.320   7.488  15.575  0.00  0.00    +0.000 OA
ATOM      8  C   UNL     1       5.802   5.204  16.023  0.00  0.00    +0.000 A 
ATOM      9  C   UNL     1       5.637   4.266  16.972  0.00  0.00    +0.000 A 
ATOM     10  N   UNL     1       4.846   4.382  18.109  0.00  0.00    +0.000 N 
ATOM     11  C   UNL     1       4.050   5.539  18.295  0.00  0.00    +0.000 A 
ATOM     12  N   UNL     1       3.219   5.655  19.359  0.00  0.00    +0.000 NA
ENDROOT
BRANCH   8  13
ATOM     13  C   UNL     1       6.720   4.936  14.878  0.00  0.00    +0.000 C 
ATOM     14  O   UNL     1       7.883   5.338  14.887  0.00  0.00    +0.000 OA
BRANCH  13  15
ATOM     15  C   UNL     1       6.238   4.145  13.712  0.00  0.00    +0.000 A 
ATOM     16  C   UNL     1       4.858   3.998  13.513  0.00  0.00    +0.000 A 
ATOM     17  C   UNL     1       4.374   3.288  12.402  0.00  0.00    +0.000 A 
ATOM     18  C   UNL     1       5.282   2.738  11.500  0.00  0.00    +0.000 A 
ATOM     19  F   UNL     1       4.823   2.080  10.430  0.00  0.00    +0.000 F 
ATOM     20  C   UNL     1       6.648   2.874  11.685  0.00  0.00    +0.000 A 
ATOM     21  C   UNL     1       7.129   3.593  12.780  0.00  0.00    +0.000 A 
ENDBRANCH  13  15
ENDBRANCH   8  13
BRANCH  10  22
ATOM     22  C   UNL     1       4.893   3.450  19.246  0.00  0.00    +0.000 C 
BRANCH  22  23
ATOM     23  C   UNL     1       3.531   3.008  19.760  0.00  0.00    +0.000 A 
ATOM     24  C   UNL     1       3.184   3.279  21.098  0.00  0.00    +0.000 A 
ATOM     25  C   UNL     1       1.897   3.047  21.578  0.00  0.00    +0.000 A 
ATOM     26  C   UNL     1       0.931   2.521  20.732  0.00  0.00    +0.000 A 
ATOM     27  C   UNL     1       1.254   2.216  19.412  0.00  0.00    +0.000 A 
ATOM     28  C   UNL     1       2.544   2.459  18.906  0.00  0.00    +0.000 A 
ATOM     29  C   UNL     1       2.798   2.179  17.449  0.00  0.00    +0.000 C 
ENDBRANCH  22  23
ENDBRANCH  10  22
TORSDOF 4
ENDMDL
MODEL 7
REMARK VINA RESULT:      -8.2      4.257      7.826
REMARK  Name = 
REMARK  6 active torsions:
REMARK  status: ('A' for Active; 'I' for Inactive)
REMARK    1  A    between atoms: C_1  and  C_2
REMARK    2  A    between atoms: C_8  and  C_9
REMARK    3  A    between atoms: C_9  and  C_11
REMARK    4  A    between atoms: N_19  and  C_20
REMARK    5  A    between atoms: C_20  and  C_21
REMARK    6  A    between atoms: C_26  and  C_27
REMARK                            x       y       z     vdW  Elec       q    Type
REMARK                         _______ _______ _______ _____ _____    ______ ____
ROOT
ATOM      1  C   UNL     1       2.244   8.254  17.930  0.00  0.00    +0.000 C 
ATOM      2  C   UNL     1       1.539   8.906  19.083  0.00  0.00    +0.000 A 
ATOM      3  C   UNL     1       1.402   8.220  20.284  0.00  0.00    +0.000 A 
ATOM      4  C   UNL     1       0.816   8.879  21.351  0.00  0.00    +0.000 A 
ATOM      5  C   UNL     1       0.368  10.187  21.173  0.00  0.00    +0.000 A 
ATOM      6  C   UNL     1      -0.202  10.913  22.315  0.00  0.00    +0.000 A 
ATOM      7  O   UNL     1      -0.088  10.443  23.443  0.00  0.00    +0.000 OA
ATOM      8  C   UNL     1      -0.881  12.205  22.060  0.00  0.00    +0.000 A 
ATOM      9  C   UNL     1      -0.739  12.709  20.821  0.00  0.00    +0.000 A 
ATOM     10  N   UNL     1      -0.057  12.111  19.768  0.00  0.00    +0.000 N 
ATOM     11  C   UNL     1       0.485  10.813  19.930  0.00  0.00    +0.000 A 
ATOM     12  N   UNL     1       1.100  10.176  18.903  0.00  0.00    +0.000 NA
ENDROOT
BRANCH   8  13
ATOM     13  C   UNL     1      -1.615  12.993  23.092  0.00  0.00    +0.000 C 
ATOM     14  O   UNL     1      -1.019  13.743  23.863  0.00  0.00    +0.000 OA
BRANCH  13  15
ATOM     15  C   UNL     1      -3.099  12.897  23.180  0.00  0.00    +0.000 A 
ATOM     16  C   UNL     1      -3.862  13.052  22.014  0.00  0.00    +0.000 A 
ATOM     17  C   UNL     1      -5.260  12.931  22.061  0.00  0.00    +0.000 A 
ATOM     18  C   UNL     1      -5.876  12.648  23.276  0.00  0.00    +0.000 A 
ATOM     19  F   UNL     1      -7.206  12.510  23.319  0.00  0.00    +0.000 F 
ATOM     20  C   UNL     1      -5.136  12.493  24.437  0.00  0.00    +0.000 A 
ATOM     21  C   UNL     1      -3.746  12.598  24.388  0.00  0.00    +0.000 A 
ENDBRANCH  13  15
ENDBRANCH   8  13
BRANCH  10  22
ATOM     22  C   UNL     1       0.300  12.801  18.518  0.00  0.00    +0.000 C 
BRANCH  22  23
ATOM     23  C   UNL     1       1.398  13.844  18.662  0.00  0.00    +0.000 A 
ATOM     24  C   UNL     1       2.743  13.440  18.550  0.00  0.00    +0.000 A 
ATOM     25  C   UNL     1       3.781  14.368  18.510  0.00  0.00    +0.000 A 
ATOM     26  C   UNL     1       3.497  15.724  18.599  0.00  0.00    +0.000 A 
ATOM     27  C   UNL     1       2.179  16.150  18.741  0.00  0.00    +0.000 A 
ATOM     28  C   UNL     1       1.117  15.227  18.766  0.00  0.00    +0.000 A 
ATOM     29  C   UNL     1      -0.287  15.766  18.840  0.00  0.00    +0.000 C 
ENDBRANCH  22  23
ENDBRANCH  10  22
TORSDOF 4
ENDMDL
MODEL 8
REMARK VINA RESULT:      -8.0      4.294      8.027
REMARK  Name = 
REMARK  6 active torsions:
REMARK  status: ('A' for Active; 'I' for Inactive)
REMARK    1  A    between atoms: C_1  and  C_2
REMARK    2  A    between atoms: C_8  and  C_9
REMARK    3  A    between atoms: C_9  and  C_11
REMARK    4  A    between atoms: N_19  and  C_20
REMARK    5  A    between atoms: C_20  and  C_21
REMARK    6  A    between atoms: C_26  and  C_27
REMARK                            x       y       z     vdW  Elec       q    Type
REMARK                         _______ _______ _______ _____ _____    ______ ____
ROOT
ATOM      1  C   UNL     1       2.398   7.940  18.219  0.00  0.00    +0.000 C 
ATOM      2  C   UNL     1       1.610   8.546  19.342  0.00  0.00    +0.000 A 
ATOM      3  C   UNL     1       1.647   7.963  20.603  0.00  0.00    +0.000 A 
ATOM      4  C   UNL     1       0.972   8.590  21.635  0.00  0.00    +0.000 A 
ATOM      5  C   UNL     1       0.265   9.761  21.366  0.00  0.00    +0.000 A 
ATOM      6  C   UNL     1      -0.406  10.465  22.467  0.00  0.00    +0.000 A 
ATOM      7  O   UNL     1      -0.168  10.134  23.624  0.00  0.00    +0.000 OA
ATOM      8  C   UNL     1      -1.338  11.568  22.133  0.00  0.00    +0.000 A 
ATOM      9  C   UNL     1      -1.335  11.971  20.850  0.00  0.00    +0.000 A 
ATOM     10  N   UNL     1      -0.577  11.424  19.822  0.00  0.00    +0.000 N 
ATOM     11  C   UNL     1       0.220  10.279  20.070  0.00  0.00    +0.000 A 
ATOM     12  N   UNL     1       0.920   9.682  19.074  0.00  0.00    +0.000 NA
ENDROOT
BRANCH   8  13
ATOM     13  C   UNL     1      -2.185  12.288  23.126  0.00  0.00    +0.000 C 
ATOM     14  O   UNL     1      -3.168  11.750  23.634  0.00  0.00    +0.000 OA
BRANCH  13  15
ATOM     15  C   UNL     1      -1.826  13.674  23.539  0.00  0.00    +0.000 A 
ATOM     16  C   UNL     1      -0.722  14.298  22.942  0.00  0.00    +0.000 A 
ATOM     17  C   UNL     1      -0.382  15.616  23.286  0.00  0.00    +0.000 A 
ATOM     18  C   UNL     1      -1.158  16.296  24.220  0.00  0.00    +0.000 A 
ATOM     19  F   UNL     1      -0.849  17.559  24.533  0.00  0.00    +0.000 F 
ATOM     20  C   UNL     1      -2.252  15.692  24.820  0.00  0.00    +0.000 A 
ATOM     21  C   UNL     1      -2.599  14.387  24.467  0.00  0.00    +0.000 A 
ENDBRANCH  13  15
ENDBRANCH   8  13
BRANCH  10  22
ATOM     22  C   UNL     1      -0.402  12.050  18.502  0.00  0.00    +0.000 C 
BRANCH  22  23
ATOM     23  C   UNL     1       0.310  13.394  18.528  0.00  0.00    +0.000 A 
ATOM     24  C   UNL     1      -0.420  14.546  18.881  0.00  0.00    +0.000 A 
ATOM     25  C   UNL     1       0.210  15.773  19.081  0.00  0.00    +0.000 A 
ATOM     26  C   UNL     1       1.583  15.878  18.915  0.00  0.00    +0.000 A 
ATOM     27  C   UNL     1       2.326  14.762  18.537  0.00  0.00    +0.000 A 
ATOM     28  C   UNL     1       1.709  13.512  18.348  0.00  0.00    +0.000 A 
ATOM     29  C   UNL     1       2.586  12.333  18.019  0.00  0.00    +0.000 C 
ENDBRANCH  22  23
ENDBRANCH  10  22
TORSDOF 4
ENDMDL
MODEL 9
REMARK VINA RESULT:      -7.9      5.372      9.563
REMARK  Name = 
REMARK  6 active torsions:
REMARK  status: ('A' for Active; 'I' for Inactive)
REMARK    1  A    between atoms: C_1  and  C_2
REMARK    2  A    between atoms: C_8  and  C_9
REMARK    3  A    between atoms: C_9  and  C_11
REMARK    4  A    between atoms: N_19  and  C_20
REMARK    5  A    between atoms: C_20  and  C_21
REMARK    6  A    between atoms: C_26  and  C_27
REMARK                            x       y       z     vdW  Elec       q    Type
REMARK                         _______ _______ _______ _____ _____    ______ ____
ROOT
ATOM      1  C   UNL     1      -2.840  11.064  15.625  0.00  0.00    +0.000 C 
ATOM      2  C   UNL     1      -3.569  11.421  16.886  0.00  0.00    +0.000 A 
ATOM      3  C   UNL     1      -4.956  11.354  16.923  0.00  0.00    +0.000 A 
ATOM      4  C   UNL     1      -5.594  11.614  18.123  0.00  0.00    +0.000 A 
ATOM      5  C   UNL     1      -4.825  11.956  19.235  0.00  0.00    +0.000 A 
ATOM      6  C   UNL     1      -5.489  12.177  20.527  0.00  0.00    +0.000 A 
ATOM      7  O   UNL     1      -6.667  11.861  20.659  0.00  0.00    +0.000 OA
ATOM      8  C   UNL     1      -4.696  12.762  21.634  0.00  0.00    +0.000 A 
ATOM      9  C   UNL     1      -3.371  12.852  21.424  0.00  0.00    +0.000 A 
ATOM     10  N   UNL     1      -2.700  12.489  20.263  0.00  0.00    +0.000 N 
ATOM     11  C   UNL     1      -3.437  12.058  19.132  0.00  0.00    +0.000 A 
ATOM     12  N   UNL     1      -2.818  11.759  17.964  0.00  0.00    +0.000 NA
ENDROOT
BRANCH   8  13
ATOM     13  C   UNL     1      -5.258  13.161  22.957  0.00  0.00    +0.000 C 
ATOM     14  O   UNL     1      -6.160  12.514  23.486  0.00  0.00    +0.000 OA
BRANCH  13  15
ATOM     15  C   UNL     1      -4.703  14.345  23.670  0.00  0.00    +0.000 A 
ATOM     16  C   UNL     1      -5.326  15.590  23.510  0.00  0.00    +0.000 A 
ATOM     17  C   UNL     1      -4.847  16.716  24.198  0.00  0.00    +0.000 A 
ATOM     18  C   UNL     1      -3.752  16.578  25.046  0.00  0.00    +0.000 A 
ATOM     19  F   UNL     1      -3.307  17.644  25.719  0.00  0.00    +0.000 F 
ATOM     20  C   UNL     1      -3.125  15.354  25.214  0.00  0.00    +0.000 A 
ATOM     21  C   UNL     1      -3.610  14.232  24.542  0.00  0.00    +0.000 A 
ENDBRANCH  13  15
ENDBRANCH   8  13
BRANCH  10  22
ATOM     22  C   UNL     1      -1.238  12.354  20.161  0.00  0.00    +0.000 C 
BRANCH  22  23
ATOM     23  C   UNL     1      -0.654  11.184  20.939  0.00  0.00    +0.000 A 
ATOM     24  C   UNL     1      -0.857  11.121  22.332  0.00  0.00    +0.000 A 
ATOM     25  C   UNL     1      -0.490   9.998  23.070  0.00  0.00    +0.000 A 
ATOM     26  C   UNL     1       0.105   8.918  22.433  0.00  0.00    +0.000 A 
ATOM     27  C   UNL     1       0.344   8.966  21.062  0.00  0.00    +0.000 A 
ATOM     28  C   UNL     1      -0.035  10.085  20.298  0.00  0.00    +0.000 A 
ATOM     29  C   UNL     1       0.182  10.032  18.809  0.00  0.00    +0.000 C 
ENDBRANCH  22  23
ENDBRANCH  10  22
TORSDOF 4
ENDMDL
