MODEL 1
REMARK VINA RESULT:      -8.1      0.000      0.000
REMARK  Name = 
REMARK  6 active torsions:
REMARK  status: ('A' for Active; 'I' for Inactive)
REMARK    1  A    between atoms: C_1  and  O_2
REMARK    2  A    between atoms: O_2  and  C_3
REMARK    3  A    between atoms: C_5  and  C_6
REMARK    4  A    between atoms: N_14  and  C_15
REMARK    5  A    between atoms: C_18  and  O_19
REMARK    6  A    between atoms: C_26  and  O_27
REMARK                            x       y       z     vdW  Elec       q    Type
REMARK                         _______ _______ _______ _____ _____    ______ ____
ROOT
ATOM      1  C   UNL     1       1.964   6.715  20.027  0.00  0.00    +0.000 A 
ATOM      2  C   UNL     1       1.559   5.742  20.948  0.00  0.00    +0.000 A 
ATOM      3  C   UNL     1       1.987   4.414  20.830  0.00  0.00    +0.000 A 
ATOM      4  C   UNL     1       2.831   4.003  19.809  0.00  0.00    +0.000 A 
ATOM      5  N   UNL     1       3.196   2.718  19.758  0.00  0.00    +0.000 NA
ATOM      6  C   UNL     1       4.008   2.367  18.757  0.00  0.00    +0.000 A 
ATOM      7  N   UNL     1       4.492   3.179  17.817  0.00  0.00    +0.000 NA
ATOM      8  C   UNL     1       4.137   4.475  17.887  0.00  0.00    +0.000 A 
ATOM      9  N   UNL     1       4.681   5.388  16.936  0.00  0.00    +0.000 N 
ATOM     10  C   UNL     1       3.267   4.954  18.882  0.00  0.00    +0.000 A 
ATOM     11  C   UNL     1       2.816   6.296  18.992  0.00  0.00    +0.000 A 
ATOM     12  H   UNL     1       5.171   6.122  17.438  0.00  0.00    +0.000 HD
ENDROOT
BRANCH   1  15
ATOM     13  C   UNL     1       0.791  10.020  21.526  0.00  0.00    +0.000 A 
ATOM     14  C   UNL     1       1.157   8.673  21.379  0.00  0.00    +0.000 A 
ATOM     15  C   UNL     1       1.544   8.126  20.143  0.00  0.00    +0.000 A 
ATOM     16  C   UNL     1       1.542   8.983  19.033  0.00  0.00    +0.000 A 
ATOM     17  C   UNL     1       1.191  10.330  19.159  0.00  0.00    +0.000 A 
ATOM     18  C   UNL     1       0.819  10.848  20.401  0.00  0.00    +0.000 A 
BRANCH  13  20
ATOM     19  C   UNL     1      -0.914  10.410  23.159  0.00  0.00    +0.000 C 
ATOM     20  O   UNL     1       0.462  10.341  22.815  0.00  0.00    +0.000 OA
ENDBRANCH  13  20
BRANCH  18  21
ATOM     21  O   UNL     1       0.495  12.173  20.478  0.00  0.00    +0.000 OA
ATOM     22  H   UNL     1      -0.267  12.282  21.070  0.00  0.00    +0.000 HD
ENDBRANCH  18  21
ENDBRANCH   1  15
BRANCH   9  23
ATOM     23  C   UNL     1       5.382   4.990  15.774  0.00  0.00    +0.000 A 
ATOM     24  C   UNL     1       6.737   5.309  15.613  0.00  0.00    +0.000 A 
ATOM     25  C   UNL     1       7.416   4.991  14.436  0.00  0.00    +0.000 A 
ATOM     26  C   UNL     1       6.734   4.337  13.418  0.00  0.00    +0.000 A 
ATOM     27  C   UNL     1       5.407   3.958  13.578  0.00  0.00    +0.000 A 
ATOM     28  C   UNL     1       4.732   4.280  14.758  0.00  0.00    +0.000 A 
BRANCH  26  29
ATOM     29  O   UNL     1       7.341   4.060  12.229  0.00  0.00    +0.000 OA
ATOM     30  H   UNL     1       8.084   3.459  12.404  0.00  0.00    +0.000 HD
ENDBRANCH  26  29
ENDBRANCH   9  23
TORSDOF 5
ENDMDL
MODEL 2
REMARK VINA RESULT:      -7.9      1.425      8.397
REMARK  Name = 
REMARK  6 active torsions:
REMARK  status: ('A' for Active; 'I' for Inactive)
REMARK    1  A    between atoms: C_1  and  O_2
REMARK    2  A    between atoms: O_2  and  C_3
REMARK    3  A    between atoms: C_5  and  C_6
REMARK    4  A    between atoms: N_14  and  C_15
REMARK    5  A    between atoms: C_18  and  O_19
REMARK    6  A    between atoms: C_26  and  O_27
REMARK                            x       y       z     vdW  Elec       q    Type
REMARK                         _______ _______ _______ _____ _____    ______ ____
ROOT
ATOM      1  C   UNL     1       4.541   4.020  17.049  0.00  0.00    +0.000 A 
ATOM      2  C   UNL     1       4.278   2.693  17.407  0.00  0.00    +0.000 A 
ATOM      3  C   UNL     1       3.344   2.385  18.404  0.00  0.00    +0.000 A 
ATOM      4  C   UNL     1       2.635   3.371  19.074  0.00  0.00    +0.000 A 
ATOM      5  N   UNL     1       1.761   3.003  20.017  0.00  0.00    +0.000 NA
ATOM      6  C   UNL     1       1.103   3.987  20.637  0.00  0.00    +0.000 A 
ATOM      7  N   UNL     1       1.230   5.292  20.395  0.00  0.00    +0.000 NA
ATOM      8  C   UNL     1       2.097   5.653  19.431  0.00  0.00    +0.000 A 
ATOM      9  N   UNL     1       2.218   7.034  19.100  0.00  0.00    +0.000 N 
ATOM     10  C   UNL     1       2.863   4.706  18.729  0.00  0.00    +0.000 A 
ATOM     11  C   UNL     1       3.825   5.016  17.731  0.00  0.00    +0.000 A 
ATOM     12  H   UNL     1       2.009   7.149  18.114  0.00  0.00    +0.000 HD
ENDROOT
BRANCH   1  15
ATOM     13  C   UNL     1       6.339   4.080  13.686  0.00  0.00    +0.000 A 
ATOM     14  C   UNL     1       5.461   3.741  14.728  0.00  0.00    +0.000 A 
ATOM     15  C   UNL     1       5.505   4.367  15.986  0.00  0.00    +0.000 A 
ATOM     16  C   UNL     1       6.484   5.353  16.179  0.00  0.00    +0.000 A 
ATOM     17  C   UNL     1       7.361   5.713  15.152  0.00  0.00    +0.000 A 
ATOM     18  C   UNL     1       7.288   5.080  13.909  0.00  0.00    +0.000 A 
BRANCH  13  20
ATOM     19  C   UNL     1       4.801   3.349  12.004  0.00  0.00    +0.000 C 
ATOM     20  O   UNL     1       6.113   3.355  12.548  0.00  0.00    +0.000 OA
ENDBRANCH  13  20
BRANCH  18  21
ATOM     21  O   UNL     1       8.159   5.472  12.932  0.00  0.00    +0.000 OA
ATOM     22  H   UNL     1       8.546   4.686  12.514  0.00  0.00    +0.000 HD
ENDBRANCH  18  21
ENDBRANCH   1  15
BRANCH   9  23
ATOM     23  C   UNL     1       1.669   8.081  19.877  0.00  0.00    +0.000 A 
ATOM     24  C   UNL     1       1.193   9.250  19.266  0.00  0.00    +0.000 A 
ATOM     25  C   UNL     1       0.724  10.320  20.029  0.00  0.00    +0.000 A 
ATOM     26  C   UNL     1       0.720  10.213  21.413  0.00  0.00    +0.000 A 
ATOM     27  C   UNL     1       1.131   9.043  22.039  0.00  0.00    +0.000 A 
ATOM     28  C   UNL     1       1.601   7.975  21.271  0.00  0.00    +0.000 A 
BRANCH  26  29
ATOM     29  O   UNL     1       0.326  11.255  22.199  0.00  0.00    +0.000 OA
ATOM     30  H   UNL     1       0.167  12.022  21.623  0.00  0.00    +0.000 HD
ENDBRANCH  26  29
ENDBRANCH   9  23
TORSDOF 5
ENDMDL
MODEL 3
REMARK VINA RESULT:      -7.8      0.420      1.018
REMARK  Name = 
REMARK  6 active torsions:
REMARK  status: ('A' for Active; 'I' for Inactive)
REMARK    1  A    between atoms: C_1  and  O_2
REMARK    2  A    between atoms: O_2  and  C_3
REMARK    3  A    between atoms: C_5  and  C_6
REMARK    4  A    between atoms: N_14  and  C_15
REMARK    5  A    between atoms: C_18  and  O_19
REMARK    6  A    between atoms: C_26  and  O_27
REMARK                            x       y       z     vdW  Elec       q    Type
REMARK                         _______ _______ _______ _____ _____    ______ ____
ROOT
ATOM      1  C   UNL     1       2.010   7.036  19.828  0.00  0.00    +0.000 A 
ATOM      2  C   UNL     1       1.669   6.130  20.839  0.00  0.00    +0.000 A 
ATOM      3  C   UNL     1       2.132   4.809  20.812  0.00  0.00    +0.000 A 
ATOM      4  C   UNL     1       2.949   4.339  19.794  0.00  0.00    +0.000 A 
ATOM      5  N   UNL     1       3.351   3.065  19.832  0.00  0.00    +0.000 NA
ATOM      6  C   UNL     1       4.135   2.656  18.831  0.00  0.00    +0.000 A 
ATOM      7  N   UNL     1       4.560   3.402  17.810  0.00  0.00    +0.000 NA
ATOM      8  C   UNL     1       4.168   4.689  17.790  0.00  0.00    +0.000 A 
ATOM      9  N   UNL     1       4.648   5.536  16.748  0.00  0.00    +0.000 N 
ATOM     10  C   UNL     1       3.322   5.224  18.778  0.00  0.00    +0.000 A 
ATOM     11  C   UNL     1       2.835   6.557  18.797  0.00  0.00    +0.000 A 
ATOM     12  H   UNL     1       5.134   6.321  17.170  0.00  0.00    +0.000 HD
ENDROOT
BRANCH   1  15
ATOM     13  C   UNL     1       0.718  10.394  21.093  0.00  0.00    +0.000 A 
ATOM     14  C   UNL     1       1.120   9.050  21.038  0.00  0.00    +0.000 A 
ATOM     15  C   UNL     1       1.552   8.440  19.847  0.00  0.00    +0.000 A 
ATOM     16  C   UNL     1       1.556   9.227  18.687  0.00  0.00    +0.000 A 
ATOM     17  C   UNL     1       1.169  10.569  18.722  0.00  0.00    +0.000 A 
ATOM     18  C   UNL     1       0.753  11.152  19.921  0.00  0.00    +0.000 A 
BRANCH  13  20
ATOM     19  C   UNL     1      -0.532   9.943  23.083  0.00  0.00    +0.000 C 
ATOM     20  O   UNL     1       0.347  10.783  22.352  0.00  0.00    +0.000 OA
ENDBRANCH  13  20
BRANCH  18  21
ATOM     21  O   UNL     1       0.394  12.470  19.909  0.00  0.00    +0.000 OA
ATOM     22  H   UNL     1       0.511  12.825  19.012  0.00  0.00    +0.000 HD
ENDBRANCH  18  21
ENDBRANCH   1  15
BRANCH   9  23
ATOM     23  C   UNL     1       5.317   5.064  15.596  0.00  0.00    +0.000 A 
ATOM     24  C   UNL     1       4.619   4.372  14.597  0.00  0.00    +0.000 A 
ATOM     25  C   UNL     1       5.284   3.834  13.495  0.00  0.00    +0.000 A 
ATOM     26  C   UNL     1       6.658   4.000  13.387  0.00  0.00    +0.000 A 
ATOM     27  C   UNL     1       7.364   4.732  14.334  0.00  0.00    +0.000 A 
ATOM     28  C   UNL     1       6.693   5.269  15.436  0.00  0.00    +0.000 A 
BRANCH  26  29
ATOM     29  O   UNL     1       7.357   3.440  12.359  0.00  0.00    +0.000 OA
ATOM     30  H   UNL     1       7.871   4.143  11.927  0.00  0.00    +0.000 HD
ENDBRANCH  26  29
ENDBRANCH   9  23
TORSDOF 5
ENDMDL
MODEL 4
REMARK VINA RESULT:      -7.7      3.012      8.261
REMARK  Name = 
REMARK  6 active torsions:
REMARK  status: ('A' for Active; 'I' for Inactive)
REMARK    1  A    between atoms: C_1  and  O_2
REMARK    2  A    between atoms: O_2  and  C_3
REMARK    3  A    between atoms: C_5  and  C_6
REMARK    4  A    between atoms: N_14  and  C_15
REMARK    5  A    between atoms: C_18  and  O_19
REMARK    6  A    between atoms: C_26  and  O_27
REMARK                            x       y       z     vdW  Elec       q    Type
REMARK                         _______ _______ _______ _____ _____    ______ ____
ROOT
ATOM      1  C   UNL     1       3.494   6.289  18.680  0.00  0.00    +0.000 A 
ATOM      2  C   UNL     1       3.117   5.430  19.719  0.00  0.00    +0.000 A 
ATOM      3  C   UNL     1       2.146   5.810  20.654  0.00  0.00    +0.000 A 
ATOM      4  C   UNL     1       1.513   7.042  20.594  0.00  0.00    +0.000 A 
ATOM      5  N   UNL     1       0.598   7.339  21.523  0.00  0.00    +0.000 NA
ATOM      6  C   UNL     1       0.015   8.537  21.426  0.00  0.00    +0.000 A 
ATOM      7  N   UNL     1       0.254   9.453  20.487  0.00  0.00    +0.000 NA
ATOM      8  C   UNL     1       1.161   9.139  19.543  0.00  0.00    +0.000 A 
ATOM      9  N   UNL     1       1.401  10.067  18.487  0.00  0.00    +0.000 N 
ATOM     10  C   UNL     1       1.855   7.917  19.559  0.00  0.00    +0.000 A 
ATOM     11  C   UNL     1       2.853   7.537  18.623  0.00  0.00    +0.000 A 
ATOM     12  H   UNL     1       1.216   9.603  17.604  0.00  0.00    +0.000 HD
ENDROOT
BRANCH   1  15
ATOM     13  C   UNL     1       6.690   6.241  16.601  0.00  0.00    +0.000 A 
ATOM     14  C   UNL     1       5.702   6.612  17.526  0.00  0.00    +0.000 A 
ATOM     15  C   UNL     1       4.498   5.900  17.669  0.00  0.00    +0.000 A 
ATOM     16  C   UNL     1       4.303   4.792  16.833  0.00  0.00    +0.000 A 
ATOM     17  C   UNL     1       5.278   4.400  15.912  0.00  0.00    +0.000 A 
ATOM     18  C   UNL     1       6.470   5.120  15.797  0.00  0.00    +0.000 A 
BRANCH  13  20
ATOM     19  C   UNL     1       7.793   8.127  17.578  0.00  0.00    +0.000 C 
ATOM     20  O   UNL     1       7.783   7.064  16.637  0.00  0.00    +0.000 OA
ENDBRANCH  13  20
BRANCH  18  21
ATOM     21  O   UNL     1       7.399   4.693  14.891  0.00  0.00    +0.000 OA
ATOM     22  H   UNL     1       6.978   4.603  14.021  0.00  0.00    +0.000 HD
ENDBRANCH  18  21
ENDBRANCH   1  15
BRANCH   9  23
ATOM     23  C   UNL     1       0.930  11.400  18.488  0.00  0.00    +0.000 A 
ATOM     24  C   UNL     1       1.822  12.473  18.616  0.00  0.00    +0.000 A 
ATOM     25  C   UNL     1       1.360  13.787  18.699  0.00  0.00    +0.000 A 
ATOM     26  C   UNL     1      -0.006  14.029  18.640  0.00  0.00    +0.000 A 
ATOM     27  C   UNL     1      -0.906  12.987  18.454  0.00  0.00    +0.000 A 
ATOM     28  C   UNL     1      -0.439  11.673  18.373  0.00  0.00    +0.000 A 
BRANCH  26  29
ATOM     29  O   UNL     1      -0.505  15.289  18.776  0.00  0.00    +0.000 OA
ATOM     30  H   UNL     1      -0.966  15.341  19.630  0.00  0.00    +0.000 HD
ENDBRANCH  26  29
ENDBRANCH   9  23
TORSDOF 5
ENDMDL
MODEL 5
REMARK VINA RESULT:      -7.6      0.740      1.772
REMARK  Name = 
REMARK  6 active torsions:
REMARK  status: ('A' for Active; 'I' for Inactive)
REMARK    1  A    between atoms: C_1  and  O_2
REMARK    2  A    between atoms: O_2  and  C_3
REMARK    3  A    between atoms: C_5  and  C_6
REMARK    4  A    between atoms: N_14  and  C_15
REMARK    5  A    between atoms: C_18  and  O_19
REMARK    6  A    between atoms: C_26  and  O_27
REMARK                            x       y       z     vdW  Elec       q    Type
REMARK                         _______ _______ _______ _____ _____    ______ ____
ROOT
ATOM      1  C   UNL     1       1.909   6.422  20.044  0.00  0.00    +0.000 A 
ATOM      2  C   UNL     1       1.387   5.385  20.828  0.00  0.00    +0.000 A 
ATOM      3  C   UNL     1       1.719   4.050  20.571  0.00  0.00    +0.000 A 
ATOM      4  C   UNL     1       2.577   3.691  19.543  0.00  0.00    +0.000 A 
ATOM      5  N   UNL     1       2.846   2.395  19.355  0.00  0.00    +0.000 NA
ATOM      6  C   UNL     1       3.677   2.097  18.351  0.00  0.00    +0.000 A 
ATOM      7  N   UNL     1       4.266   2.970  17.533  0.00  0.00    +0.000 NA
ATOM      8  C   UNL     1       4.006   4.274  17.742  0.00  0.00    +0.000 A 
ATOM      9  N   UNL     1       4.663   5.242  16.927  0.00  0.00    +0.000 N 
ATOM     10  C   UNL     1       3.128   4.704  18.752  0.00  0.00    +0.000 A 
ATOM     11  C   UNL     1       2.775   6.056  19.002  0.00  0.00    +0.000 A 
ATOM     12  H   UNL     1       5.182   5.872  17.531  0.00  0.00    +0.000 HD
ENDROOT
BRANCH   1  15
ATOM     13  C   UNL     1       1.221  10.132  19.490  0.00  0.00    +0.000 A 
ATOM     14  C   UNL     1       1.558   8.787  19.271  0.00  0.00    +0.000 A 
ATOM     15  C   UNL     1       1.591   7.839  20.310  0.00  0.00    +0.000 A 
ATOM     16  C   UNL     1       1.283   8.291  21.602  0.00  0.00    +0.000 A 
ATOM     17  C   UNL     1       0.936   9.623  21.839  0.00  0.00    +0.000 A 
ATOM     18  C   UNL     1       0.902  10.541  20.786  0.00  0.00    +0.000 A 
BRANCH  13  20
ATOM     19  C   UNL     1       2.292  11.812  18.165  0.00  0.00    +0.000 C 
ATOM     20  O   UNL     1       1.241  10.874  18.340  0.00  0.00    +0.000 OA
ENDBRANCH  13  20
BRANCH  18  21
ATOM     21  O   UNL     1       0.545  11.830  21.064  0.00  0.00    +0.000 OA
ATOM     22  H   UNL     1       0.260  11.890  21.991  0.00  0.00    +0.000 HD
ENDBRANCH  18  21
ENDBRANCH   1  15
BRANCH   9  23
ATOM     23  C   UNL     1       5.387   4.925  15.755  0.00  0.00    +0.000 A 
ATOM     24  C   UNL     1       6.742   5.266  15.637  0.00  0.00    +0.000 A 
ATOM     25  C   UNL     1       7.443   5.029  14.454  0.00  0.00    +0.000 A 
ATOM     26  C   UNL     1       6.785   4.435  13.386  0.00  0.00    +0.000 A 
ATOM     27  C   UNL     1       5.460   4.034  13.499  0.00  0.00    +0.000 A 
ATOM     28  C   UNL     1       4.761   4.274  14.685  0.00  0.00    +0.000 A 
BRANCH  26  29
ATOM     29  O   UNL     1       7.414   4.239  12.193  0.00  0.00    +0.000 OA
ATOM     30  H   UNL     1       7.939   3.423  12.260  0.00  0.00    +0.000 HD
ENDBRANCH  26  29
ENDBRANCH   9  23
TORSDOF 5
ENDMDL
MODEL 6
REMARK VINA RESULT:      -7.5      4.981      9.456
REMARK  Name = 
REMARK  6 active torsions:
REMARK  status: ('A' for Active; 'I' for Inactive)
REMARK    1  A    between atoms: C_1  and  O_2
REMARK    2  A    between atoms: O_2  and  C_3
REMARK    3  A    between atoms: C_5  and  C_6
REMARK    4  A    between atoms: N_14  and  C_15
REMARK    5  A    between atoms: C_18  and  O_19
REMARK    6  A    between atoms: C_26  and  O_27
REMARK                            x       y       z     vdW  Elec       q    Type
REMARK                         _______ _______ _______ _____ _____    ______ ____
ROOT
ATOM      1  C   UNL     1       0.839   9.081  20.928  0.00  0.00    +0.000 A 
ATOM      2  C   UNL     1       0.154   8.721  22.094  0.00  0.00    +0.000 A 
ATOM      3  C   UNL     1      -0.521   9.680  22.860  0.00  0.00    +0.000 A 
ATOM      4  C   UNL     1      -0.550  11.019  22.501  0.00  0.00    +0.000 A 
ATOM      5  N   UNL     1      -1.212  11.878  23.282  0.00  0.00    +0.000 NA
ATOM      6  C   UNL     1      -1.211  13.158  22.897  0.00  0.00    +0.000 A 
ATOM      7  N   UNL     1      -0.622  13.650  21.806  0.00  0.00    +0.000 NA
ATOM      8  C   UNL     1       0.025  12.775  21.014  0.00  0.00    +0.000 A 
ATOM      9  N   UNL     1       0.616  13.251  19.807  0.00  0.00    +0.000 N 
ATOM     10  C   UNL     1       0.111  11.408  21.332  0.00  0.00    +0.000 A 
ATOM     11  C   UNL     1       0.811  10.438  20.567  0.00  0.00    +0.000 A 
ATOM     12  H   UNL     1       0.219  12.734  19.029  0.00  0.00    +0.000 HD
ENDROOT
BRANCH   1  15
ATOM     13  C   UNL     1       2.347   5.785  19.743  0.00  0.00    +0.000 A 
ATOM     14  C   UNL     1       1.721   6.762  20.533  0.00  0.00    +0.000 A 
ATOM     15  C   UNL     1       1.538   8.085  20.092  0.00  0.00    +0.000 A 
ATOM     16  C   UNL     1       2.022   8.410  18.816  0.00  0.00    +0.000 A 
ATOM     17  C   UNL     1       2.639   7.450  18.010  0.00  0.00    +0.000 A 
ATOM     18  C   UNL     1       2.799   6.141  18.470  0.00  0.00    +0.000 A 
BRANCH  13  20
ATOM     19  C   UNL     1       1.191   3.917  20.692  0.00  0.00    +0.000 C 
ATOM     20  O   UNL     1       2.410   4.566  20.362  0.00  0.00    +0.000 OA
ENDBRANCH  13  20
BRANCH  18  21
ATOM     21  O   UNL     1       3.398   5.234  17.642  0.00  0.00    +0.000 OA
ATOM     22  H   UNL     1       3.027   5.322  16.749  0.00  0.00    +0.000 HD
ENDBRANCH  18  21
ENDBRANCH   1  15
BRANCH   9  23
ATOM     23  C   UNL     1       0.780  14.621  19.497  0.00  0.00    +0.000 A 
ATOM     24  C   UNL     1      -0.232  15.330  18.836  0.00  0.00    +0.000 A 
ATOM     25  C   UNL     1      -0.048  16.660  18.455  0.00  0.00    +0.000 A 
ATOM     26  C   UNL     1       1.155  17.287  18.749  0.00  0.00    +0.000 A 
ATOM     27  C   UNL     1       2.151  16.623  19.456  0.00  0.00    +0.000 A 
ATOM     28  C   UNL     1       1.962  15.292  19.835  0.00  0.00    +0.000 A 
BRANCH  26  29
ATOM     29  O   UNL     1       1.401  18.565  18.344  0.00  0.00    +0.000 OA
ATOM     30  H   UNL     1       0.768  19.150  18.793  0.00  0.00    +0.000 HD
ENDBRANCH  26  29
ENDBRANCH   9  23
TORSDOF 5
ENDMDL
MODEL 7
REMARK VINA RESULT:      -7.3      3.549      8.521
REMARK  Name = 
REMARK  6 active torsions:
REMARK  status: ('A' for Active; 'I' for Inactive)
REMARK    1  A    between atoms: C_1  and  O_2
REMARK    2  A    between atoms: O_2  and  C_3
REMARK    3  A    between atoms: C_5  and  C_6
REMARK    4  A    between atoms: N_14  and  C_15
REMARK    5  A    between atoms: C_18  and  O_19
REMARK    6  A    between atoms: C_26  and  O_27
REMARK                            x       y       z     vdW  Elec       q    Type
REMARK                         _______ _______ _______ _____ _____    ______ ____
ROOT
ATOM      1  C   UNL     1       2.499   6.956  19.202  0.00  0.00    +0.000 A 
ATOM      2  C   UNL     1       1.941   6.263  20.283  0.00  0.00    +0.000 A 
ATOM      3  C   UNL     1       1.101   6.908  21.199  0.00  0.00    +0.000 A 
ATOM      4  C   UNL     1       0.777   8.251  21.077  0.00  0.00    +0.000 A 
ATOM      5  N   UNL     1      -0.029   8.801  21.991  0.00  0.00    +0.000 NA
ATOM      6  C   UNL     1      -0.312  10.097  21.834  0.00  0.00    +0.000 A 
ATOM      7  N   UNL     1       0.125  10.884  20.850  0.00  0.00    +0.000 NA
ATOM      8  C   UNL     1       0.919  10.318  19.923  0.00  0.00    +0.000 A 
ATOM      9  N   UNL     1       1.359  11.109  18.822  0.00  0.00    +0.000 N 
ATOM     10  C   UNL     1       1.304   8.968  19.999  0.00  0.00    +0.000 A 
ATOM     11  C   UNL     1       2.172   8.316  19.083  0.00  0.00    +0.000 A 
ATOM     12  H   UNL     1       1.059  10.660  17.962  0.00  0.00    +0.000 HD
ENDROOT
BRANCH   1  15
ATOM     13  C   UNL     1       4.202   4.234  17.144  0.00  0.00    +0.000 A 
ATOM     14  C   UNL     1       3.414   4.890  18.103  0.00  0.00    +0.000 A 
ATOM     15  C   UNL     1       3.369   6.291  18.211  0.00  0.00    +0.000 A 
ATOM     16  C   UNL     1       4.162   7.031  17.322  0.00  0.00    +0.000 A 
ATOM     17  C   UNL     1       4.946   6.397  16.354  0.00  0.00    +0.000 A 
ATOM     18  C   UNL     1       4.965   5.004  16.263  0.00  0.00    +0.000 A 
BRANCH  13  20
ATOM     19  C   UNL     1       2.943   2.323  17.846  0.00  0.00    +0.000 C 
ATOM     20  O   UNL     1       4.088   2.872  17.209  0.00  0.00    +0.000 OA
ENDBRANCH  13  20
BRANCH  18  21
ATOM     21  O   UNL     1       5.737   4.430  15.293  0.00  0.00    +0.000 OA
ATOM     22  H   UNL     1       5.417   3.529  15.121  0.00  0.00    +0.000 HD
ENDBRANCH  18  21
ENDBRANCH   1  15
BRANCH   9  23
ATOM     23  C   UNL     1       1.218  12.514  18.756  0.00  0.00    +0.000 A 
ATOM     24  C   UNL     1       2.333  13.352  18.898  0.00  0.00    +0.000 A 
ATOM     25  C   UNL     1       2.192  14.740  18.915  0.00  0.00    +0.000 A 
ATOM     26  C   UNL     1       0.926  15.294  18.776  0.00  0.00    +0.000 A 
ATOM     27  C   UNL     1      -0.186  14.486  18.574  0.00  0.00    +0.000 A 
ATOM     28  C   UNL     1      -0.040  13.096  18.558  0.00  0.00    +0.000 A 
BRANCH  26  29
ATOM     29  O   UNL     1       0.735  16.641  18.845  0.00  0.00    +0.000 OA
ATOM     30  H   UNL     1       1.475  17.074  18.388  0.00  0.00    +0.000 HD
ENDBRANCH  26  29
ENDBRANCH   9  23
TORSDOF 5
ENDMDL
MODEL 8
REMARK VINA RESULT:      -7.2      1.344      8.429
REMARK  Name = 
REMARK  6 active torsions:
REMARK  status: ('A' for Active; 'I' for Inactive)
REMARK    1  A    between atoms: C_1  and  O_2
REMARK    2  A    between atoms: O_2  and  C_3
REMARK    3  A    between atoms: C_5  and  C_6
REMARK    4  A    between atoms: N_14  and  C_15
REMARK    5  A    between atoms: C_18  and  O_19
REMARK    6  A    between atoms: C_26  and  O_27
REMARK                            x       y       z     vdW  Elec       q    Type
REMARK                         _______ _______ _______ _____ _____    ______ ____
ROOT
ATOM      1  C   UNL     1       4.698   3.969  16.815  0.00  0.00    +0.000 A 
ATOM      2  C   UNL     1       4.568   2.713  17.419  0.00  0.00    +0.000 A 
ATOM      3  C   UNL     1       3.760   2.536  18.549  0.00  0.00    +0.000 A 
ATOM      4  C   UNL     1       3.050   3.584  19.115  0.00  0.00    +0.000 A 
ATOM      5  N   UNL     1       2.301   3.341  20.195  0.00  0.00    +0.000 NA
ATOM      6  C   UNL     1       1.637   4.381  20.708  0.00  0.00    +0.000 A 
ATOM      7  N   UNL     1       1.645   5.628  20.237  0.00  0.00    +0.000 NA
ATOM      8  C   UNL     1       2.386   5.860  19.137  0.00  0.00    +0.000 A 
ATOM      9  N   UNL     1       2.374   7.167  18.566  0.00  0.00    +0.000 N 
ATOM     10  C   UNL     1       3.146   4.848  18.526  0.00  0.00    +0.000 A 
ATOM     11  C   UNL     1       3.982   5.030  17.392  0.00  0.00    +0.000 A 
ATOM     12  H   UNL     1       2.062   7.094  17.603  0.00  0.00    +0.000 HD
ENDROOT
BRANCH   1  15
ATOM     13  C   UNL     1       6.025   3.669  13.252  0.00  0.00    +0.000 A 
ATOM     14  C   UNL     1       5.279   3.463  14.424  0.00  0.00    +0.000 A 
ATOM     15  C   UNL     1       5.526   4.176  15.610  0.00  0.00    +0.000 A 
ATOM     16  C   UNL     1       6.573   5.110  15.593  0.00  0.00    +0.000 A 
ATOM     17  C   UNL     1       7.321   5.337  14.435  0.00  0.00    +0.000 A 
ATOM     18  C   UNL     1       7.047   4.621  13.267  0.00  0.00    +0.000 A 
BRANCH  13  20
ATOM     19  C   UNL     1       4.407   3.226  11.546  0.00  0.00    +0.000 C 
ATOM     20  O   UNL     1       5.609   2.878  12.216  0.00  0.00    +0.000 OA
ENDBRANCH  13  20
BRANCH  18  21
ATOM     21  O   UNL     1       7.798   4.884  12.156  0.00  0.00    +0.000 OA
ATOM     22  H   UNL     1       7.374   5.594  11.646  0.00  0.00    +0.000 HD
ENDBRANCH  18  21
ENDBRANCH   1  15
BRANCH   9  23
ATOM     23  C   UNL     1       1.829   8.302  19.209  0.00  0.00    +0.000 A 
ATOM     24  C   UNL     1       1.555   8.283  20.584  0.00  0.00    +0.000 A 
ATOM     25  C   UNL     1       0.944   9.369  21.211  0.00  0.00    +0.000 A 
ATOM     26  C   UNL     1       0.614  10.488  20.457  0.00  0.00    +0.000 A 
ATOM     27  C   UNL     1       0.928  10.554  19.105  0.00  0.00    +0.000 A 
ATOM     28  C   UNL     1       1.540   9.463  18.482  0.00  0.00    +0.000 A 
BRANCH  26  29
ATOM     29  O   UNL     1      -0.037  11.546  21.016  0.00  0.00    +0.000 OA
ATOM     30  H   UNL     1      -0.596  11.210  21.736  0.00  0.00    +0.000 HD
ENDBRANCH  26  29
ENDBRANCH   9  23
TORSDOF 5
ENDMDL
MODEL 9
REMARK VINA RESULT:      -7.2      1.824      8.049
REMARK  Name = 
REMARK  6 active torsions:
REMARK  status: ('A' for Active; 'I' for Inactive)
REMARK    1  A    between atoms: C_1  and  O_2
REMARK    2  A    between atoms: O_2  and  C_3
REMARK    3  A    between atoms: C_5  and  C_6
REMARK    4  A    between atoms: N_14  and  C_15
REMARK    5  A    between atoms: C_18  and  O_19
REMARK    6  A    between atoms: C_26  and  O_27
REMARK                            x       y       z     vdW  Elec       q    Type
REMARK                         _______ _______ _______ _____ _____    ______ ____
ROOT
ATOM      1  C   UNL     1       4.308   4.176  17.318  0.00  0.00    +0.000 A 
ATOM      2  C   UNL     1       3.984   2.837  17.567  0.00  0.00    +0.000 A 
ATOM      3  C   UNL     1       2.988   2.495  18.490  0.00  0.00    +0.000 A 
ATOM      4  C   UNL     1       2.275   3.456  19.190  0.00  0.00    +0.000 A 
ATOM      5  N   UNL     1       1.340   3.056  20.057  0.00  0.00    +0.000 NA
ATOM      6  C   UNL     1       0.680   4.016  20.711  0.00  0.00    +0.000 A 
ATOM      7  N   UNL     1       0.861   5.330  20.569  0.00  0.00    +0.000 NA
ATOM      8  C   UNL     1       1.790   5.726  19.679  0.00  0.00    +0.000 A 
ATOM      9  N   UNL     1       1.973   7.122  19.453  0.00  0.00    +0.000 N 
ATOM     10  C   UNL     1       2.563   4.804  18.952  0.00  0.00    +0.000 A 
ATOM     11  C   UNL     1       3.588   5.148  18.031  0.00  0.00    +0.000 A 
ATOM     12  H   UNL     1       1.822   7.311  18.468  0.00  0.00    +0.000 HD
ENDROOT
BRANCH   1  15
ATOM     13  C   UNL     1       7.288   5.933  15.713  0.00  0.00    +0.000 A 
ATOM     14  C   UNL     1       6.274   5.574  16.614  0.00  0.00    +0.000 A 
ATOM     15  C   UNL     1       5.339   4.562  16.334  0.00  0.00    +0.000 A 
ATOM     16  C   UNL     1       5.444   3.916  15.093  0.00  0.00    +0.000 A 
ATOM     17  C   UNL     1       6.452   4.252  14.186  0.00  0.00    +0.000 A 
ATOM     18  C   UNL     1       7.373   5.255  14.495  0.00  0.00    +0.000 A 
BRANCH  13  20
ATOM     19  C   UNL     1       7.703   7.591  17.388  0.00  0.00    +0.000 C 
ATOM     20  O   UNL     1       8.092   6.932  16.193  0.00  0.00    +0.000 OA
ENDBRANCH  13  20
BRANCH  18  21
ATOM     21  O   UNL     1       8.348   5.541  13.581  0.00  0.00    +0.000 OA
ATOM     22  H   UNL     1       9.213   5.532  14.024  0.00  0.00    +0.000 HD
ENDBRANCH  18  21
ENDBRANCH   1  15
BRANCH   9  23
ATOM     23  C   UNL     1       1.415   8.131  20.272  0.00  0.00    +0.000 A 
ATOM     24  C   UNL     1       0.702   9.197  19.707  0.00  0.00    +0.000 A 
ATOM     25  C   UNL     1       0.218  10.239  20.499  0.00  0.00    +0.000 A 
ATOM     26  C   UNL     1       0.439  10.206  21.869  0.00  0.00    +0.000 A 
ATOM     27  C   UNL     1       1.092   9.131  22.459  0.00  0.00    +0.000 A 
ATOM     28  C   UNL     1       1.575   8.091  21.662  0.00  0.00    +0.000 A 
BRANCH  26  29
ATOM     29  O   UNL     1       0.036  11.231  22.672  0.00  0.00    +0.000 OA
ATOM     30  H   UNL     1       0.809  11.789  22.858  0.00  0.00    +0.000 HD
ENDBRANCH  26  29
ENDBRANCH   9  23
TORSDOF 5
ENDMDL
