MODEL 1
REMARK VINA RESULT:      -6.7      0.000      0.000
REMARK  Name = 
REMARK  7 active torsions:
REMARK  status: ('A' for Active; 'I' for Inactive)
REMARK    1  A    between atoms: C_2  and  C_3
REMARK    2  A    between atoms: C_3  and  C_4
REMARK    3  A    between atoms: C_4  and  N_5
REMARK    4  A    between atoms: N_5  and  S_6
REMARK    5  A    between atoms: S_6  and  C_9
REMARK    6  A    between atoms: N_15  and  C_16
REMARK    7  A    between atoms: C_16  and  C_17
REMARK                            x       y       z     vdW  Elec       q    Type
REMARK                         _______ _______ _______ _____ _____    ______ ____
ROOT
ATOM      1  C   UNL     1       3.066   1.723  18.554  0.00  0.00    +0.000 C 
ENDROOT
BRANCH   1   3
ATOM      2  O   UNL     1       2.497   3.365  16.886  0.00  0.00    +0.000 OA
ATOM      3  C   UNL     1       3.379   2.773  17.504  0.00  0.00    +0.000 C 
ATOM      4  N   UNL     1       4.718   2.985  17.288  0.00  0.00    +0.000 N 
ATOM      5  H   UNL     1       5.406   2.436  17.787  0.00  0.00    +0.000 HD
BRANCH   4   6
ATOM      6  C   UNL     1       5.208   3.949  16.322  0.00  0.00    +0.000 C 
BRANCH   6   7
ATOM      7  C   UNL     1       6.066   5.004  16.977  0.00  0.00    +0.000 A 
ATOM      8  C   UNL     1       6.937   4.622  18.015  0.00  0.00    +0.000 A 
ATOM      9  C   UNL     1       7.757   5.558  18.648  0.00  0.00    +0.000 A 
ATOM     10  C   UNL     1       7.730   6.893  18.250  0.00  0.00    +0.000 A 
ATOM     11  C   UNL     1       6.881   7.289  17.220  0.00  0.00    +0.000 A 
ATOM     12  C   UNL     1       6.055   6.351  16.585  0.00  0.00    +0.000 A 
ATOM     13 CL   UNL     1       5.036   6.923  15.311  0.00  0.00    +0.000 Cl
ENDBRANCH   6   7
ENDBRANCH   4   6
ENDBRANCH   1   3
BRANCH   1  14
ATOM     14  C   UNL     1       3.222   2.341  19.940  0.00  0.00    +0.000 C 
BRANCH  14  15
ATOM     15  N   UNL     1       3.483   3.798  19.846  0.00  0.00    +0.000 NA
ATOM     16  H   UNL     1       3.792   4.109  18.923  0.00  0.00    +0.000 HD
BRANCH  15  17
ATOM     17  S   UNL     1       2.174   4.782  20.307  0.00  0.00    +0.000 S 
ATOM     18  O   UNL     1       0.965   4.111  19.888  0.00  0.00    +0.000 OA
ATOM     19  O   UNL     1       2.388   5.157  21.688  0.00  0.00    +0.000 OA
BRANCH  17  20
ATOM     20  C   UNL     1       2.258   6.302  19.396  0.00  0.00    +0.000 A 
ATOM     21  C   UNL     1       2.784   6.610  18.153  0.00  0.00    +0.000 A 
ATOM     22  C   UNL     1       2.597   7.980  17.807  0.00  0.00    +0.000 A 
ATOM     23  C   UNL     1       1.935   8.652  18.803  0.00  0.00    +0.000 A 
ATOM     24 BR   UNL     1       1.493  10.469  18.704  0.00  0.00    +0.000 Br
ATOM     25  S   UNL     1       1.544   7.674  20.131  0.00  0.00    +0.000 S 
ENDBRANCH  17  20
ENDBRANCH  15  17
ENDBRANCH  14  15
ENDBRANCH   1  14
TORSDOF 7
ENDMDL
MODEL 2
REMARK VINA RESULT:      -6.5      4.877      6.387
REMARK  Name = 
REMARK  7 active torsions:
REMARK  status: ('A' for Active; 'I' for Inactive)
REMARK    1  A    between atoms: C_2  and  C_3
REMARK    2  A    between atoms: C_3  and  C_4
REMARK    3  A    between atoms: C_4  and  N_5
REMARK    4  A    between atoms: N_5  and  S_6
REMARK    5  A    between atoms: S_6  and  C_9
REMARK    6  A    between atoms: N_15  and  C_16
REMARK    7  A    between atoms: C_16  and  C_17
REMARK                            x       y       z     vdW  Elec       q    Type
REMARK                         _______ _______ _______ _____ _____    ______ ____
ROOT
ATOM      1  C   UNL     1       8.060   6.652  18.780  0.00  0.00    +0.000 C 
ENDROOT
BRANCH   1   3
ATOM      2  O   UNL     1       7.364   7.974  16.890  0.00  0.00    +0.000 OA
ATOM      3  C   UNL     1       7.967   7.925  17.960  0.00  0.00    +0.000 C 
ATOM      4  N   UNL     1       8.628   9.002  18.498  0.00  0.00    +0.000 N 
ATOM      5  H   UNL     1       9.152   8.899  19.357  0.00  0.00    +0.000 HD
BRANCH   4   6
ATOM      6  C   UNL     1       8.652  10.302  17.855  0.00  0.00    +0.000 C 
BRANCH   6   7
ATOM      7  C   UNL     1       9.288  11.347  18.739  0.00  0.00    +0.000 A 
ATOM      8  C   UNL     1      10.237  10.939  19.696  0.00  0.00    +0.000 A 
ATOM      9  C   UNL     1      10.859  11.866  20.534  0.00  0.00    +0.000 A 
ATOM     10  C   UNL     1      10.553  13.221  20.426  0.00  0.00    +0.000 A 
ATOM     11  C   UNL     1       9.622  13.645  19.480  0.00  0.00    +0.000 A 
ATOM     12  C   UNL     1       8.995  12.715  18.641  0.00  0.00    +0.000 A 
ATOM     13 CL   UNL     1       7.858  13.324  17.490  0.00  0.00    +0.000 Cl
ENDBRANCH   6   7
ENDBRANCH   4   6
ENDBRANCH   1   3
BRANCH   1  14
ATOM     14  C   UNL     1       6.866   5.761  18.456  0.00  0.00    +0.000 C 
BRANCH  14  15
ATOM     15  N   UNL     1       7.141   4.914  17.270  0.00  0.00    +0.000 NA
ATOM     16  H   UNL     1       7.471   3.974  17.495  0.00  0.00    +0.000 HD
BRANCH  15  17
ATOM     17  S   UNL     1       5.832   4.755  16.196  0.00  0.00    +0.000 S 
ATOM     18  O   UNL     1       5.781   5.960  15.400  0.00  0.00    +0.000 OA
ATOM     19  O   UNL     1       5.941   3.450  15.580  0.00  0.00    +0.000 OA
BRANCH  17  20
ATOM     20  C   UNL     1       4.329   4.699  17.136  0.00  0.00    +0.000 A 
ATOM     21  C   UNL     1       3.463   5.694  17.560  0.00  0.00    +0.000 A 
ATOM     22  C   UNL     1       2.347   5.172  18.278  0.00  0.00    +0.000 A 
ATOM     23  C   UNL     1       2.413   3.805  18.365  0.00  0.00    +0.000 A 
ATOM     24 BR   UNL     1       1.115   2.762  19.223  0.00  0.00    +0.000 Br
ATOM     25  S   UNL     1       3.782   3.148  17.612  0.00  0.00    +0.000 S 
ENDBRANCH  17  20
ENDBRANCH  15  17
ENDBRANCH  14  15
ENDBRANCH   1  14
TORSDOF 7
ENDMDL
MODEL 3
REMARK VINA RESULT:      -6.4      2.419      4.460
REMARK  Name = 
REMARK  7 active torsions:
REMARK  status: ('A' for Active; 'I' for Inactive)
REMARK    1  A    between atoms: C_2  and  C_3
REMARK    2  A    between atoms: C_3  and  C_4
REMARK    3  A    between atoms: C_4  and  N_5
REMARK    4  A    between atoms: N_5  and  S_6
REMARK    5  A    between atoms: S_6  and  C_9
REMARK    6  A    between atoms: N_15  and  C_16
REMARK    7  A    between atoms: C_16  and  C_17
REMARK                            x       y       z     vdW  Elec       q    Type
REMARK                         _______ _______ _______ _____ _____    ______ ____
ROOT
ATOM      1  C   UNL     1       5.018   5.549  16.273  0.00  0.00    +0.000 C 
ENDROOT
BRANCH   1   3
ATOM      2  O   UNL     1       5.929   4.011  17.888  0.00  0.00    +0.000 OA
ATOM      3  C   UNL     1       5.002   4.300  17.135  0.00  0.00    +0.000 C 
ATOM      4  N   UNL     1       3.886   3.515  16.984  0.00  0.00    +0.000 N 
ATOM      5  H   UNL     1       3.172   3.770  16.314  0.00  0.00    +0.000 HD
BRANCH   4   6
ATOM      6  C   UNL     1       3.695   2.282  17.723  0.00  0.00    +0.000 C 
BRANCH   6   7
ATOM      7  C   UNL     1       2.843   2.497  18.950  0.00  0.00    +0.000 A 
ATOM      8  C   UNL     1       1.469   2.756  18.785  0.00  0.00    +0.000 A 
ATOM      9  C   UNL     1       0.636   2.955  19.889  0.00  0.00    +0.000 A 
ATOM     10  C   UNL     1       1.158   2.889  21.179  0.00  0.00    +0.000 A 
ATOM     11  C   UNL     1       2.513   2.627  21.362  0.00  0.00    +0.000 A 
ATOM     12  C   UNL     1       3.351   2.429  20.256  0.00  0.00    +0.000 A 
ATOM     13 CL   UNL     1       5.019   2.101  20.571  0.00  0.00    +0.000 Cl
ENDBRANCH   6   7
ENDBRANCH   4   6
ENDBRANCH   1   3
BRANCH   1  14
ATOM     14  C   UNL     1       4.566   6.740  17.112  0.00  0.00    +0.000 C 
BRANCH  14  15
ATOM     15  N   UNL     1       4.221   6.318  18.492  0.00  0.00    +0.000 NA
ATOM     16  H   UNL     1       4.716   6.832  19.222  0.00  0.00    +0.000 HD
BRANCH  15  17
ATOM     17  S   UNL     1       2.561   6.378  18.856  0.00  0.00    +0.000 S 
ATOM     18  O   UNL     1       1.860   5.725  17.774  0.00  0.00    +0.000 OA
ATOM     19  O   UNL     1       2.408   5.939  20.226  0.00  0.00    +0.000 OA
BRANCH  17  20
ATOM     20  C   UNL     1       2.041   8.075  18.852  0.00  0.00    +0.000 A 
ATOM     21  C   UNL     1       2.067   9.050  17.870  0.00  0.00    +0.000 A 
ATOM     22  C   UNL     1       1.507  10.284  18.314  0.00  0.00    +0.000 A 
ATOM     23  C   UNL     1       1.078  10.189  19.613  0.00  0.00    +0.000 A 
ATOM     24 BR   UNL     1       0.271  11.604  20.538  0.00  0.00    +0.000 Br
ATOM     25  S   UNL     1       1.339   8.662  20.299  0.00  0.00    +0.000 S 
ENDBRANCH  17  20
ENDBRANCH  15  17
ENDBRANCH  14  15
ENDBRANCH   1  14
TORSDOF 7
ENDMDL
MODEL 4
REMARK VINA RESULT:      -6.4      4.351      5.707
REMARK  Name = 
REMARK  7 active torsions:
REMARK  status: ('A' for Active; 'I' for Inactive)
REMARK    1  A    between atoms: C_2  and  C_3
REMARK    2  A    between atoms: C_3  and  C_4
REMARK    3  A    between atoms: C_4  and  N_5
REMARK    4  A    between atoms: N_5  and  S_6
REMARK    5  A    between atoms: S_6  and  C_9
REMARK    6  A    between atoms: N_15  and  C_16
REMARK    7  A    between atoms: C_16  and  C_17
REMARK                            x       y       z     vdW  Elec       q    Type
REMARK                         _______ _______ _______ _____ _____    ______ ____
ROOT
ATOM      1  C   UNL     1       8.108   6.262  18.626  0.00  0.00    +0.000 C 
ENDROOT
BRANCH   1   3
ATOM      2  O   UNL     1       7.087   7.886  17.168  0.00  0.00    +0.000 OA
ATOM      3  C   UNL     1       7.860   7.662  18.097  0.00  0.00    +0.000 C 
ATOM      4  N   UNL     1       8.585   8.646  18.723  0.00  0.00    +0.000 N 
ATOM      5  H   UNL     1       9.246   8.406  19.450  0.00  0.00    +0.000 HD
BRANCH   4   6
ATOM      6  C   UNL     1       8.482  10.045  18.352  0.00  0.00    +0.000 C 
BRANCH   6   7
ATOM      7  C   UNL     1       9.715  10.817  18.754  0.00  0.00    +0.000 A 
ATOM      8  C   UNL     1      10.657  11.153  17.763  0.00  0.00    +0.000 A 
ATOM      9  C   UNL     1      11.811  11.873  18.080  0.00  0.00    +0.000 A 
ATOM     10  C   UNL     1      12.042  12.280  19.393  0.00  0.00    +0.000 A 
ATOM     11  C   UNL     1      11.118  11.963  20.386  0.00  0.00    +0.000 A 
ATOM     12  C   UNL     1       9.961  11.238  20.069  0.00  0.00    +0.000 A 
ATOM     13 CL   UNL     1       8.862  10.893  21.358  0.00  0.00    +0.000 Cl
ENDBRANCH   6   7
ENDBRANCH   4   6
ENDBRANCH   1   3
BRANCH   1  14
ATOM     14  C   UNL     1       6.815   5.720  19.228  0.00  0.00    +0.000 C 
BRANCH  14  15
ATOM     15  N   UNL     1       6.499   4.376  18.686  0.00  0.00    +0.000 NA
ATOM     16  H   UNL     1       6.414   3.648  19.397  0.00  0.00    +0.000 HD
BRANCH  15  17
ATOM     17  S   UNL     1       5.102   4.314  17.718  0.00  0.00    +0.000 S 
ATOM     18  O   UNL     1       5.491   4.690  16.378  0.00  0.00    +0.000 OA
ATOM     19  O   UNL     1       4.451   3.049  17.987  0.00  0.00    +0.000 OA
BRANCH  17  20
ATOM     20  C   UNL     1       3.963   5.550  18.286  0.00  0.00    +0.000 A 
ATOM     21  C   UNL     1       3.211   5.655  19.445  0.00  0.00    +0.000 A 
ATOM     22  C   UNL     1       2.445   6.857  19.487  0.00  0.00    +0.000 A 
ATOM     23  C   UNL     1       2.650   7.612  18.360  0.00  0.00    +0.000 A 
ATOM     24 BR   UNL     1       1.826   9.267  18.064  0.00  0.00    +0.000 Br
ATOM     25  S   UNL     1       3.732   6.905  17.264  0.00  0.00    +0.000 S 
ENDBRANCH  17  20
ENDBRANCH  15  17
ENDBRANCH  14  15
ENDBRANCH   1  14
TORSDOF 7
ENDMDL
MODEL 5
REMARK VINA RESULT:      -6.3      4.919      6.459
REMARK  Name = 
REMARK  7 active torsions:
REMARK  status: ('A' for Active; 'I' for Inactive)
REMARK    1  A    between atoms: C_2  and  C_3
REMARK    2  A    between atoms: C_3  and  C_4
REMARK    3  A    between atoms: C_4  and  N_5
REMARK    4  A    between atoms: N_5  and  S_6
REMARK    5  A    between atoms: S_6  and  C_9
REMARK    6  A    between atoms: N_15  and  C_16
REMARK    7  A    between atoms: C_16  and  C_17
REMARK                            x       y       z     vdW  Elec       q    Type
REMARK                         _______ _______ _______ _____ _____    ______ ____
ROOT
ATOM      1  C   UNL     1       8.265   6.692  18.941  0.00  0.00    +0.000 C 
ENDROOT
BRANCH   1   3
ATOM      2  O   UNL     1       7.586   8.124  17.126  0.00  0.00    +0.000 OA
ATOM      3  C   UNL     1       8.191   8.009  18.190  0.00  0.00    +0.000 C 
ATOM      4  N   UNL     1       8.872   9.044  18.781  0.00  0.00    +0.000 N 
ATOM      5  H   UNL     1       9.397   8.886  19.632  0.00  0.00    +0.000 HD
BRANCH   4   6
ATOM      6  C   UNL     1       8.916  10.376  18.208  0.00  0.00    +0.000 C 
BRANCH   6   7
ATOM      7  C   UNL     1       9.437  11.389  19.198  0.00  0.00    +0.000 A 
ATOM      8  C   UNL     1       9.210  11.174  20.571  0.00  0.00    +0.000 A 
ATOM      9  C   UNL     1       9.678  12.077  21.528  0.00  0.00    +0.000 A 
ATOM     10  C   UNL     1      10.390  13.208  21.133  0.00  0.00    +0.000 A 
ATOM     11  C   UNL     1      10.630  13.434  19.780  0.00  0.00    +0.000 A 
ATOM     12  C   UNL     1      10.159  12.530  18.818  0.00  0.00    +0.000 A 
ATOM     13 CL   UNL     1      10.507  12.879  17.161  0.00  0.00    +0.000 Cl
ENDBRANCH   6   7
ENDBRANCH   4   6
ENDBRANCH   1   3
BRANCH   1  14
ATOM     14  C   UNL     1       7.504   5.628  18.158  0.00  0.00    +0.000 C 
BRANCH  14  15
ATOM     15  N   UNL     1       6.044   5.733  18.400  0.00  0.00    +0.000 NA
ATOM     16  H   UNL     1       5.722   6.679  18.612  0.00  0.00    +0.000 HD
BRANCH  15  17
ATOM     17  S   UNL     1       5.074   5.131  17.139  0.00  0.00    +0.000 S 
ATOM     18  O   UNL     1       4.542   6.270  16.426  0.00  0.00    +0.000 OA
ATOM     19  O   UNL     1       5.841   4.108  16.460  0.00  0.00    +0.000 OA
BRANCH  17  20
ATOM     20  C   UNL     1       3.689   4.277  17.846  0.00  0.00    +0.000 A 
ATOM     21  C   UNL     1       2.686   3.508  17.278  0.00  0.00    +0.000 A 
ATOM     22  C   UNL     1       1.784   2.987  18.252  0.00  0.00    +0.000 A 
ATOM     23  C   UNL     1       2.143   3.382  19.516  0.00  0.00    +0.000 A 
ATOM     24 BR   UNL     1       1.206   2.882  21.058  0.00  0.00    +0.000 Br
ATOM     25  S   UNL     1       3.527   4.360  19.548  0.00  0.00    +0.000 S 
ENDBRANCH  17  20
ENDBRANCH  15  17
ENDBRANCH  14  15
ENDBRANCH   1  14
TORSDOF 7
ENDMDL
MODEL 6
REMARK VINA RESULT:      -6.3      2.590      5.314
REMARK  Name = 
REMARK  7 active torsions:
REMARK  status: ('A' for Active; 'I' for Inactive)
REMARK    1  A    between atoms: C_2  and  C_3
REMARK    2  A    between atoms: C_3  and  C_4
REMARK    3  A    between atoms: C_4  and  N_5
REMARK    4  A    between atoms: N_5  and  S_6
REMARK    5  A    between atoms: S_6  and  C_9
REMARK    6  A    between atoms: N_15  and  C_16
REMARK    7  A    between atoms: C_16  and  C_17
REMARK                            x       y       z     vdW  Elec       q    Type
REMARK                         _______ _______ _______ _____ _____    ______ ____
ROOT
ATOM      1  C   UNL     1       0.736   3.122  20.465  0.00  0.00    +0.000 C 
ENDROOT
BRANCH   1   3
ATOM      2  O   UNL     1       2.505   4.017  21.835  0.00  0.00    +0.000 OA
ATOM      3  C   UNL     1       1.666   4.215  20.959  0.00  0.00    +0.000 C 
ATOM      4  N   UNL     1       1.474   5.439  20.367  0.00  0.00    +0.000 N 
ATOM      5  H   UNL     1       0.737   5.565  19.687  0.00  0.00    +0.000 HD
BRANCH   4   6
ATOM      6  C   UNL     1       2.267   6.604  20.712  0.00  0.00    +0.000 C 
BRANCH   6   7
ATOM      7  C   UNL     1       1.571   7.885  20.322  0.00  0.00    +0.000 A 
ATOM      8  C   UNL     1       0.684   8.480  21.238  0.00  0.00    +0.000 A 
ATOM      9  C   UNL     1       0.020   9.670  20.928  0.00  0.00    +0.000 A 
ATOM     10  C   UNL     1       0.237  10.291  19.701  0.00  0.00    +0.000 A 
ATOM     11  C   UNL     1       1.116   9.721  18.784  0.00  0.00    +0.000 A 
ATOM     12  C   UNL     1       1.781   8.526  19.092  0.00  0.00    +0.000 A 
ATOM     13 CL   UNL     1       2.861   7.888  17.903  0.00  0.00    +0.000 Cl
ENDBRANCH   6   7
ENDBRANCH   4   6
ENDBRANCH   1   3
BRANCH   1  14
ATOM     14  C   UNL     1       1.475   2.261  19.446  0.00  0.00    +0.000 C 
BRANCH  14  15
ATOM     15  N   UNL     1       2.742   2.907  19.024  0.00  0.00    +0.000 NA
ATOM     16  H   UNL     1       3.551   2.284  19.031  0.00  0.00    +0.000 HD
BRANCH  15  17
ATOM     17  S   UNL     1       2.680   3.652  17.496  0.00  0.00    +0.000 S 
ATOM     18  O   UNL     1       2.636   2.600  16.507  0.00  0.00    +0.000 OA
ATOM     19  O   UNL     1       1.654   4.671  17.559  0.00  0.00    +0.000 OA
BRANCH  17  20
ATOM     20  C   UNL     1       4.196   4.537  17.234  0.00  0.00    +0.000 A 
ATOM     21  C   UNL     1       4.808   5.006  16.084  0.00  0.00    +0.000 A 
ATOM     22  C   UNL     1       6.023   5.699  16.359  0.00  0.00    +0.000 A 
ATOM     23  C   UNL     1       6.278   5.727  17.707  0.00  0.00    +0.000 A 
ATOM     24 BR   UNL     1       7.778   6.564  18.455  0.00  0.00    +0.000 Br
ATOM     25  S   UNL     1       5.097   4.940  18.633  0.00  0.00    +0.000 S 
ENDBRANCH  17  20
ENDBRANCH  15  17
ENDBRANCH  14  15
ENDBRANCH   1  14
TORSDOF 7
ENDMDL
MODEL 7
REMARK VINA RESULT:      -6.3      2.816      4.960
REMARK  Name = 
REMARK  7 active torsions:
REMARK  status: ('A' for Active; 'I' for Inactive)
REMARK    1  A    between atoms: C_2  and  C_3
REMARK    2  A    between atoms: C_3  and  C_4
REMARK    3  A    between atoms: C_4  and  N_5
REMARK    4  A    between atoms: N_5  and  S_6
REMARK    5  A    between atoms: S_6  and  C_9
REMARK    6  A    between atoms: N_15  and  C_16
REMARK    7  A    between atoms: C_16  and  C_17
REMARK                            x       y       z     vdW  Elec       q    Type
REMARK                         _______ _______ _______ _____ _____    ______ ____
ROOT
ATOM      1  C   UNL     1       7.505   5.014  17.621  0.00  0.00    +0.000 C 
ENDROOT
BRANCH   1   3
ATOM      2  O   UNL     1       7.038   5.299  19.967  0.00  0.00    +0.000 OA
ATOM      3  C   UNL     1       6.751   4.743  18.909  0.00  0.00    +0.000 C 
ATOM      4  N   UNL     1       5.745   3.814  18.798  0.00  0.00    +0.000 N 
ATOM      5  H   UNL     1       5.580   3.347  17.916  0.00  0.00    +0.000 HD
BRANCH   4   6
ATOM      6  C   UNL     1       4.917   3.425  19.924  0.00  0.00    +0.000 C 
BRANCH   6   7
ATOM      7  C   UNL     1       3.526   3.042  19.482  0.00  0.00    +0.000 A 
ATOM      8  C   UNL     1       3.366   2.355  18.264  0.00  0.00    +0.000 A 
ATOM      9  C   UNL     1       2.101   1.971  17.814  0.00  0.00    +0.000 A 
ATOM     10  C   UNL     1       0.971   2.259  18.577  0.00  0.00    +0.000 A 
ATOM     11  C   UNL     1       1.110   2.931  19.789  0.00  0.00    +0.000 A 
ATOM     12  C   UNL     1       2.378   3.319  20.240  0.00  0.00    +0.000 A 
ATOM     13 CL   UNL     1       2.464   4.143  21.757  0.00  0.00    +0.000 Cl
ENDBRANCH   6   7
ENDBRANCH   4   6
ENDBRANCH   1   3
BRANCH   1  14
ATOM     14  C   UNL     1       6.896   6.231  16.932  0.00  0.00    +0.000 C 
BRANCH  14  15
ATOM     15  N   UNL     1       5.769   6.781  17.724  0.00  0.00    +0.000 NA
ATOM     16  H   UNL     1       5.910   7.742  18.041  0.00  0.00    +0.000 HD
BRANCH  15  17
ATOM     17  S   UNL     1       4.258   6.713  16.946  0.00  0.00    +0.000 S 
ATOM     18  O   UNL     1       4.400   7.382  15.673  0.00  0.00    +0.000 OA
ATOM     19  O   UNL     1       3.796   5.343  17.030  0.00  0.00    +0.000 OA
BRANCH  17  20
ATOM     20  C   UNL     1       3.089   7.654  17.892  0.00  0.00    +0.000 A 
ATOM     21  C   UNL     1       2.376   8.806  17.602  0.00  0.00    +0.000 A 
ATOM     22  C   UNL     1       1.516   9.195  18.671  0.00  0.00    +0.000 A 
ATOM     23  C   UNL     1       1.612   8.320  19.723  0.00  0.00    +0.000 A 
ATOM     24 BR   UNL     1       0.621   8.494  21.303  0.00  0.00    +0.000 Br
ATOM     25  S   UNL     1       2.710   7.058  19.451  0.00  0.00    +0.000 S 
ENDBRANCH  17  20
ENDBRANCH  15  17
ENDBRANCH  14  15
ENDBRANCH   1  14
TORSDOF 7
ENDMDL
MODEL 8
REMARK VINA RESULT:      -6.3      2.564      5.146
REMARK  Name = 
REMARK  7 active torsions:
REMARK  status: ('A' for Active; 'I' for Inactive)
REMARK    1  A    between atoms: C_2  and  C_3
REMARK    2  A    between atoms: C_3  and  C_4
REMARK    3  A    between atoms: C_4  and  N_5
REMARK    4  A    between atoms: N_5  and  S_6
REMARK    5  A    between atoms: S_6  and  C_9
REMARK    6  A    between atoms: N_15  and  C_16
REMARK    7  A    between atoms: C_16  and  C_17
REMARK                            x       y       z     vdW  Elec       q    Type
REMARK                         _______ _______ _______ _____ _____    ______ ____
ROOT
ATOM      1  C   UNL     1       0.616   3.256  20.204  0.00  0.00    +0.000 C 
ENDROOT
BRANCH   1   3
ATOM      2  O   UNL     1       2.223   4.191  21.737  0.00  0.00    +0.000 OA
ATOM      3  C   UNL     1       1.583   4.318  20.695  0.00  0.00    +0.000 C 
ATOM      4  N   UNL     1       1.664   5.431  19.896  0.00  0.00    +0.000 N 
ATOM      5  H   UNL     1       1.080   5.510  19.074  0.00  0.00    +0.000 HD
BRANCH   4   6
ATOM      6  C   UNL     1       2.533   6.551  20.205  0.00  0.00    +0.000 C 
BRANCH   6   7
ATOM      7  C   UNL     1       1.947   7.857  19.728  0.00  0.00    +0.000 A 
ATOM      8  C   UNL     1       1.128   8.593  20.605  0.00  0.00    +0.000 A 
ATOM      9  C   UNL     1       0.567   9.811  20.214  0.00  0.00    +0.000 A 
ATOM     10  C   UNL     1       0.822  10.322  18.943  0.00  0.00    +0.000 A 
ATOM     11  C   UNL     1       1.636   9.611  18.064  0.00  0.00    +0.000 A 
ATOM     12  C   UNL     1       2.197   8.388  18.454  0.00  0.00    +0.000 A 
ATOM     13 CL   UNL     1       3.201   7.573  17.307  0.00  0.00    +0.000 Cl
ENDBRANCH   6   7
ENDBRANCH   4   6
ENDBRANCH   1   3
BRANCH   1  14
ATOM     14  C   UNL     1       1.379   2.235  19.366  0.00  0.00    +0.000 C 
BRANCH  14  15
ATOM     15  N   UNL     1       2.207   2.907  18.335  0.00  0.00    +0.000 NA
ATOM     16  H   UNL     1       2.136   3.926  18.340  0.00  0.00    +0.000 HD
BRANCH  15  17
ATOM     17  S   UNL     1       3.860   2.507  18.385  0.00  0.00    +0.000 S 
ATOM     18  O   UNL     1       4.256   2.493  19.774  0.00  0.00    +0.000 OA
ATOM     19  O   UNL     1       4.045   1.349  17.536  0.00  0.00    +0.000 OA
BRANCH  17  20
ATOM     20  C   UNL     1       4.782   3.805  17.603  0.00  0.00    +0.000 A 
ATOM     21  C   UNL     1       4.872   4.212  16.282  0.00  0.00    +0.000 A 
ATOM     22  C   UNL     1       5.729   5.340  16.118  0.00  0.00    +0.000 A 
ATOM     23  C   UNL     1       6.250   5.741  17.323  0.00  0.00    +0.000 A 
ATOM     24 BR   UNL     1       7.407   7.201  17.511  0.00  0.00    +0.000 Br
ATOM     25  S   UNL     1       5.734   4.791  18.629  0.00  0.00    +0.000 S 
ENDBRANCH  17  20
ENDBRANCH  15  17
ENDBRANCH  14  15
ENDBRANCH   1  14
TORSDOF 7
ENDMDL
MODEL 9
REMARK VINA RESULT:      -6.2      3.941      5.121
REMARK  Name = 
REMARK  7 active torsions:
REMARK  status: ('A' for Active; 'I' for Inactive)
REMARK    1  A    between atoms: C_2  and  C_3
REMARK    2  A    between atoms: C_3  and  C_4
REMARK    3  A    between atoms: C_4  and  N_5
REMARK    4  A    between atoms: N_5  and  S_6
REMARK    5  A    between atoms: S_6  and  C_9
REMARK    6  A    between atoms: N_15  and  C_16
REMARK    7  A    between atoms: C_16  and  C_17
REMARK                            x       y       z     vdW  Elec       q    Type
REMARK                         _______ _______ _______ _____ _____    ______ ____
ROOT
ATOM      1  C   UNL     1       7.968   6.045  18.582  0.00  0.00    +0.000 C 
ENDROOT
BRANCH   1   3
ATOM      2  O   UNL     1       6.915   7.363  16.861  0.00  0.00    +0.000 OA
ATOM      3  C   UNL     1       7.670   7.330  17.830  0.00  0.00    +0.000 C 
ATOM      4  N   UNL     1       8.330   8.436  18.305  0.00  0.00    +0.000 N 
ATOM      5  H   UNL     1       8.980   8.349  19.075  0.00  0.00    +0.000 HD
BRANCH   4   6
ATOM      6  C   UNL     1       8.171   9.751  17.713  0.00  0.00    +0.000 C 
BRANCH   6   7
ATOM      7  C   UNL     1       8.883  10.811  18.519  0.00  0.00    +0.000 A 
ATOM      8  C   UNL     1       9.736  10.410  19.564  0.00  0.00    +0.000 A 
ATOM      9  C   UNL     1      10.423  11.351  20.334  0.00  0.00    +0.000 A 
ATOM     10  C   UNL     1      10.278  12.711  20.069  0.00  0.00    +0.000 A 
ATOM     11  C   UNL     1       9.443  13.127  19.035  0.00  0.00    +0.000 A 
ATOM     12  C   UNL     1       8.751  12.184  18.263  0.00  0.00    +0.000 A 
ATOM     13 CL   UNL     1       7.742  12.783  16.993  0.00  0.00    +0.000 Cl
ENDBRANCH   6   7
ENDBRANCH   4   6
ENDBRANCH   1   3
BRANCH   1  14
ATOM     14  C   UNL     1       6.663   5.466  19.117  0.00  0.00    +0.000 C 
BRANCH  14  15
ATOM     15  N   UNL     1       5.961   4.682  18.071  0.00  0.00    +0.000 NA
ATOM     16  H   UNL     1       6.473   3.857  17.753  0.00  0.00    +0.000 HD
BRANCH  15  17
ATOM     17  S   UNL     1       4.392   4.181  18.497  0.00  0.00    +0.000 S 
ATOM     18  O   UNL     1       3.816   3.542  17.336  0.00  0.00    +0.000 OA
ATOM     19  O   UNL     1       4.494   3.491  19.765  0.00  0.00    +0.000 OA
BRANCH  17  20
ATOM     20  C   UNL     1       3.408   5.619  18.831  0.00  0.00    +0.000 A 
ATOM     21  C   UNL     1       2.619   5.971  19.914  0.00  0.00    +0.000 A 
ATOM     22  C   UNL     1       2.026   7.258  19.757  0.00  0.00    +0.000 A 
ATOM     23  C   UNL     1       2.391   7.826  18.564  0.00  0.00    +0.000 A 
ATOM     24 BR   UNL     1       1.821   9.523  18.012  0.00  0.00    +0.000 Br
ATOM     25  S   UNL     1       3.420   6.848  17.639  0.00  0.00    +0.000 S 
ENDBRANCH  17  20
ENDBRANCH  15  17
ENDBRANCH  14  15
ENDBRANCH   1  14
TORSDOF 7
ENDMDL
