MODEL 1
REMARK VINA RESULT:      -7.7      0.000      0.000
REMARK  Name = 
REMARK  8 active torsions:
REMARK  status: ('A' for Active; 'I' for Inactive)
REMARK    1  A    between atoms: C_2  and  C_3
REMARK    2  A    between atoms: C_3  and  O_4
REMARK    3  A    between atoms: O_4  and  C_5
REMARK    4  A    between atoms: C_5  and  C_7
REMARK    5  A    between atoms: C_7  and  O_8
REMARK    6  A    between atoms: O_8  and  C_9
REMARK    7  A    between atoms: C_14  and  N_15
REMARK    8  A    between atoms: N_18  and  C_19
REMARK                            x       y       z     vdW  Elec       q    Type
REMARK                         _______ _______ _______ _____ _____    ______ ____
ROOT
ATOM      1  C   UNL     1       7.395   5.803  19.567  0.00  0.00    +0.000 C 
ATOM      2  O   UNL     1       8.038   5.304  20.484  0.00  0.00    +0.000 OA
ENDROOT
BRANCH   1   3
ATOM      3  O   UNL     1       7.934   6.547  18.569  0.00  0.00    +0.000 OA
BRANCH   3   4
ATOM      4  C   UNL     1       7.246   6.450  17.326  0.00  0.00    +0.000 C 
BRANCH   4   6
ATOM      5  O   UNL     1       7.933   4.201  16.757  0.00  0.00    +0.000 OA
ATOM      6  C   UNL     1       7.435   5.257  16.371  0.00  0.00    +0.000 C 
ATOM      7  N   UNL     1       7.071   5.484  15.071  0.00  0.00    +0.000 N 
ATOM      8  H   UNL     1       6.895   6.449  14.796  0.00  0.00    +0.000 HD
BRANCH   7   9
ATOM      9  C   UNL     1       7.230   4.529  14.003  0.00  0.00    +0.000 C 
ATOM     10  C   UNL     1       5.890   3.896  13.654  0.00  0.00    +0.000 C 
ATOM     11  C   UNL     1       6.106   3.323  12.266  0.00  0.00    +0.000 C 
ATOM     12  C   UNL     1       7.129   4.239  11.596  0.00  0.00    +0.000 C 
ATOM     13  C   UNL     1       7.663   5.169  12.686  0.00  0.00    +0.000 C 
ENDBRANCH   7   9
ENDBRANCH   4   6
ENDBRANCH   3   4
ENDBRANCH   1   3
BRANCH   1  14
ATOM     14  C   UNL     1       5.938   5.495  19.312  0.00  0.00    +0.000 C 
BRANCH  14  15
ATOM     15  O   UNL     1       5.601   4.120  19.363  0.00  0.00    +0.000 OA
BRANCH  15  16
ATOM     16  C   UNL     1       4.316   3.856  18.957  0.00  0.00    +0.000 A 
ATOM     17  C   UNL     1       3.650   4.628  17.997  0.00  0.00    +0.000 A 
ATOM     18  C   UNL     1       2.346   4.316  17.607  0.00  0.00    +0.000 A 
ATOM     19  C   UNL     1       1.696   3.204  18.134  0.00  0.00    +0.000 A 
ATOM     20  C   UNL     1       2.351   2.395  19.059  0.00  0.00    +0.000 A 
ATOM     21  C   UNL     1       3.652   2.728  19.462  0.00  0.00    +0.000 A 
BRANCH  21  22
ATOM     22  N   UNL     1       4.285   1.891  20.458  0.00  0.00    +0.000 N 
ATOM     23  O   UNL     1       5.111   1.057  20.061  0.00  0.00    +0.000 OA
ATOM     24  O   UNL     1       4.005   2.117  21.643  0.00  0.00    +0.000 OA
ENDBRANCH  21  22
ENDBRANCH  15  16
ENDBRANCH  14  15
ENDBRANCH   1  14
TORSDOF 8
ENDMDL
MODEL 2
REMARK VINA RESULT:      -7.3      1.537      1.866
REMARK  Name = 
REMARK  8 active torsions:
REMARK  status: ('A' for Active; 'I' for Inactive)
REMARK    1  A    between atoms: C_2  and  C_3
REMARK    2  A    between atoms: C_3  and  O_4
REMARK    3  A    between atoms: O_4  and  C_5
REMARK    4  A    between atoms: C_5  and  C_7
REMARK    5  A    between atoms: C_7  and  O_8
REMARK    6  A    between atoms: O_8  and  C_9
REMARK    7  A    between atoms: C_14  and  N_15
REMARK    8  A    between atoms: N_18  and  C_19
REMARK                            x       y       z     vdW  Elec       q    Type
REMARK                         _______ _______ _______ _____ _____    ______ ____
ROOT
ATOM      1  C   UNL     1       5.171   6.547  17.811  0.00  0.00    +0.000 C 
ATOM      2  O   UNL     1       4.357   6.784  16.925  0.00  0.00    +0.000 OA
ENDROOT
BRANCH   1   3
ATOM      3  O   UNL     1       6.314   7.250  18.009  0.00  0.00    +0.000 OA
BRANCH   3   4
ATOM      4  C   UNL     1       7.399   6.854  17.175  0.00  0.00    +0.000 C 
BRANCH   4   6
ATOM      5  O   UNL     1       7.658   4.461  16.925  0.00  0.00    +0.000 OA
ATOM      6  C   UNL     1       7.390   5.532  16.384  0.00  0.00    +0.000 C 
ATOM      7  N   UNL     1       7.128   5.652  15.046  0.00  0.00    +0.000 N 
ATOM      8  H   UNL     1       7.153   6.590  14.646  0.00  0.00    +0.000 HD
BRANCH   7   9
ATOM      9  C   UNL     1       7.140   4.554  14.112  0.00  0.00    +0.000 C 
ATOM     10  C   UNL     1       5.719   4.093  13.819  0.00  0.00    +0.000 C 
ATOM     11  C   UNL     1       5.847   3.318  12.521  0.00  0.00    +0.000 C 
ATOM     12  C   UNL     1       7.000   3.973  11.761  0.00  0.00    +0.000 C 
ATOM     13  C   UNL     1       7.669   4.944  12.734  0.00  0.00    +0.000 C 
ENDBRANCH   7   9
ENDBRANCH   4   6
ENDBRANCH   3   4
ENDBRANCH   1   3
BRANCH   1  14
ATOM     14  C   UNL     1       4.917   5.563  18.928  0.00  0.00    +0.000 C 
BRANCH  14  15
ATOM     15  O   UNL     1       4.272   4.365  18.534  0.00  0.00    +0.000 OA
BRANCH  15  16
ATOM     16  C   UNL     1       3.191   4.042  19.317  0.00  0.00    +0.000 A 
ATOM     17  C   UNL     1       2.177   4.958  19.627  0.00  0.00    +0.000 A 
ATOM     18  C   UNL     1       1.091   4.581  20.419  0.00  0.00    +0.000 A 
ATOM     19  C   UNL     1       0.971   3.274  20.882  0.00  0.00    +0.000 A 
ATOM     20  C   UNL     1       1.943   2.333  20.553  0.00  0.00    +0.000 A 
ATOM     21  C   UNL     1       3.043   2.725  19.776  0.00  0.00    +0.000 A 
BRANCH  21  22
ATOM     22  N   UNL     1       4.056   1.731  19.491  0.00  0.00    +0.000 N 
ATOM     23  O   UNL     1       3.908   1.041  18.473  0.00  0.00    +0.000 OA
ATOM     24  O   UNL     1       5.033   1.692  20.251  0.00  0.00    +0.000 OA
ENDBRANCH  21  22
ENDBRANCH  15  16
ENDBRANCH  14  15
ENDBRANCH   1  14
TORSDOF 8
ENDMDL
MODEL 3
REMARK VINA RESULT:      -7.3      1.379      1.607
REMARK  Name = 
REMARK  8 active torsions:
REMARK  status: ('A' for Active; 'I' for Inactive)
REMARK    1  A    between atoms: C_2  and  C_3
REMARK    2  A    between atoms: C_3  and  O_4
REMARK    3  A    between atoms: O_4  and  C_5
REMARK    4  A    between atoms: C_5  and  C_7
REMARK    5  A    between atoms: C_7  and  O_8
REMARK    6  A    between atoms: O_8  and  C_9
REMARK    7  A    between atoms: C_14  and  N_15
REMARK    8  A    between atoms: N_18  and  C_19
REMARK                            x       y       z     vdW  Elec       q    Type
REMARK                         _______ _______ _______ _____ _____    ______ ____
ROOT
ATOM      1  C   UNL     1       6.869   5.760  19.375  0.00  0.00    +0.000 C 
ATOM      2  O   UNL     1       7.306   5.124  20.328  0.00  0.00    +0.000 OA
ENDROOT
BRANCH   1   3
ATOM      3  O   UNL     1       7.617   6.573  18.589  0.00  0.00    +0.000 OA
BRANCH   3   4
ATOM      4  C   UNL     1       7.234   6.580  17.217  0.00  0.00    +0.000 C 
BRANCH   4   6
ATOM      5  O   UNL     1       7.968   4.330  16.712  0.00  0.00    +0.000 OA
ATOM      6  C   UNL     1       7.430   5.357  16.302  0.00  0.00    +0.000 C 
ATOM      7  N   UNL     1       7.022   5.525  15.006  0.00  0.00    +0.000 N 
ATOM      8  H   UNL     1       6.811   6.474  14.701  0.00  0.00    +0.000 HD
BRANCH   7   9
ATOM      9  C   UNL     1       7.178   4.535  13.969  0.00  0.00    +0.000 C 
ATOM     10  C   UNL     1       5.830   3.918  13.620  0.00  0.00    +0.000 C 
ATOM     11  C   UNL     1       6.054   3.299  12.253  0.00  0.00    +0.000 C 
ATOM     12  C   UNL     1       7.104   4.175  11.571  0.00  0.00    +0.000 C 
ATOM     13  C   UNL     1       7.642   5.127  12.640  0.00  0.00    +0.000 C 
ENDBRANCH   7   9
ENDBRANCH   4   6
ENDBRANCH   3   4
ENDBRANCH   1   3
BRANCH   1  14
ATOM     14  C   UNL     1       5.475   5.573  18.823  0.00  0.00    +0.000 C 
BRANCH  14  15
ATOM     15  O   UNL     1       4.550   4.989  19.723  0.00  0.00    +0.000 OA
BRANCH  15  16
ATOM     16  C   UNL     1       3.698   4.093  19.126  0.00  0.00    +0.000 A 
ATOM     17  C   UNL     1       3.964   3.505  17.882  0.00  0.00    +0.000 A 
ATOM     18  C   UNL     1       3.073   2.590  17.319  0.00  0.00    +0.000 A 
ATOM     19  C   UNL     1       1.921   2.210  18.001  0.00  0.00    +0.000 A 
ATOM     20  C   UNL     1       1.654   2.747  19.258  0.00  0.00    +0.000 A 
ATOM     21  C   UNL     1       2.542   3.683  19.807  0.00  0.00    +0.000 A 
BRANCH  21  22
ATOM     22  N   UNL     1       2.210   4.253  21.095  0.00  0.00    +0.000 N 
ATOM     23  O   UNL     1       1.804   5.424  21.113  0.00  0.00    +0.000 OA
ATOM     24  O   UNL     1       2.289   3.505  22.078  0.00  0.00    +0.000 OA
ENDBRANCH  21  22
ENDBRANCH  15  16
ENDBRANCH  14  15
ENDBRANCH   1  14
TORSDOF 8
ENDMDL
MODEL 4
REMARK VINA RESULT:      -7.3      2.146      2.477
REMARK  Name = 
REMARK  8 active torsions:
REMARK  status: ('A' for Active; 'I' for Inactive)
REMARK    1  A    between atoms: C_2  and  C_3
REMARK    2  A    between atoms: C_3  and  O_4
REMARK    3  A    between atoms: O_4  and  C_5
REMARK    4  A    between atoms: C_5  and  C_7
REMARK    5  A    between atoms: C_7  and  O_8
REMARK    6  A    between atoms: O_8  and  C_9
REMARK    7  A    between atoms: C_14  and  N_15
REMARK    8  A    between atoms: N_18  and  C_19
REMARK                            x       y       z     vdW  Elec       q    Type
REMARK                         _______ _______ _______ _____ _____    ______ ____
ROOT
ATOM      1  C   UNL     1       5.875   5.633  19.025  0.00  0.00    +0.000 C 
ATOM      2  O   UNL     1       6.594   5.195  19.916  0.00  0.00    +0.000 OA
ENDROOT
BRANCH   1   3
ATOM      3  O   UNL     1       6.149   6.741  18.293  0.00  0.00    +0.000 OA
BRANCH   3   4
ATOM      4  C   UNL     1       7.278   6.614  17.433  0.00  0.00    +0.000 C 
BRANCH   4   6
ATOM      5  O   UNL     1       7.893   4.334  16.904  0.00  0.00    +0.000 OA
ATOM      6  C   UNL     1       7.463   5.410  16.491  0.00  0.00    +0.000 C 
ATOM      7  N   UNL     1       7.177   5.648  15.174  0.00  0.00    +0.000 N 
ATOM      8  H   UNL     1       7.059   6.619  14.889  0.00  0.00    +0.000 HD
BRANCH   7   9
ATOM      9  C   UNL     1       7.348   4.683  14.116  0.00  0.00    +0.000 C 
ATOM     10  C   UNL     1       6.068   3.884  13.915  0.00  0.00    +0.000 C 
ATOM     11  C   UNL     1       6.219   3.295  12.525  0.00  0.00    +0.000 C 
ATOM     12  C   UNL     1       7.056   4.302  11.738  0.00  0.00    +0.000 C 
ATOM     13  C   UNL     1       7.575   5.325  12.749  0.00  0.00    +0.000 C 
ENDBRANCH   7   9
ENDBRANCH   4   6
ENDBRANCH   3   4
ENDBRANCH   1   3
BRANCH   1  14
ATOM     14  C   UNL     1       4.679   4.885  18.483  0.00  0.00    +0.000 C 
BRANCH  14  15
ATOM     15  O   UNL     1       3.422   5.382  18.907  0.00  0.00    +0.000 OA
BRANCH  15  16
ATOM     16  C   UNL     1       2.700   4.480  19.649  0.00  0.00    +0.000 A 
ATOM     17  C   UNL     1       2.774   4.414  21.047  0.00  0.00    +0.000 A 
ATOM     18  C   UNL     1       2.012   3.487  21.760  0.00  0.00    +0.000 A 
ATOM     19  C   UNL     1       1.129   2.637  21.101  0.00  0.00    +0.000 A 
ATOM     20  C   UNL     1       1.005   2.710  19.715  0.00  0.00    +0.000 A 
ATOM     21  C   UNL     1       1.790   3.628  19.004  0.00  0.00    +0.000 A 
BRANCH  21  22
ATOM     22  N   UNL     1       1.667   3.646  17.562  0.00  0.00    +0.000 N 
ATOM     23  O   UNL     1       2.293   2.788  16.924  0.00  0.00    +0.000 OA
ATOM     24  O   UNL     1       0.888   4.476  17.075  0.00  0.00    +0.000 OA
ENDBRANCH  21  22
ENDBRANCH  15  16
ENDBRANCH  14  15
ENDBRANCH   1  14
TORSDOF 8
ENDMDL
MODEL 5
REMARK VINA RESULT:      -7.2      3.465      5.582
REMARK  Name = 
REMARK  8 active torsions:
REMARK  status: ('A' for Active; 'I' for Inactive)
REMARK    1  A    between atoms: C_2  and  C_3
REMARK    2  A    between atoms: C_3  and  O_4
REMARK    3  A    between atoms: O_4  and  C_5
REMARK    4  A    between atoms: C_5  and  C_7
REMARK    5  A    between atoms: C_7  and  O_8
REMARK    6  A    between atoms: O_8  and  C_9
REMARK    7  A    between atoms: C_14  and  N_15
REMARK    8  A    between atoms: N_18  and  C_19
REMARK                            x       y       z     vdW  Elec       q    Type
REMARK                         _______ _______ _______ _____ _____    ______ ____
ROOT
ATOM      1  C   UNL     1       7.678   5.470  18.629  0.00  0.00    +0.000 C 
ATOM      2  O   UNL     1       8.213   4.547  18.023  0.00  0.00    +0.000 OA
ENDROOT
BRANCH   1   3
ATOM      3  O   UNL     1       8.243   6.687  18.825  0.00  0.00    +0.000 OA
BRANCH   3   4
ATOM      4  C   UNL     1       7.894   7.661  17.846  0.00  0.00    +0.000 C 
BRANCH   4   6
ATOM      5  O   UNL     1       7.712  10.004  17.269  0.00  0.00    +0.000 OA
ATOM      6  C   UNL     1       8.154   9.165  18.052  0.00  0.00    +0.000 C 
ATOM      7  N   UNL     1       8.953   9.481  19.117  0.00  0.00    +0.000 N 
ATOM      8  H   UNL     1       9.462   8.718  19.563  0.00  0.00    +0.000 HD
BRANCH   7   9
ATOM      9  C   UNL     1       9.379  10.818  19.448  0.00  0.00    +0.000 C 
ATOM     10  C   UNL     1       9.361  11.021  20.957  0.00  0.00    +0.000 C 
ATOM     11  C   UNL     1      10.256  12.227  21.175  0.00  0.00    +0.000 C 
ATOM     12  C   UNL     1      11.295  12.176  20.056  0.00  0.00    +0.000 C 
ATOM     13  C   UNL     1      10.835  11.092  19.079  0.00  0.00    +0.000 C 
ENDBRANCH   7   9
ENDBRANCH   4   6
ENDBRANCH   3   4
ENDBRANCH   1   3
BRANCH   1  14
ATOM     14  C   UNL     1       6.235   5.443  19.074  0.00  0.00    +0.000 C 
BRANCH  14  15
ATOM     15  O   UNL     1       5.782   4.192  19.558  0.00  0.00    +0.000 OA
BRANCH  15  16
ATOM     16  C   UNL     1       4.696   3.701  18.874  0.00  0.00    +0.000 A 
ATOM     17  C   UNL     1       4.308   4.185  17.618  0.00  0.00    +0.000 A 
ATOM     18  C   UNL     1       3.204   3.647  16.955  0.00  0.00    +0.000 A 
ATOM     19  C   UNL     1       2.490   2.589  17.509  0.00  0.00    +0.000 A 
ATOM     20  C   UNL     1       2.880   2.061  18.738  0.00  0.00    +0.000 A 
ATOM     21  C   UNL     1       3.977   2.622  19.408  0.00  0.00    +0.000 A 
BRANCH  21  22
ATOM     22  N   UNL     1       4.326   2.077  20.702  0.00  0.00    +0.000 N 
ATOM     23  O   UNL     1       3.519   2.242  21.628  0.00  0.00    +0.000 OA
ATOM     24  O   UNL     1       5.377   1.425  20.772  0.00  0.00    +0.000 OA
ENDBRANCH  21  22
ENDBRANCH  15  16
ENDBRANCH  14  15
ENDBRANCH   1  14
TORSDOF 8
ENDMDL
MODEL 6
REMARK VINA RESULT:      -7.2      1.568      1.918
REMARK  Name = 
REMARK  8 active torsions:
REMARK  status: ('A' for Active; 'I' for Inactive)
REMARK    1  A    between atoms: C_2  and  C_3
REMARK    2  A    between atoms: C_3  and  O_4
REMARK    3  A    between atoms: O_4  and  C_5
REMARK    4  A    between atoms: C_5  and  C_7
REMARK    5  A    between atoms: C_7  and  O_8
REMARK    6  A    between atoms: O_8  and  C_9
REMARK    7  A    between atoms: C_14  and  N_15
REMARK    8  A    between atoms: N_18  and  C_19
REMARK                            x       y       z     vdW  Elec       q    Type
REMARK                         _______ _______ _______ _____ _____    ______ ____
ROOT
ATOM      1  C   UNL     1       7.390   5.412  17.615  0.00  0.00    +0.000 C 
ATOM      2  O   UNL     1       8.150   4.507  17.287  0.00  0.00    +0.000 OA
ENDROOT
BRANCH   1   3
ATOM      3  O   UNL     1       7.052   6.456  16.818  0.00  0.00    +0.000 OA
BRANCH   3   4
ATOM      4  C   UNL     1       5.826   6.284  16.113  0.00  0.00    +0.000 C 
BRANCH   4   6
ATOM      5  O   UNL     1       4.699   4.156  15.882  0.00  0.00    +0.000 OA
ATOM      6  C   UNL     1       5.472   4.974  15.385  0.00  0.00    +0.000 C 
ATOM      7  N   UNL     1       6.121   4.769  14.198  0.00  0.00    +0.000 N 
ATOM      8  H   UNL     1       6.910   5.378  13.985  0.00  0.00    +0.000 HD
BRANCH   7   9
ATOM      9  C   UNL     1       5.989   3.580  13.392  0.00  0.00    +0.000 C 
ATOM     10  C   UNL     1       4.758   3.679  12.501  0.00  0.00    +0.000 C 
ATOM     11  C   UNL     1       5.010   2.649  11.415  0.00  0.00    +0.000 C 
ATOM     12  C   UNL     1       6.527   2.595  11.242  0.00  0.00    +0.000 C 
ATOM     13  C   UNL     1       7.129   3.405  12.391  0.00  0.00    +0.000 C 
ENDBRANCH   7   9
ENDBRANCH   4   6
ENDBRANCH   3   4
ENDBRANCH   1   3
BRANCH   1  14
ATOM     14  C   UNL     1       6.570   5.387  18.883  0.00  0.00    +0.000 C 
BRANCH  14  15
ATOM     15  O   UNL     1       5.850   4.187  19.105  0.00  0.00    +0.000 OA
BRANCH  15  16
ATOM     16  C   UNL     1       4.528   4.392  19.416  0.00  0.00    +0.000 A 
ATOM     17  C   UNL     1       3.935   5.662  19.413  0.00  0.00    +0.000 A 
ATOM     18  C   UNL     1       2.584   5.820  19.726  0.00  0.00    +0.000 A 
ATOM     19  C   UNL     1       1.786   4.715  20.005  0.00  0.00    +0.000 A 
ATOM     20  C   UNL     1       2.341   3.437  19.973  0.00  0.00    +0.000 A 
ATOM     21  C   UNL     1       3.704   3.288  19.681  0.00  0.00    +0.000 A 
BRANCH  21  22
ATOM     22  N   UNL     1       4.255   1.951  19.700  0.00  0.00    +0.000 N 
ATOM     23  O   UNL     1       5.000   1.653  20.645  0.00  0.00    +0.000 OA
ATOM     24  O   UNL     1       3.886   1.178  18.806  0.00  0.00    +0.000 OA
ENDBRANCH  21  22
ENDBRANCH  15  16
ENDBRANCH  14  15
ENDBRANCH   1  14
TORSDOF 8
ENDMDL
MODEL 7
REMARK VINA RESULT:      -7.1      2.452      3.016
REMARK  Name = 
REMARK  8 active torsions:
REMARK  status: ('A' for Active; 'I' for Inactive)
REMARK    1  A    between atoms: C_2  and  C_3
REMARK    2  A    between atoms: C_3  and  O_4
REMARK    3  A    between atoms: O_4  and  C_5
REMARK    4  A    between atoms: C_5  and  C_7
REMARK    5  A    between atoms: C_7  and  O_8
REMARK    6  A    between atoms: O_8  and  C_9
REMARK    7  A    between atoms: C_14  and  N_15
REMARK    8  A    between atoms: N_18  and  C_19
REMARK                            x       y       z     vdW  Elec       q    Type
REMARK                         _______ _______ _______ _____ _____    ______ ____
ROOT
ATOM      1  C   UNL     1       3.629   6.753  17.909  0.00  0.00    +0.000 C 
ATOM      2  O   UNL     1       2.517   7.261  18.002  0.00  0.00    +0.000 OA
ENDROOT
BRANCH   1   3
ATOM      3  O   UNL     1       4.532   7.057  16.944  0.00  0.00    +0.000 OA
BRANCH   3   4
ATOM      4  C   UNL     1       5.867   6.659  17.242  0.00  0.00    +0.000 C 
BRANCH   4   6
ATOM      5  O   UNL     1       7.627   5.049  16.834  0.00  0.00    +0.000 OA
ATOM      6  C   UNL     1       6.620   5.608  16.404  0.00  0.00    +0.000 C 
ATOM      7  N   UNL     1       6.124   5.399  15.145  0.00  0.00    +0.000 N 
ATOM      8  H   UNL     1       5.442   6.070  14.794  0.00  0.00    +0.000 HD
BRANCH   7   9
ATOM      9  C   UNL     1       6.717   4.514  14.174  0.00  0.00    +0.000 C 
ATOM     10  C   UNL     1       5.633   3.767  13.407  0.00  0.00    +0.000 C 
ATOM     11  C   UNL     1       6.339   3.282  12.156  0.00  0.00    +0.000 C 
ATOM     12  C   UNL     1       7.416   4.324  11.859  0.00  0.00    +0.000 C 
ATOM     13  C   UNL     1       7.473   5.253  13.072  0.00  0.00    +0.000 C 
ENDBRANCH   7   9
ENDBRANCH   4   6
ENDBRANCH   3   4
ENDBRANCH   1   3
BRANCH   1  14
ATOM     14  C   UNL     1       4.224   5.861  18.973  0.00  0.00    +0.000 C 
BRANCH  14  15
ATOM     15  O   UNL     1       4.020   4.474  18.772  0.00  0.00    +0.000 OA
BRANCH  15  16
ATOM     16  C   UNL     1       3.078   3.932  19.611  0.00  0.00    +0.000 A 
ATOM     17  C   UNL     1       3.214   3.930  21.005  0.00  0.00    +0.000 A 
ATOM     18  C   UNL     1       2.224   3.377  21.820  0.00  0.00    +0.000 A 
ATOM     19  C   UNL     1       1.060   2.854  21.265  0.00  0.00    +0.000 A 
ATOM     20  C   UNL     1       0.880   2.881  19.884  0.00  0.00    +0.000 A 
ATOM     21  C   UNL     1       1.889   3.417  19.071  0.00  0.00    +0.000 A 
BRANCH  21  22
ATOM     22  N   UNL     1       1.687   3.389  17.639  0.00  0.00    +0.000 N 
ATOM     23  O   UNL     1       1.033   4.313  17.136  0.00  0.00    +0.000 OA
ATOM     24  O   UNL     1       2.245   2.479  17.011  0.00  0.00    +0.000 OA
ENDBRANCH  21  22
ENDBRANCH  15  16
ENDBRANCH  14  15
ENDBRANCH   1  14
TORSDOF 8
ENDMDL
MODEL 8
REMARK VINA RESULT:      -7.0      3.037      6.683
REMARK  Name = 
REMARK  8 active torsions:
REMARK  status: ('A' for Active; 'I' for Inactive)
REMARK    1  A    between atoms: C_2  and  C_3
REMARK    2  A    between atoms: C_3  and  O_4
REMARK    3  A    between atoms: O_4  and  C_5
REMARK    4  A    between atoms: C_5  and  C_7
REMARK    5  A    between atoms: C_7  and  O_8
REMARK    6  A    between atoms: O_8  and  C_9
REMARK    7  A    between atoms: C_14  and  N_15
REMARK    8  A    between atoms: N_18  and  C_19
REMARK                            x       y       z     vdW  Elec       q    Type
REMARK                         _______ _______ _______ _____ _____    ______ ____
ROOT
ATOM      1  C   UNL     1       4.146   2.169  20.556  0.00  0.00    +0.000 C 
ATOM      2  O   UNL     1       4.979   1.593  21.249  0.00  0.00    +0.000 OA
ENDROOT
BRANCH   1   3
ATOM      3  O   UNL     1       2.868   2.412  20.939  0.00  0.00    +0.000 OA
BRANCH   3   4
ATOM      4  C   UNL     1       2.653   3.714  21.476  0.00  0.00    +0.000 C 
BRANCH   4   6
ATOM      5  O   UNL     1       0.630   4.345  20.308  0.00  0.00    +0.000 OA
ATOM      6  C   UNL     1       1.676   4.718  20.837  0.00  0.00    +0.000 C 
ATOM      7  N   UNL     1       2.087   6.023  20.849  0.00  0.00    +0.000 N 
ATOM      8  H   UNL     1       3.060   6.205  21.091  0.00  0.00    +0.000 HD
BRANCH   7   9
ATOM      9  C   UNL     1       1.360   7.111  20.244  0.00  0.00    +0.000 C 
ATOM     10  C   UNL     1       1.089   8.203  21.270  0.00  0.00    +0.000 C 
ATOM     11  C   UNL     1       0.782   9.428  20.429  0.00  0.00    +0.000 C 
ATOM     12  C   UNL     1       1.596   9.262  19.146  0.00  0.00    +0.000 C 
ATOM     13  C   UNL     1       2.158   7.840  19.165  0.00  0.00    +0.000 C 
ENDBRANCH   7   9
ENDBRANCH   4   6
ENDBRANCH   3   4
ENDBRANCH   1   3
BRANCH   1  14
ATOM     14  C   UNL     1       4.484   2.861  19.257  0.00  0.00    +0.000 C 
BRANCH  14  15
ATOM     15  O   UNL     1       5.520   3.824  19.346  0.00  0.00    +0.000 OA
BRANCH  15  16
ATOM     16  C   UNL     1       5.441   4.802  18.385  0.00  0.00    +0.000 A 
ATOM     17  C   UNL     1       4.221   5.284  17.891  0.00  0.00    +0.000 A 
ATOM     18  C   UNL     1       4.190   6.289  16.922  0.00  0.00    +0.000 A 
ATOM     19  C   UNL     1       5.369   6.863  16.458  0.00  0.00    +0.000 A 
ATOM     20  C   UNL     1       6.593   6.432  16.964  0.00  0.00    +0.000 A 
ATOM     21  C   UNL     1       6.618   5.407  17.920  0.00  0.00    +0.000 A 
BRANCH  21  22
ATOM     22  N   UNL     1       7.909   4.954  18.390  0.00  0.00    +0.000 N 
ATOM     23  O   UNL     1       8.322   5.420  19.462  0.00  0.00    +0.000 OA
ATOM     24  O   UNL     1       8.476   4.081  17.721  0.00  0.00    +0.000 OA
ENDBRANCH  21  22
ENDBRANCH  15  16
ENDBRANCH  14  15
ENDBRANCH   1  14
TORSDOF 8
ENDMDL
MODEL 9
REMARK VINA RESULT:      -7.0      4.031      5.485
REMARK  Name = 
REMARK  8 active torsions:
REMARK  status: ('A' for Active; 'I' for Inactive)
REMARK    1  A    between atoms: C_2  and  C_3
REMARK    2  A    between atoms: C_3  and  O_4
REMARK    3  A    between atoms: O_4  and  C_5
REMARK    4  A    between atoms: C_5  and  C_7
REMARK    5  A    between atoms: C_7  and  O_8
REMARK    6  A    between atoms: O_8  and  C_9
REMARK    7  A    between atoms: C_14  and  N_15
REMARK    8  A    between atoms: N_18  and  C_19
REMARK                            x       y       z     vdW  Elec       q    Type
REMARK                         _______ _______ _______ _____ _____    ______ ____
ROOT
ATOM      1  C   UNL     1       2.117   3.684  21.236  0.00  0.00    +0.000 C 
ATOM      2  O   UNL     1       1.584   2.924  22.037  0.00  0.00    +0.000 OA
ENDROOT
BRANCH   1   3
ATOM      3  O   UNL     1       3.320   3.460  20.651  0.00  0.00    +0.000 OA
BRANCH   3   4
ATOM      4  C   UNL     1       3.260   2.663  19.472  0.00  0.00    +0.000 C 
BRANCH   4   6
ATOM      5  O   UNL     1       2.276   3.478  17.416  0.00  0.00    +0.000 OA
ATOM      6  C   UNL     1       3.305   3.278  18.060  0.00  0.00    +0.000 C 
ATOM      7  N   UNL     1       4.558   3.519  17.566  0.00  0.00    +0.000 N 
ATOM      8  H   UNL     1       5.345   3.106  18.065  0.00  0.00    +0.000 HD
BRANCH   7   9
ATOM      9  C   UNL     1       4.829   4.023  16.243  0.00  0.00    +0.000 C 
ATOM     10  C   UNL     1       4.920   5.543  16.264  0.00  0.00    +0.000 C 
ATOM     11  C   UNL     1       5.662   5.883  14.985  0.00  0.00    +0.000 C 
ATOM     12  C   UNL     1       6.593   4.701  14.721  0.00  0.00    +0.000 C 
ATOM     13  C   UNL     1       6.196   3.602  15.708  0.00  0.00    +0.000 C 
ENDBRANCH   7   9
ENDBRANCH   4   6
ENDBRANCH   3   4
ENDBRANCH   1   3
BRANCH   1  14
ATOM     14  C   UNL     1       1.418   4.883  20.640  0.00  0.00    +0.000 C 
BRANCH  14  15
ATOM     15  O   UNL     1       1.906   6.138  21.079  0.00  0.00    +0.000 OA
BRANCH  15  16
ATOM     16  C   UNL     1       1.957   7.083  20.084  0.00  0.00    +0.000 A 
ATOM     17  C   UNL     1       2.493   6.822  18.815  0.00  0.00    +0.000 A 
ATOM     18  C   UNL     1       2.514   7.812  17.831  0.00  0.00    +0.000 A 
ATOM     19  C   UNL     1       1.964   9.066  18.075  0.00  0.00    +0.000 A 
ATOM     20  C   UNL     1       1.388   9.339  19.313  0.00  0.00    +0.000 A 
ATOM     21  C   UNL     1       1.391   8.348  20.304  0.00  0.00    +0.000 A 
BRANCH  21  22
ATOM     22  N   UNL     1       0.823   8.681  21.593  0.00  0.00    +0.000 N 
ATOM     23  O   UNL     1       1.576   9.190  22.435  0.00  0.00    +0.000 OA
ATOM     24  O   UNL     1      -0.393   8.496  21.736  0.00  0.00    +0.000 OA
ENDBRANCH  21  22
ENDBRANCH  15  16
ENDBRANCH  14  15
ENDBRANCH   1  14
TORSDOF 8
ENDMDL
