MODEL 1
REMARK VINA RESULT:      -8.5      0.000      0.000
REMARK  Name = 
REMARK  5 active torsions:
REMARK  status: ('A' for Active; 'I' for Inactive)
REMARK    1  A    between atoms: C_2  and  C_3
REMARK    2  A    between atoms: N_17  and  C_18
REMARK    3  A    between atoms: C_18  and  C_19
REMARK    4  A    between atoms: C_25  and  C_26
REMARK    5  A    between atoms: C_26  and  C_27
REMARK                            x       y       z     vdW  Elec       q    Type
REMARK                         _______ _______ _______ _____ _____    ______ ____
ROOT
ATOM      1  O   UNL     1       0.050   9.329  23.392  0.00  0.00    +0.000 OA
ATOM      2  C   UNL     1       0.000   9.707  22.224  0.00  0.00    +0.000 C 
ATOM      3  N   UNL     1      -0.728  10.843  21.871  0.00  0.00    +0.000 N 
ATOM      4  C   UNL     1      -1.144  11.749  22.936  0.00  0.00    +0.000 C 
ATOM      5  C   UNL     1      -2.490  12.459  22.744  0.00  0.00    +0.000 C 
ATOM      6  O   UNL     1      -3.050  12.974  23.712  0.00  0.00    +0.000 OA
ATOM      7  N   UNL     1      -2.922  12.665  21.432  0.00  0.00    +0.000 N 
ATOM      8  C   UNL     1      -2.413  11.832  20.323  0.00  0.00    +0.000 C 
ATOM      9  C   UNL     1      -0.973  11.314  20.522  0.00  0.00    +0.000 C 
ENDROOT
BRANCH   2  10
ATOM     10  C   UNL     1       0.708   8.982  21.186  0.00  0.00    +0.000 A 
ATOM     11  C   UNL     1       1.215   7.694  21.260  0.00  0.00    +0.000 A 
ATOM     12  C   UNL     1       1.914   7.410  20.057  0.00  0.00    +0.000 A 
ATOM     13  C   UNL     1       2.633   6.297  19.583  0.00  0.00    +0.000 A 
ATOM     14  C   UNL     1       3.229   6.378  18.326  0.00  0.00    +0.000 A 
ATOM     15  F   UNL     1       3.945   5.338  17.875  0.00  0.00    +0.000 F 
ATOM     16  C   UNL     1       3.113   7.513  17.531  0.00  0.00    +0.000 A 
ATOM     17  C   UNL     1       2.395   8.625  17.980  0.00  0.00    +0.000 A 
ATOM     18  C   UNL     1       1.820   8.543  19.254  0.00  0.00    +0.000 A 
ATOM     19  N   UNL     1       1.127   9.487  19.974  0.00  0.00    +0.000 N 
ATOM     20  H   UNL     1       0.972  10.433  19.659  0.00  0.00    +0.000 HD
ENDBRANCH   2  10
BRANCH   7  21
ATOM     21  C   UNL     1      -4.143  13.460  21.240  0.00  0.00    +0.000 C 
BRANCH  21  22
ATOM     22  C   UNL     1      -5.430  12.671  21.275  0.00  0.00    +0.000 A 
ATOM     23  C   UNL     1      -6.278  12.734  22.391  0.00  0.00    +0.000 A 
ATOM     24  C   UNL     1      -7.513  12.085  22.382  0.00  0.00    +0.000 A 
ATOM     25  C   UNL     1      -7.916  11.361  21.262  0.00  0.00    +0.000 A 
ATOM     26  C   UNL     1      -7.080  11.277  20.152  0.00  0.00    +0.000 A 
ATOM     27  C   UNL     1      -5.845  11.930  20.157  0.00  0.00    +0.000 A 
ENDBRANCH  21  22
ENDBRANCH   7  21
BRANCH   8  28
ATOM     28  C   UNL     1      -2.508  12.475  18.916  0.00  0.00    +0.000 C 
BRANCH  28  29
ATOM     29  C   UNL     1      -2.841  11.593  17.725  0.00  0.00    +0.000 A 
ATOM     30  C   UNL     1      -4.064  11.620  17.037  0.00  0.00    +0.000 A 
ATOM     31  C   UNL     1      -4.304  10.769  15.959  0.00  0.00    +0.000 A 
ATOM     32  C   UNL     1      -3.331   9.862  15.559  0.00  0.00    +0.000 A 
ATOM     33  C   UNL     1      -2.115   9.810  16.232  0.00  0.00    +0.000 A 
ATOM     34  C   UNL     1      -1.870  10.672  17.303  0.00  0.00    +0.000 A 
ENDBRANCH  28  29
ENDBRANCH   8  28
TORSDOF 5
ENDMDL
MODEL 2
REMARK VINA RESULT:      -8.4      1.607      2.107
REMARK  Name = 
REMARK  5 active torsions:
REMARK  status: ('A' for Active; 'I' for Inactive)
REMARK    1  A    between atoms: C_2  and  C_3
REMARK    2  A    between atoms: N_17  and  C_18
REMARK    3  A    between atoms: C_18  and  C_19
REMARK    4  A    between atoms: C_25  and  C_26
REMARK    5  A    between atoms: C_26  and  C_27
REMARK                            x       y       z     vdW  Elec       q    Type
REMARK                         _______ _______ _______ _____ _____    ______ ____
ROOT
ATOM      1  O   UNL     1       0.626  12.991  21.843  0.00  0.00    +0.000 OA
ATOM      2  C   UNL     1      -0.020  12.385  20.992  0.00  0.00    +0.000 C 
ATOM      3  N   UNL     1      -1.242  12.878  20.538  0.00  0.00    +0.000 N 
ATOM      4  C   UNL     1      -1.576  14.267  20.836  0.00  0.00    +0.000 C 
ATOM      5  C   UNL     1      -3.057  14.578  21.082  0.00  0.00    +0.000 C 
ATOM      6  O   UNL     1      -3.374  15.629  21.642  0.00  0.00    +0.000 OA
ATOM      7  N   UNL     1      -3.995  13.743  20.473  0.00  0.00    +0.000 N 
ATOM      8  C   UNL     1      -3.635  12.373  20.053  0.00  0.00    +0.000 C 
ATOM      9  C   UNL     1      -2.158  12.197  19.643  0.00  0.00    +0.000 C 
ENDROOT
BRANCH   2  10
ATOM     10  C   UNL     1       0.483  11.145  20.433  0.00  0.00    +0.000 A 
ATOM     11  C   UNL     1       0.693   9.949  21.102  0.00  0.00    +0.000 A 
ATOM     12  C   UNL     1       1.280   9.020  20.202  0.00  0.00    +0.000 A 
ATOM     13  C   UNL     1       1.721   7.690  20.318  0.00  0.00    +0.000 A 
ATOM     14  C   UNL     1       2.288   7.077  19.201  0.00  0.00    +0.000 A 
ATOM     15  F   UNL     1       2.743   5.821  19.307  0.00  0.00    +0.000 F 
ATOM     16  C   UNL     1       2.405   7.738  17.984  0.00  0.00    +0.000 A 
ATOM     17  C   UNL     1       1.964   9.057  17.844  0.00  0.00    +0.000 A 
ATOM     18  C   UNL     1       1.418   9.671  18.979  0.00  0.00    +0.000 A 
ATOM     19  N   UNL     1       0.971  10.958  19.158  0.00  0.00    +0.000 N 
ATOM     20  H   UNL     1       1.022  11.676  18.449  0.00  0.00    +0.000 HD
ENDBRANCH   2  10
BRANCH   7  21
ATOM     21  C   UNL     1      -5.412  14.114  20.595  0.00  0.00    +0.000 C 
BRANCH  21  22
ATOM     22  C   UNL     1      -6.198  13.307  21.601  0.00  0.00    +0.000 A 
ATOM     23  C   UNL     1      -6.088  13.572  22.974  0.00  0.00    +0.000 A 
ATOM     24  C   UNL     1      -6.889  12.894  23.894  0.00  0.00    +0.000 A 
ATOM     25  C   UNL     1      -7.806  11.940  23.457  0.00  0.00    +0.000 A 
ATOM     26  C   UNL     1      -7.917  11.656  22.098  0.00  0.00    +0.000 A 
ATOM     27  C   UNL     1      -7.119  12.337  21.175  0.00  0.00    +0.000 A 
ENDBRANCH  21  22
ENDBRANCH   7  21
BRANCH   8  28
ATOM     28  C   UNL     1      -4.524  11.768  18.936  0.00  0.00    +0.000 C 
BRANCH  28  29
ATOM     29  C   UNL     1      -3.858  11.110  17.741  0.00  0.00    +0.000 A 
ATOM     30  C   UNL     1      -2.842  10.146  17.831  0.00  0.00    +0.000 A 
ATOM     31  C   UNL     1      -2.266   9.595  16.688  0.00  0.00    +0.000 A 
ATOM     32  C   UNL     1      -2.683  10.011  15.429  0.00  0.00    +0.000 A 
ATOM     33  C   UNL     1      -3.681  10.974  15.315  0.00  0.00    +0.000 A 
ATOM     34  C   UNL     1      -4.267  11.515  16.461  0.00  0.00    +0.000 A 
ENDBRANCH  28  29
ENDBRANCH   8  28
TORSDOF 5
ENDMDL
MODEL 3
REMARK VINA RESULT:      -8.3      0.705      1.407
REMARK  Name = 
REMARK  5 active torsions:
REMARK  status: ('A' for Active; 'I' for Inactive)
REMARK    1  A    between atoms: C_2  and  C_3
REMARK    2  A    between atoms: N_17  and  C_18
REMARK    3  A    between atoms: C_18  and  C_19
REMARK    4  A    between atoms: C_25  and  C_26
REMARK    5  A    between atoms: C_26  and  C_27
REMARK                            x       y       z     vdW  Elec       q    Type
REMARK                         _______ _______ _______ _____ _____    ______ ____
ROOT
ATOM      1  O   UNL     1       0.012   9.391  23.561  0.00  0.00    +0.000 OA
ATOM      2  C   UNL     1       0.060   9.689  22.370  0.00  0.00    +0.000 C 
ATOM      3  N   UNL     1      -0.621  10.805  21.885  0.00  0.00    +0.000 N 
ATOM      4  C   UNL     1      -1.107  11.786  22.850  0.00  0.00    +0.000 C 
ATOM      5  C   UNL     1      -2.423  12.493  22.504  0.00  0.00    +0.000 C 
ATOM      6  O   UNL     1      -3.050  13.078  23.388  0.00  0.00    +0.000 OA
ATOM      7  N   UNL     1      -2.747  12.614  21.151  0.00  0.00    +0.000 N 
ATOM      8  C   UNL     1      -2.164  11.702  20.145  0.00  0.00    +0.000 C 
ATOM      9  C   UNL     1      -0.752  11.185  20.492  0.00  0.00    +0.000 C 
ENDROOT
BRANCH   2  10
ATOM     10  C   UNL     1       0.837   8.889  21.443  0.00  0.00    +0.000 A 
ATOM     11  C   UNL     1       1.317   9.275  20.201  0.00  0.00    +0.000 A 
ATOM     12  C   UNL     1       1.944   8.158  19.588  0.00  0.00    +0.000 A 
ATOM     13  C   UNL     1       2.578   7.950  18.349  0.00  0.00    +0.000 A 
ATOM     14  C   UNL     1       3.071   6.679  18.061  0.00  0.00    +0.000 A 
ATOM     15  F   UNL     1       3.648   6.458  16.872  0.00  0.00    +0.000 F 
ATOM     16  C   UNL     1       2.970   5.630  18.967  0.00  0.00    +0.000 A 
ATOM     17  C   UNL     1       2.352   5.818  20.207  0.00  0.00    +0.000 A 
ATOM     18  C   UNL     1       1.838   7.093  20.478  0.00  0.00    +0.000 A 
ATOM     19  N   UNL     1       1.132   7.549  21.565  0.00  0.00    +0.000 N 
ATOM     20  H   UNL     1       0.848   6.963  22.337  0.00  0.00    +0.000 HD
ENDBRANCH   2  10
BRANCH   7  21
ATOM     21  C   UNL     1      -3.937  13.405  20.809  0.00  0.00    +0.000 C 
BRANCH  21  22
ATOM     22  C   UNL     1      -5.242  12.645  20.851  0.00  0.00    +0.000 A 
ATOM     23  C   UNL     1      -6.106  12.768  21.948  0.00  0.00    +0.000 A 
ATOM     24  C   UNL     1      -7.355  12.145  21.941  0.00  0.00    +0.000 A 
ATOM     25  C   UNL     1      -7.755  11.389  20.841  0.00  0.00    +0.000 A 
ATOM     26  C   UNL     1      -6.902  11.247  19.749  0.00  0.00    +0.000 A 
ATOM     27  C   UNL     1      -5.654  11.873  19.753  0.00  0.00    +0.000 A 
ENDBRANCH  21  22
ENDBRANCH   7  21
BRANCH   8  28
ATOM     28  C   UNL     1      -2.138  12.248  18.695  0.00  0.00    +0.000 C 
BRANCH  28  29
ATOM     29  C   UNL     1      -2.534  11.327  17.554  0.00  0.00    +0.000 A 
ATOM     30  C   UNL     1      -1.807  10.191  17.164  0.00  0.00    +0.000 A 
ATOM     31  C   UNL     1      -2.223   9.399  16.095  0.00  0.00    +0.000 A 
ATOM     32  C   UNL     1      -3.368   9.738  15.383  0.00  0.00    +0.000 A 
ATOM     33  C   UNL     1      -4.099  10.865  15.745  0.00  0.00    +0.000 A 
ATOM     34  C   UNL     1      -3.688  11.650  16.824  0.00  0.00    +0.000 A 
ENDBRANCH  28  29
ENDBRANCH   8  28
TORSDOF 5
ENDMDL
MODEL 4
REMARK VINA RESULT:      -8.0      2.393      3.045
REMARK  Name = 
REMARK  5 active torsions:
REMARK  status: ('A' for Active; 'I' for Inactive)
REMARK    1  A    between atoms: C_2  and  C_3
REMARK    2  A    between atoms: N_17  and  C_18
REMARK    3  A    between atoms: C_18  and  C_19
REMARK    4  A    between atoms: C_25  and  C_26
REMARK    5  A    between atoms: C_26  and  C_27
REMARK                            x       y       z     vdW  Elec       q    Type
REMARK                         _______ _______ _______ _____ _____    ______ ____
ROOT
ATOM      1  O   UNL     1      -0.044  13.078  22.182  0.00  0.00    +0.000 OA
ATOM      2  C   UNL     1      -0.572  12.490  21.241  0.00  0.00    +0.000 C 
ATOM      3  N   UNL     1      -1.758  12.962  20.680  0.00  0.00    +0.000 N 
ATOM      4  C   UNL     1      -2.174  14.324  20.998  0.00  0.00    +0.000 C 
ATOM      5  C   UNL     1      -3.684  14.574  21.097  0.00  0.00    +0.000 C 
ATOM      6  O   UNL     1      -4.098  15.586  21.662  0.00  0.00    +0.000 OA
ATOM      7  N   UNL     1      -4.519  13.737  20.355  0.00  0.00    +0.000 N 
ATOM      8  C   UNL     1      -4.065  12.400  19.919  0.00  0.00    +0.000 C 
ATOM      9  C   UNL     1      -2.546  12.293  19.663  0.00  0.00    +0.000 C 
ENDROOT
BRANCH   2  10
ATOM     10  C   UNL     1       0.033  11.294  20.688  0.00  0.00    +0.000 A 
ATOM     11  C   UNL     1       0.357  10.128  21.365  0.00  0.00    +0.000 A 
ATOM     12  C   UNL     1       1.015   9.248  20.467  0.00  0.00    +0.000 A 
ATOM     13  C   UNL     1       1.575   7.963  20.591  0.00  0.00    +0.000 A 
ATOM     14  C   UNL     1       2.183   7.393  19.473  0.00  0.00    +0.000 A 
ATOM     15  F   UNL     1       2.750   6.184  19.585  0.00  0.00    +0.000 F 
ATOM     16  C   UNL     1       2.229   8.049  18.249  0.00  0.00    +0.000 A 
ATOM     17  C   UNL     1       1.671   9.322  18.102  0.00  0.00    +0.000 A 
ATOM     18  C   UNL     1       1.083   9.896  19.237  0.00  0.00    +0.000 A 
ATOM     19  N   UNL     1       0.524  11.140  19.410  0.00  0.00    +0.000 N 
ATOM     20  H   UNL     1       0.504  11.852  18.694  0.00  0.00    +0.000 HD
ENDBRANCH   2  10
BRANCH   7  21
ATOM     21  C   UNL     1      -5.954  14.054  20.339  0.00  0.00    +0.000 C 
BRANCH  21  22
ATOM     22  C   UNL     1      -6.419  14.850  19.143  0.00  0.00    +0.000 A 
ATOM     23  C   UNL     1      -6.340  16.250  19.141  0.00  0.00    +0.000 A 
ATOM     24  C   UNL     1      -6.676  16.979  18.000  0.00  0.00    +0.000 A 
ATOM     25  C   UNL     1      -7.098  16.320  16.847  0.00  0.00    +0.000 A 
ATOM     26  C   UNL     1      -7.194  14.931  16.837  0.00  0.00    +0.000 A 
ATOM     27  C   UNL     1      -6.854  14.200  17.978  0.00  0.00    +0.000 A 
ENDBRANCH  21  22
ENDBRANCH   7  21
BRANCH   8  28
ATOM     28  C   UNL     1      -4.806  11.818  18.688  0.00  0.00    +0.000 C 
BRANCH  28  29
ATOM     29  C   UNL     1      -4.003  11.109  17.612  0.00  0.00    +0.000 A 
ATOM     30  C   UNL     1      -3.005  10.155  17.868  0.00  0.00    +0.000 A 
ATOM     31  C   UNL     1      -2.297   9.555  16.828  0.00  0.00    +0.000 A 
ATOM     32  C   UNL     1      -2.561   9.911  15.510  0.00  0.00    +0.000 A 
ATOM     33  C   UNL     1      -3.538  10.862  15.234  0.00  0.00    +0.000 A 
ATOM     34  C   UNL     1      -4.256  11.452  16.275  0.00  0.00    +0.000 A 
ENDBRANCH  28  29
ENDBRANCH   8  28
TORSDOF 5
ENDMDL
MODEL 5
REMARK VINA RESULT:      -8.0      1.740      2.621
REMARK  Name = 
REMARK  5 active torsions:
REMARK  status: ('A' for Active; 'I' for Inactive)
REMARK    1  A    between atoms: C_2  and  C_3
REMARK    2  A    between atoms: N_17  and  C_18
REMARK    3  A    between atoms: C_18  and  C_19
REMARK    4  A    between atoms: C_25  and  C_26
REMARK    5  A    between atoms: C_26  and  C_27
REMARK                            x       y       z     vdW  Elec       q    Type
REMARK                         _______ _______ _______ _____ _____    ______ ____
ROOT
ATOM      1  O   UNL     1       0.549  13.512  21.928  0.00  0.00    +0.000 OA
ATOM      2  C   UNL     1      -0.044  12.872  21.064  0.00  0.00    +0.000 C 
ATOM      3  N   UNL     1      -1.287  13.291  20.590  0.00  0.00    +0.000 N 
ATOM      4  C   UNL     1      -1.710  14.656  20.887  0.00  0.00    +0.000 C 
ATOM      5  C   UNL     1      -3.211  14.876  21.108  0.00  0.00    +0.000 C 
ATOM      6  O   UNL     1      -3.601  15.903  21.665  0.00  0.00    +0.000 OA
ATOM      7  N   UNL     1      -4.086  13.987  20.479  0.00  0.00    +0.000 N 
ATOM      8  C   UNL     1      -3.635  12.643  20.061  0.00  0.00    +0.000 C 
ATOM      9  C   UNL     1      -2.143  12.560  19.677  0.00  0.00    +0.000 C 
ENDROOT
BRANCH   2  10
ATOM     10  C   UNL     1       0.542  11.666  20.510  0.00  0.00    +0.000 A 
ATOM     11  C   UNL     1       1.002  11.477  19.216  0.00  0.00    +0.000 A 
ATOM     12  C   UNL     1       1.411  10.125  19.071  0.00  0.00    +0.000 A 
ATOM     13  C   UNL     1       1.930   9.368  18.005  0.00  0.00    +0.000 A 
ATOM     14  C   UNL     1       2.201   8.018  18.219  0.00  0.00    +0.000 A 
ATOM     15  F   UNL     1       2.666   7.277  17.203  0.00  0.00    +0.000 F 
ATOM     16  C   UNL     1       1.993   7.414  19.453  0.00  0.00    +0.000 A 
ATOM     17  C   UNL     1       1.485   8.150  20.528  0.00  0.00    +0.000 A 
ATOM     18  C   UNL     1       1.193   9.500  20.297  0.00  0.00    +0.000 A 
ATOM     19  N   UNL     1       0.632  10.439  21.129  0.00  0.00    +0.000 N 
ATOM     20  H   UNL     1       0.306  10.239  22.064  0.00  0.00    +0.000 HD
ENDBRANCH   2  10
BRANCH   7  21
ATOM     21  C   UNL     1      -5.524  14.271  20.577  0.00  0.00    +0.000 C 
BRANCH  21  22
ATOM     22  C   UNL     1      -6.258  13.486  21.638  0.00  0.00    +0.000 A 
ATOM     23  C   UNL     1      -7.306  12.621  21.292  0.00  0.00    +0.000 A 
ATOM     24  C   UNL     1      -7.916  11.822  22.259  0.00  0.00    +0.000 A 
ATOM     25  C   UNL     1      -7.491  11.879  23.585  0.00  0.00    +0.000 A 
ATOM     26  C   UNL     1      -6.461  12.742  23.947  0.00  0.00    +0.000 A 
ATOM     27  C   UNL     1      -5.846  13.540  22.979  0.00  0.00    +0.000 A 
ENDBRANCH  21  22
ENDBRANCH   7  21
BRANCH   8  28
ATOM     28  C   UNL     1      -4.466  11.991  18.926  0.00  0.00    +0.000 C 
BRANCH  28  29
ATOM     29  C   UNL     1      -3.746  11.200  17.849  0.00  0.00    +0.000 A 
ATOM     30  C   UNL     1      -2.651  10.354  18.085  0.00  0.00    +0.000 A 
ATOM     31  C   UNL     1      -2.030   9.669  17.041  0.00  0.00    +0.000 A 
ATOM     32  C   UNL     1      -2.481   9.831  15.737  0.00  0.00    +0.000 A 
ATOM     33  C   UNL     1      -3.558  10.673  15.477  0.00  0.00    +0.000 A 
ATOM     34  C   UNL     1      -4.188  11.347  16.525  0.00  0.00    +0.000 A 
ENDBRANCH  28  29
ENDBRANCH   8  28
TORSDOF 5
ENDMDL
MODEL 6
REMARK VINA RESULT:      -7.9      1.726      2.423
REMARK  Name = 
REMARK  5 active torsions:
REMARK  status: ('A' for Active; 'I' for Inactive)
REMARK    1  A    between atoms: C_2  and  C_3
REMARK    2  A    between atoms: N_17  and  C_18
REMARK    3  A    between atoms: C_18  and  C_19
REMARK    4  A    between atoms: C_25  and  C_26
REMARK    5  A    between atoms: C_26  and  C_27
REMARK                            x       y       z     vdW  Elec       q    Type
REMARK                         _______ _______ _______ _____ _____    ______ ____
ROOT
ATOM      1  O   UNL     1       0.550  13.553  21.757  0.00  0.00    +0.000 OA
ATOM      2  C   UNL     1      -0.064  12.836  20.970  0.00  0.00    +0.000 C 
ATOM      3  N   UNL     1      -1.323  13.206  20.500  0.00  0.00    +0.000 N 
ATOM      4  C   UNL     1      -1.748  14.589  20.689  0.00  0.00    +0.000 C 
ATOM      5  C   UNL     1      -3.244  14.818  20.935  0.00  0.00    +0.000 C 
ATOM      6  O   UNL     1      -3.625  15.888  21.412  0.00  0.00    +0.000 OA
ATOM      7  N   UNL     1      -4.130  13.874  20.413  0.00  0.00    +0.000 N 
ATOM      8  C   UNL     1      -3.681  12.501  20.101  0.00  0.00    +0.000 C 
ATOM      9  C   UNL     1      -2.200  12.392  19.680  0.00  0.00    +0.000 C 
ENDROOT
BRANCH   2  10
ATOM     10  C   UNL     1       0.516  11.590  20.505  0.00  0.00    +0.000 A 
ATOM     11  C   UNL     1       0.942  11.292  19.220  0.00  0.00    +0.000 A 
ATOM     12  C   UNL     1       1.356   9.934  19.181  0.00  0.00    +0.000 A 
ATOM     13  C   UNL     1       1.852   9.091  18.170  0.00  0.00    +0.000 A 
ATOM     14  C   UNL     1       2.138   7.765  18.491  0.00  0.00    +0.000 A 
ATOM     15  F   UNL     1       2.580   6.943  17.530  0.00  0.00    +0.000 F 
ATOM     16  C   UNL     1       1.966   7.269  19.778  0.00  0.00    +0.000 A 
ATOM     17  C   UNL     1       1.483   8.093  20.799  0.00  0.00    +0.000 A 
ATOM     18  C   UNL     1       1.176   9.417  20.461  0.00  0.00    +0.000 A 
ATOM     19  N   UNL     1       0.631  10.421  21.225  0.00  0.00    +0.000 N 
ATOM     20  H   UNL     1       0.331  10.301  22.182  0.00  0.00    +0.000 HD
ENDBRANCH   2  10
BRANCH   7  21
ATOM     21  C   UNL     1      -5.567  14.157  20.531  0.00  0.00    +0.000 C 
BRANCH  21  22
ATOM     22  C   UNL     1      -6.272  13.425  21.648  0.00  0.00    +0.000 A 
ATOM     23  C   UNL     1      -6.091  13.813  22.983  0.00  0.00    +0.000 A 
ATOM     24  C   UNL     1      -6.819  13.203  24.005  0.00  0.00    +0.000 A 
ATOM     25  C   UNL     1      -7.733  12.194  23.708  0.00  0.00    +0.000 A 
ATOM     26  C   UNL     1      -7.914  11.787  22.389  0.00  0.00    +0.000 A 
ATOM     27  C   UNL     1      -7.189  12.401  21.364  0.00  0.00    +0.000 A 
ENDBRANCH  21  22
ENDBRANCH   7  21
BRANCH   8  28
ATOM     28  C   UNL     1      -4.539  11.747  19.054  0.00  0.00    +0.000 C 
BRANCH  28  29
ATOM     29  C   UNL     1      -3.866  11.192  17.811  0.00  0.00    +0.000 A 
ATOM     30  C   UNL     1      -4.171  11.589  16.500  0.00  0.00    +0.000 A 
ATOM     31  C   UNL     1      -3.520  11.024  15.404  0.00  0.00    +0.000 A 
ATOM     32  C   UNL     1      -2.563  10.035  15.598  0.00  0.00    +0.000 A 
ATOM     33  C   UNL     1      -2.251   9.618  16.889  0.00  0.00    +0.000 A 
ATOM     34  C   UNL     1      -2.893  10.195  17.986  0.00  0.00    +0.000 A 
ENDBRANCH  28  29
ENDBRANCH   8  28
TORSDOF 5
ENDMDL
MODEL 7
REMARK VINA RESULT:      -7.9      4.770      6.773
REMARK  Name = 
REMARK  5 active torsions:
REMARK  status: ('A' for Active; 'I' for Inactive)
REMARK    1  A    between atoms: C_2  and  C_3
REMARK    2  A    between atoms: N_17  and  C_18
REMARK    3  A    between atoms: C_18  and  C_19
REMARK    4  A    between atoms: C_25  and  C_26
REMARK    5  A    between atoms: C_26  and  C_27
REMARK                            x       y       z     vdW  Elec       q    Type
REMARK                         _______ _______ _______ _____ _____    ______ ____
ROOT
ATOM      1  O   UNL     1      -1.266  10.492  18.443  0.00  0.00    +0.000 OA
ATOM      2  C   UNL     1      -0.155  10.669  18.936  0.00  0.00    +0.000 C 
ATOM      3  N   UNL     1       0.155  11.862  19.587  0.00  0.00    +0.000 N 
ATOM      4  C   UNL     1      -0.943  12.746  19.962  0.00  0.00    +0.000 C 
ATOM      5  C   UNL     1      -0.659  14.252  19.913  0.00  0.00    +0.000 C 
ATOM      6  O   UNL     1      -1.598  15.049  19.901  0.00  0.00    +0.000 OA
ATOM      7  N   UNL     1       0.665  14.658  20.092  0.00  0.00    +0.000 N 
ATOM      8  C   UNL     1       1.787  13.731  19.834  0.00  0.00    +0.000 C 
ATOM      9  C   UNL     1       1.461  12.245  20.091  0.00  0.00    +0.000 C 
ENDROOT
BRANCH   2  10
ATOM     10  C   UNL     1       0.858   9.634  18.858  0.00  0.00    +0.000 A 
ATOM     11  C   UNL     1       1.734   9.396  17.810  0.00  0.00    +0.000 A 
ATOM     12  C   UNL     1       2.491   8.231  18.105  0.00  0.00    +0.000 A 
ATOM     13  C   UNL     1       3.492   7.516  17.422  0.00  0.00    +0.000 A 
ATOM     14  C   UNL     1       4.009   6.366  18.016  0.00  0.00    +0.000 A 
ATOM     15  F   UNL     1       4.940   5.657  17.363  0.00  0.00    +0.000 F 
ATOM     16  C   UNL     1       3.579   5.928  19.263  0.00  0.00    +0.000 A 
ATOM     17  C   UNL     1       2.592   6.629  19.962  0.00  0.00    +0.000 A 
ATOM     18  C   UNL     1       2.061   7.770  19.346  0.00  0.00    +0.000 A 
ATOM     19  N   UNL     1       1.050   8.607  19.755  0.00  0.00    +0.000 N 
ATOM     20  H   UNL     1       0.507   8.464  20.594  0.00  0.00    +0.000 HD
ENDBRANCH   2  10
BRANCH   7  21
ATOM     21  C   UNL     1       0.924  16.102  20.179  0.00  0.00    +0.000 C 
BRANCH  21  22
ATOM     22  C   UNL     1       0.917  16.832  18.857  0.00  0.00    +0.000 A 
ATOM     23  C   UNL     1      -0.213  17.550  18.442  0.00  0.00    +0.000 A 
ATOM     24  C   UNL     1      -0.184  18.305  17.269  0.00  0.00    +0.000 A 
ATOM     25  C   UNL     1       0.973  18.350  16.494  0.00  0.00    +0.000 A 
ATOM     26  C   UNL     1       2.100  17.632  16.886  0.00  0.00    +0.000 A 
ATOM     27  C   UNL     1       2.073  16.879  18.062  0.00  0.00    +0.000 A 
ENDBRANCH  21  22
ENDBRANCH   7  21
BRANCH   8  28
ATOM     28  C   UNL     1       3.108  14.072  20.569  0.00  0.00    +0.000 C 
BRANCH  28  29
ATOM     29  C   UNL     1       4.209  14.791  19.809  0.00  0.00    +0.000 A 
ATOM     30  C   UNL     1       4.686  14.400  18.548  0.00  0.00    +0.000 A 
ATOM     31  C   UNL     1       5.712  15.102  17.915  0.00  0.00    +0.000 A 
ATOM     32  C   UNL     1       6.294  16.198  18.541  0.00  0.00    +0.000 A 
ATOM     33  C   UNL     1       5.844  16.597  19.796  0.00  0.00    +0.000 A 
ATOM     34  C   UNL     1       4.807  15.903  20.422  0.00  0.00    +0.000 A 
ENDBRANCH  28  29
ENDBRANCH   8  28
TORSDOF 5
ENDMDL
MODEL 8
REMARK VINA RESULT:      -7.9      4.805      6.561
REMARK  Name = 
REMARK  5 active torsions:
REMARK  status: ('A' for Active; 'I' for Inactive)
REMARK    1  A    between atoms: C_2  and  C_3
REMARK    2  A    between atoms: N_17  and  C_18
REMARK    3  A    between atoms: C_18  and  C_19
REMARK    4  A    between atoms: C_25  and  C_26
REMARK    5  A    between atoms: C_26  and  C_27
REMARK                            x       y       z     vdW  Elec       q    Type
REMARK                         _______ _______ _______ _____ _____    ______ ____
ROOT
ATOM      1  O   UNL     1       1.649  15.793  21.207  0.00  0.00    +0.000 OA
ATOM      2  C   UNL     1       2.084  14.951  20.425  0.00  0.00    +0.000 C 
ATOM      3  N   UNL     1       1.227  14.049  19.798  0.00  0.00    +0.000 N 
ATOM      4  C   UNL     1      -0.205  14.330  19.823  0.00  0.00    +0.000 C 
ATOM      5  C   UNL     1      -1.140  13.117  19.893  0.00  0.00    +0.000 C 
ATOM      6  O   UNL     1      -2.313  13.271  20.236  0.00  0.00    +0.000 OA
ATOM      7  N   UNL     1      -0.667  11.914  19.365  0.00  0.00    +0.000 N 
ATOM      8  C   UNL     1       0.783  11.665  19.218  0.00  0.00    +0.000 C 
ATOM      9  C   UNL     1       1.626  12.932  18.963  0.00  0.00    +0.000 C 
ENDROOT
BRANCH   2  10
ATOM     10  C   UNL     1       3.503  14.885  20.131  0.00  0.00    +0.000 A 
ATOM     11  C   UNL     1       4.542  14.760  21.040  0.00  0.00    +0.000 A 
ATOM     12  C   UNL     1       5.774  14.829  20.336  0.00  0.00    +0.000 A 
ATOM     13  C   UNL     1       7.126  14.782  20.722  0.00  0.00    +0.000 A 
ATOM     14  C   UNL     1       8.103  14.911  19.737  0.00  0.00    +0.000 A 
ATOM     15  F   UNL     1       9.395  14.900  20.095  0.00  0.00    +0.000 F 
ATOM     16  C   UNL     1       7.776  15.061  18.394  0.00  0.00    +0.000 A 
ATOM     17  C   UNL     1       6.439  15.102  17.989  0.00  0.00    +0.000 A 
ATOM     18  C   UNL     1       5.464  14.996  18.989  0.00  0.00    +0.000 A 
ATOM     19  N   UNL     1       4.094  15.068  18.900  0.00  0.00    +0.000 N 
ATOM     20  H   UNL     1       3.595  15.259  18.043  0.00  0.00    +0.000 HD
ENDBRANCH   2  10
BRANCH   7  21
ATOM     21  C   UNL     1      -1.605  10.785  19.308  0.00  0.00    +0.000 C 
BRANCH  21  22
ATOM     22  C   UNL     1      -2.401  10.680  18.029  0.00  0.00    +0.000 A 
ATOM     23  C   UNL     1      -3.585  11.411  17.861  0.00  0.00    +0.000 A 
ATOM     24  C   UNL     1      -4.266  11.391  16.643  0.00  0.00    +0.000 A 
ATOM     25  C   UNL     1      -3.776  10.637  15.579  0.00  0.00    +0.000 A 
ATOM     26  C   UNL     1      -2.608   9.894  15.734  0.00  0.00    +0.000 A 
ATOM     27  C   UNL     1      -1.923   9.917  16.951  0.00  0.00    +0.000 A 
ENDBRANCH  21  22
ENDBRANCH   7  21
BRANCH   8  28
ATOM     28  C   UNL     1       1.167  10.604  18.156  0.00  0.00    +0.000 C 
BRANCH  28  29
ATOM     29  C   UNL     1       1.644   9.238  18.618  0.00  0.00    +0.000 A 
ATOM     30  C   UNL     1       2.313   8.315  17.800  0.00  0.00    +0.000 A 
ATOM     31  C   UNL     1       2.709   7.071  18.290  0.00  0.00    +0.000 A 
ATOM     32  C   UNL     1       2.427   6.719  19.604  0.00  0.00    +0.000 A 
ATOM     33  C   UNL     1       1.756   7.615  20.430  0.00  0.00    +0.000 A 
ATOM     34  C   UNL     1       1.372   8.866  19.943  0.00  0.00    +0.000 A 
ENDBRANCH  28  29
ENDBRANCH   8  28
TORSDOF 5
ENDMDL
MODEL 9
REMARK VINA RESULT:      -7.9      0.981      1.612
REMARK  Name = 
REMARK  5 active torsions:
REMARK  status: ('A' for Active; 'I' for Inactive)
REMARK    1  A    between atoms: C_2  and  C_3
REMARK    2  A    between atoms: N_17  and  C_18
REMARK    3  A    between atoms: C_18  and  C_19
REMARK    4  A    between atoms: C_25  and  C_26
REMARK    5  A    between atoms: C_26  and  C_27
REMARK                            x       y       z     vdW  Elec       q    Type
REMARK                         _______ _______ _______ _____ _____    ______ ____
ROOT
ATOM      1  O   UNL     1       0.196   9.588  23.565  0.00  0.00    +0.000 OA
ATOM      2  C   UNL     1       0.241   9.811  22.358  0.00  0.00    +0.000 C 
ATOM      3  N   UNL     1      -0.366  10.943  21.817  0.00  0.00    +0.000 N 
ATOM      4  C   UNL     1      -0.759  12.013  22.727  0.00  0.00    +0.000 C 
ATOM      5  C   UNL     1      -2.027  12.794  22.360  0.00  0.00    +0.000 C 
ATOM      6  O   UNL     1      -2.591  13.475  23.217  0.00  0.00    +0.000 OA
ATOM      7  N   UNL     1      -2.369  12.857  21.008  0.00  0.00    +0.000 N 
ATOM      8  C   UNL     1      -1.875  11.846  20.050  0.00  0.00    +0.000 C 
ATOM      9  C   UNL     1      -0.498  11.248  20.405  0.00  0.00    +0.000 C 
ENDROOT
BRANCH   2  10
ATOM     10  C   UNL     1       0.938   8.901  21.469  0.00  0.00    +0.000 A 
ATOM     11  C   UNL     1       1.452   9.186  20.213  0.00  0.00    +0.000 A 
ATOM     12  C   UNL     1       1.970   7.990  19.651  0.00  0.00    +0.000 A 
ATOM     13  C   UNL     1       2.582   7.669  18.424  0.00  0.00    +0.000 A 
ATOM     14  C   UNL     1       2.952   6.345  18.193  0.00  0.00    +0.000 A 
ATOM     15  F   UNL     1       3.505   6.020  17.016  0.00  0.00    +0.000 F 
ATOM     16  C   UNL     1       2.752   5.351  19.143  0.00  0.00    +0.000 A 
ATOM     17  C   UNL     1       2.155   5.650  20.371  0.00  0.00    +0.000 A 
ATOM     18  C   UNL     1       1.765   6.978  20.585  0.00  0.00    +0.000 A 
ATOM     19  N   UNL     1       1.105   7.546  21.649  0.00  0.00    +0.000 N 
ATOM     20  H   UNL     1       0.767   7.023  22.444  0.00  0.00    +0.000 HD
ENDBRANCH   2  10
BRANCH   7  21
ATOM     21  C   UNL     1      -3.505  13.713  20.637  0.00  0.00    +0.000 C 
BRANCH  21  22
ATOM     22  C   UNL     1      -4.835  13.004  20.548  0.00  0.00    +0.000 A 
ATOM     23  C   UNL     1      -5.281  12.469  19.331  0.00  0.00    +0.000 A 
ATOM     24  C   UNL     1      -6.462  11.728  19.270  0.00  0.00    +0.000 A 
ATOM     25  C   UNL     1      -7.215  11.515  20.423  0.00  0.00    +0.000 A 
ATOM     26  C   UNL     1      -6.793  12.052  21.637  0.00  0.00    +0.000 A 
ATOM     27  C   UNL     1      -5.609  12.790  21.700  0.00  0.00    +0.000 A 
ENDBRANCH  21  22
ENDBRANCH   7  21
BRANCH   8  28
ATOM     28  C   UNL     1      -1.839  12.302  18.569  0.00  0.00    +0.000 C 
BRANCH  28  29
ATOM     29  C   UNL     1      -2.382  11.371  17.499  0.00  0.00    +0.000 A 
ATOM     30  C   UNL     1      -2.473  11.697  16.137  0.00  0.00    +0.000 A 
ATOM     31  C   UNL     1      -2.996  10.795  15.212  0.00  0.00    +0.000 A 
ATOM     32  C   UNL     1      -3.457   9.554  15.634  0.00  0.00    +0.000 A 
ATOM     33  C   UNL     1      -3.387   9.213  16.982  0.00  0.00    +0.000 A 
ATOM     34  C   UNL     1      -2.849  10.111  17.905  0.00  0.00    +0.000 A 
ENDBRANCH  28  29
ENDBRANCH   8  28
TORSDOF 5
ENDMDL
