MODEL 1
REMARK VINA RESULT:      -8.8      0.000      0.000
REMARK  Name = 
REMARK  9 active torsions:
REMARK  status: ('A' for Active; 'I' for Inactive)
REMARK    1  A    between atoms: C_1  and  O_2
REMARK    2  A    between atoms: O_2  and  C_3
REMARK    3  A    between atoms: C_6  and  C_7
REMARK    4  A    between atoms: N_17  and  C_18
REMARK    5  A    between atoms: C_18  and  C_19
REMARK    6  A    between atoms: C_26  and  C_27
REMARK    7  A    between atoms: C_27  and  O_28
REMARK    8  A    between atoms: O_28  and  C_29
REMARK    9  A    between atoms: C_32  and  N_33
REMARK                            x       y       z     vdW  Elec       q    Type
REMARK                         _______ _______ _______ _____ _____    ______ ____
ROOT
ATOM      1  C   UNL     1       2.177   6.417  20.162  0.00  0.00    +0.000 A 
ATOM      2  C   UNL     1       1.555   7.367  20.987  0.00  0.00    +0.000 A 
ATOM      3  C   UNL     1       1.168   8.613  20.488  0.00  0.00    +0.000 A 
ATOM      4  C   UNL     1       1.383   8.938  19.145  0.00  0.00    +0.000 A 
ATOM      5  C   UNL     1       1.906   7.938  18.298  0.00  0.00    +0.000 A 
ATOM      6  C   UNL     1       2.335   6.690  18.793  0.00  0.00    +0.000 A 
ENDROOT
BRANCH   4   7
ATOM      7  C   UNL     1       1.024  10.329  18.622  0.00  0.00    +0.000 C 
ATOM      8  N   UNL     1       2.239  11.139  18.714  0.00  0.00    +0.000 N 
ATOM      9  C   UNL     1       2.034  12.520  18.599  0.00  0.00    +0.000 A 
ATOM     10  C   UNL     1       3.053  13.347  18.115  0.00  0.00    +0.000 A 
ATOM     11  C   UNL     1       2.878  14.735  18.059  0.00  0.00    +0.000 A 
ATOM     12  C   UNL     1       1.701  15.316  18.528  0.00  0.00    +0.000 A 
ATOM     13  C   UNL     1       0.706  14.507  19.071  0.00  0.00    +0.000 A 
ATOM     14  C   UNL     1       0.889  13.121  19.113  0.00  0.00    +0.000 A 
ATOM     15  C   UNL     1      -0.154  12.256  19.675  0.00  0.00    +0.000 C 
ATOM     16  O   UNL     1      -1.049  12.754  20.352  0.00  0.00    +0.000 OA
ATOM     17  N   UNL     1      -0.101  10.911  19.345  0.00  0.00    +0.000 N 
ATOM     18  H   UNL     1       2.710  10.951  19.598  0.00  0.00    +0.000 HD
BRANCH  17  19
ATOM     19  C   UNL     1      -1.388  10.205  19.320  0.00  0.00    +0.000 C 
BRANCH  19  20
ATOM     20  C   UNL     1      -2.204  10.458  18.059  0.00  0.00    +0.000 A 
ATOM     21  C   UNL     1      -1.884   9.802  16.863  0.00  0.00    +0.000 A 
ATOM     22  C   UNL     1      -2.648  10.013  15.708  0.00  0.00    +0.000 A 
ATOM     23  C   UNL     1      -3.739  10.881  15.741  0.00  0.00    +0.000 A 
ATOM     24  C   UNL     1      -4.077  11.527  16.925  0.00  0.00    +0.000 A 
ATOM     25  C   UNL     1      -3.320  11.309  18.078  0.00  0.00    +0.000 A 
ENDBRANCH  19  20
ENDBRANCH  17  19
ENDBRANCH   4   7
BRANCH   1  27
ATOM     26  C   UNL     1       1.654   4.235  20.933  0.00  0.00    +0.000 C 
ATOM     27  O   UNL     1       2.646   5.211  20.616  0.00  0.00    +0.000 OA
ENDBRANCH   1  27
BRANCH   6  28
ATOM     28  C   UNL     1       2.963   5.704  17.824  0.00  0.00    +0.000 C 
BRANCH  28  29
ATOM     29  O   UNL     1       4.357   5.588  18.108  0.00  0.00    +0.000 OA
BRANCH  29  30
ATOM     30  C   UNL     1       5.208   5.449  17.043  0.00  0.00    +0.000 A 
ATOM     31  C   UNL     1       4.726   4.632  16.011  0.00  0.00    +0.000 A 
ATOM     32  C   UNL     1       5.461   4.450  14.835  0.00  0.00    +0.000 A 
ATOM     33  C   UNL     1       6.685   5.103  14.683  0.00  0.00    +0.000 A 
ATOM     34  C   UNL     1       7.182   5.925  15.705  0.00  0.00    +0.000 A 
ATOM     35  C   UNL     1       6.438   6.093  16.884  0.00  0.00    +0.000 A 
BRANCH  33  36
ATOM     36  N   UNL     1       7.449   4.943  13.436  0.00  0.00    +0.000 N 
ATOM     37  O   UNL     1       8.472   5.627  13.297  0.00  0.00    +0.000 OA
ATOM     38  O   UNL     1       7.027   4.132  12.598  0.00  0.00    +0.000 OA
ENDBRANCH  33  36
ENDBRANCH  29  30
ENDBRANCH  28  29
ENDBRANCH   6  28
TORSDOF 8
ENDMDL
MODEL 2
REMARK VINA RESULT:      -8.6      0.453      1.079
REMARK  Name = 
REMARK  9 active torsions:
REMARK  status: ('A' for Active; 'I' for Inactive)
REMARK    1  A    between atoms: C_1  and  O_2
REMARK    2  A    between atoms: O_2  and  C_3
REMARK    3  A    between atoms: C_6  and  C_7
REMARK    4  A    between atoms: N_17  and  C_18
REMARK    5  A    between atoms: C_18  and  C_19
REMARK    6  A    between atoms: C_26  and  C_27
REMARK    7  A    between atoms: C_27  and  O_28
REMARK    8  A    between atoms: O_28  and  C_29
REMARK    9  A    between atoms: C_32  and  N_33
REMARK                            x       y       z     vdW  Elec       q    Type
REMARK                         _______ _______ _______ _____ _____    ______ ____
ROOT
ATOM      1  C   UNL     1       2.215   6.370  20.103  0.00  0.00    +0.000 A 
ATOM      2  C   UNL     1       1.756   7.369  20.975  0.00  0.00    +0.000 A 
ATOM      3  C   UNL     1       1.359   8.620  20.496  0.00  0.00    +0.000 A 
ATOM      4  C   UNL     1       1.402   8.901  19.127  0.00  0.00    +0.000 A 
ATOM      5  C   UNL     1       1.759   7.857  18.247  0.00  0.00    +0.000 A 
ATOM      6  C   UNL     1       2.195   6.602  18.718  0.00  0.00    +0.000 A 
ENDROOT
BRANCH   4   7
ATOM      7  C   UNL     1       1.037  10.295  18.615  0.00  0.00    +0.000 C 
ATOM      8  N   UNL     1       2.258  11.097  18.672  0.00  0.00    +0.000 N 
ATOM      9  C   UNL     1       2.059  12.480  18.564  0.00  0.00    +0.000 A 
ATOM     10  C   UNL     1       3.068  13.300  18.050  0.00  0.00    +0.000 A 
ATOM     11  C   UNL     1       2.901  14.689  18.000  0.00  0.00    +0.000 A 
ATOM     12  C   UNL     1       1.741  15.277  18.503  0.00  0.00    +0.000 A 
ATOM     13  C   UNL     1       0.758  14.475  19.075  0.00  0.00    +0.000 A 
ATOM     14  C   UNL     1       0.933  13.087  19.111  0.00  0.00    +0.000 A 
ATOM     15  C   UNL     1      -0.098  12.228  19.703  0.00  0.00    +0.000 C 
ATOM     16  O   UNL     1      -0.969  12.732  20.406  0.00  0.00    +0.000 OA
ATOM     17  N   UNL     1      -0.063  10.884  19.371  0.00  0.00    +0.000 N 
ATOM     18  H   UNL     1       2.754  10.905  19.541  0.00  0.00    +0.000 HD
BRANCH  17  19
ATOM     19  C   UNL     1      -1.355  10.185  19.384  0.00  0.00    +0.000 C 
BRANCH  19  20
ATOM     20  C   UNL     1      -2.191  10.418  18.132  0.00  0.00    +0.000 A 
ATOM     21  C   UNL     1      -3.295  11.281  18.166  0.00  0.00    +0.000 A 
ATOM     22  C   UNL     1      -4.051  11.517  17.011  0.00  0.00    +0.000 A 
ATOM     23  C   UNL     1      -3.708  10.894  15.811  0.00  0.00    +0.000 A 
ATOM     24  C   UNL     1      -2.606  10.047  15.760  0.00  0.00    +0.000 A 
ATOM     25  C   UNL     1      -1.847   9.819  16.911  0.00  0.00    +0.000 A 
ENDBRANCH  19  20
ENDBRANCH  17  19
ENDBRANCH   4   7
BRANCH   1  27
ATOM     26  C   UNL     1       1.736   4.302  21.160  0.00  0.00    +0.000 C 
ATOM     27  O   UNL     1       2.688   5.155  20.526  0.00  0.00    +0.000 OA
ENDBRANCH   1  27
BRANCH   6  28
ATOM     28  C   UNL     1       2.639   5.563  17.702  0.00  0.00    +0.000 C 
BRANCH  28  29
ATOM     29  O   UNL     1       4.026   5.280  17.894  0.00  0.00    +0.000 OA
BRANCH  29  30
ATOM     30  C   UNL     1       4.788   5.079  16.774  0.00  0.00    +0.000 A 
ATOM     31  C   UNL     1       5.127   6.248  16.079  0.00  0.00    +0.000 A 
ATOM     32  C   UNL     1       5.954   6.199  14.951  0.00  0.00    +0.000 A 
ATOM     33  C   UNL     1       6.459   4.972  14.523  0.00  0.00    +0.000 A 
ATOM     34  C   UNL     1       6.131   3.792  15.208  0.00  0.00    +0.000 A 
ATOM     35  C   UNL     1       5.294   3.853  16.333  0.00  0.00    +0.000 A 
BRANCH  33  36
ATOM     36  N   UNL     1       7.356   4.916  13.357  0.00  0.00    +0.000 N 
ATOM     37  O   UNL     1       8.363   5.635  13.372  0.00  0.00    +0.000 OA
ATOM     38  O   UNL     1       7.052   4.151  12.430  0.00  0.00    +0.000 OA
ENDBRANCH  33  36
ENDBRANCH  29  30
ENDBRANCH  28  29
ENDBRANCH   6  28
TORSDOF 8
ENDMDL
MODEL 3
REMARK VINA RESULT:      -8.6      0.608      1.127
REMARK  Name = 
REMARK  9 active torsions:
REMARK  status: ('A' for Active; 'I' for Inactive)
REMARK    1  A    between atoms: C_1  and  O_2
REMARK    2  A    between atoms: O_2  and  C_3
REMARK    3  A    between atoms: C_6  and  C_7
REMARK    4  A    between atoms: N_17  and  C_18
REMARK    5  A    between atoms: C_18  and  C_19
REMARK    6  A    between atoms: C_26  and  C_27
REMARK    7  A    between atoms: C_27  and  O_28
REMARK    8  A    between atoms: O_28  and  C_29
REMARK    9  A    between atoms: C_32  and  N_33
REMARK                            x       y       z     vdW  Elec       q    Type
REMARK                         _______ _______ _______ _____ _____    ______ ____
ROOT
ATOM      1  C   UNL     1       1.941   6.800  20.326  0.00  0.00    +0.000 A 
ATOM      2  C   UNL     1       1.472   7.822  21.166  0.00  0.00    +0.000 A 
ATOM      3  C   UNL     1       1.090   9.062  20.649  0.00  0.00    +0.000 A 
ATOM      4  C   UNL     1       1.158   9.310  19.275  0.00  0.00    +0.000 A 
ATOM      5  C   UNL     1       1.523   8.243  18.427  0.00  0.00    +0.000 A 
ATOM      6  C   UNL     1       1.945   6.997  18.935  0.00  0.00    +0.000 A 
ENDROOT
BRANCH   4   7
ATOM      7  C   UNL     1       0.809  10.693  18.724  0.00  0.00    +0.000 C 
ATOM      8  N   UNL     1       2.031  11.494  18.792  0.00  0.00    +0.000 N 
ATOM      9  C   UNL     1       1.838  12.874  18.649  0.00  0.00    +0.000 A 
ATOM     10  C   UNL     1       2.862  13.680  18.142  0.00  0.00    +0.000 A 
ATOM     11  C   UNL     1       2.699  15.068  18.057  0.00  0.00    +0.000 A 
ATOM     12  C   UNL     1       1.529  15.670  18.518  0.00  0.00    +0.000 A 
ATOM     13  C   UNL     1       0.530  14.883  19.084  0.00  0.00    +0.000 A 
ATOM     14  C   UNL     1       0.701  13.496  19.155  0.00  0.00    +0.000 A 
ATOM     15  C   UNL     1      -0.347  12.653  19.740  0.00  0.00    +0.000 C 
ATOM     16  O   UNL     1      -1.234  13.173  20.410  0.00  0.00    +0.000 OA
ATOM     17  N   UNL     1      -0.308  11.301  19.439  0.00  0.00    +0.000 N 
ATOM     18  H   UNL     1       2.505  11.320  19.678  0.00  0.00    +0.000 HD
BRANCH  17  19
ATOM     19  C   UNL     1      -1.601  10.606  19.435  0.00  0.00    +0.000 C 
BRANCH  19  20
ATOM     20  C   UNL     1      -2.318  10.648  18.092  0.00  0.00    +0.000 A 
ATOM     21  C   UNL     1      -3.413  11.500  17.898  0.00  0.00    +0.000 A 
ATOM     22  C   UNL     1      -4.059  11.561  16.657  0.00  0.00    +0.000 A 
ATOM     23  C   UNL     1      -3.612  10.771  15.597  0.00  0.00    +0.000 A 
ATOM     24  C   UNL     1      -2.516   9.933  15.771  0.00  0.00    +0.000 A 
ATOM     25  C   UNL     1      -1.868   9.879  17.008  0.00  0.00    +0.000 A 
ENDBRANCH  19  20
ENDBRANCH  17  19
ENDBRANCH   4   7
BRANCH   1  27
ATOM     26  C   UNL     1       1.454   4.523  20.782  0.00  0.00    +0.000 C 
ATOM     27  O   UNL     1       2.399   5.592  20.786  0.00  0.00    +0.000 OA
ENDBRANCH   1  27
BRANCH   6  28
ATOM     28  C   UNL     1       2.399   5.932  17.953  0.00  0.00    +0.000 C 
BRANCH  28  29
ATOM     29  O   UNL     1       3.767   5.610  18.208  0.00  0.00    +0.000 OA
BRANCH  29  30
ATOM     30  C   UNL     1       4.608   5.530  17.130  0.00  0.00    +0.000 A 
ATOM     31  C   UNL     1       5.134   4.254  16.891  0.00  0.00    +0.000 A 
ATOM     32  C   UNL     1       5.958   4.011  15.787  0.00  0.00    +0.000 A 
ATOM     33  C   UNL     1       6.248   5.052  14.905  0.00  0.00    +0.000 A 
ATOM     34  C   UNL     1       5.728   6.336  15.128  0.00  0.00    +0.000 A 
ATOM     35  C   UNL     1       4.909   6.569  16.244  0.00  0.00    +0.000 A 
BRANCH  33  36
ATOM     36  N   UNL     1       7.087   4.798  13.723  0.00  0.00    +0.000 N 
ATOM     37  O   UNL     1       6.725   3.909  12.941  0.00  0.00    +0.000 OA
ATOM     38  O   UNL     1       8.106   5.489  13.578  0.00  0.00    +0.000 OA
ENDBRANCH  33  36
ENDBRANCH  29  30
ENDBRANCH  28  29
ENDBRANCH   6  28
TORSDOF 8
ENDMDL
MODEL 4
REMARK VINA RESULT:      -8.2      3.130     10.109
REMARK  Name = 
REMARK  9 active torsions:
REMARK  status: ('A' for Active; 'I' for Inactive)
REMARK    1  A    between atoms: C_1  and  O_2
REMARK    2  A    between atoms: O_2  and  C_3
REMARK    3  A    between atoms: C_6  and  C_7
REMARK    4  A    between atoms: N_17  and  C_18
REMARK    5  A    between atoms: C_18  and  C_19
REMARK    6  A    between atoms: C_26  and  C_27
REMARK    7  A    between atoms: C_27  and  O_28
REMARK    8  A    between atoms: O_28  and  C_29
REMARK    9  A    between atoms: C_32  and  N_33
REMARK                            x       y       z     vdW  Elec       q    Type
REMARK                         _______ _______ _______ _____ _____    ______ ____
ROOT
ATOM      1  C   UNL     1       0.437  10.022  19.021  0.00  0.00    +0.000 A 
ATOM      2  C   UNL     1       0.940   9.633  17.770  0.00  0.00    +0.000 A 
ATOM      3  C   UNL     1       1.830   8.562  17.651  0.00  0.00    +0.000 A 
ATOM      4  C   UNL     1       2.231   7.844  18.781  0.00  0.00    +0.000 A 
ATOM      5  C   UNL     1       1.636   8.169  20.018  0.00  0.00    +0.000 A 
ATOM      6  C   UNL     1       0.765   9.268  20.161  0.00  0.00    +0.000 A 
ENDROOT
BRANCH   4   7
ATOM      7  C   UNL     1       3.260   6.720  18.654  0.00  0.00    +0.000 C 
ATOM      8  N   UNL     1       4.397   7.273  17.917  0.00  0.00    +0.000 N 
ATOM      9  C   UNL     1       5.290   6.318  17.412  0.00  0.00    +0.000 A 
ATOM     10  C   UNL     1       6.632   6.648  17.203  0.00  0.00    +0.000 A 
ATOM     11  C   UNL     1       7.515   5.720  16.638  0.00  0.00    +0.000 A 
ATOM     12  C   UNL     1       7.055   4.468  16.233  0.00  0.00    +0.000 A 
ATOM     13  C   UNL     1       5.707   4.153  16.377  0.00  0.00    +0.000 A 
ATOM     14  C   UNL     1       4.837   5.085  16.952  0.00  0.00    +0.000 A 
ATOM     15  C   UNL     1       3.416   4.764  17.118  0.00  0.00    +0.000 C 
ATOM     16  O   UNL     1       2.940   3.809  16.511  0.00  0.00    +0.000 OA
ATOM     17  N   UNL     1       2.698   5.533  18.020  0.00  0.00    +0.000 N 
ATOM     18  H   UNL     1       4.059   7.846  17.145  0.00  0.00    +0.000 HD
BRANCH  17  19
ATOM     19  C   UNL     1       1.560   4.869  18.667  0.00  0.00    +0.000 C 
BRANCH  19  20
ATOM     20  C   UNL     1       1.959   3.913  19.784  0.00  0.00    +0.000 A 
ATOM     21  C   UNL     1       1.011   3.475  20.717  0.00  0.00    +0.000 A 
ATOM     22  C   UNL     1       1.369   2.576  21.730  0.00  0.00    +0.000 A 
ATOM     23  C   UNL     1       2.679   2.105  21.815  0.00  0.00    +0.000 A 
ATOM     24  C   UNL     1       3.627   2.519  20.886  0.00  0.00    +0.000 A 
ATOM     25  C   UNL     1       3.266   3.409  19.871  0.00  0.00    +0.000 A 
ENDBRANCH  19  20
ENDBRANCH  17  19
ENDBRANCH   4   7
BRANCH   1  27
ATOM     26  C   UNL     1      -1.598  11.107  18.469  0.00  0.00    +0.000 C 
ATOM     27  O   UNL     1      -0.376  11.110  19.205  0.00  0.00    +0.000 OA
ENDBRANCH   1  27
BRANCH   6  28
ATOM     28  C   UNL     1       0.235   9.596  21.546  0.00  0.00    +0.000 C 
BRANCH  28  29
ATOM     29  O   UNL     1       0.635  10.919  21.902  0.00  0.00    +0.000 OA
BRANCH  29  30
ATOM     30  C   UNL     1      -0.352  11.806  22.241  0.00  0.00    +0.000 A 
ATOM     31  C   UNL     1      -1.476  11.228  22.844  0.00  0.00    +0.000 A 
ATOM     32  C   UNL     1      -2.536  12.021  23.299  0.00  0.00    +0.000 A 
ATOM     33  C   UNL     1      -2.463  13.407  23.163  0.00  0.00    +0.000 A 
ATOM     34  C   UNL     1      -1.344  14.003  22.563  0.00  0.00    +0.000 A 
ATOM     35  C   UNL     1      -0.291  13.196  22.103  0.00  0.00    +0.000 A 
BRANCH  33  36
ATOM     36  N   UNL     1      -3.558  14.250  23.669  0.00  0.00    +0.000 N 
ATOM     37  O   UNL     1      -4.484  13.691  24.271  0.00  0.00    +0.000 OA
ATOM     38  O   UNL     1      -3.489  15.471  23.465  0.00  0.00    +0.000 OA
ENDBRANCH  33  36
ENDBRANCH  29  30
ENDBRANCH  28  29
ENDBRANCH   6  28
TORSDOF 8
ENDMDL
MODEL 5
REMARK VINA RESULT:      -8.1      3.118     10.087
REMARK  Name = 
REMARK  9 active torsions:
REMARK  status: ('A' for Active; 'I' for Inactive)
REMARK    1  A    between atoms: C_1  and  O_2
REMARK    2  A    between atoms: O_2  and  C_3
REMARK    3  A    between atoms: C_6  and  C_7
REMARK    4  A    between atoms: N_17  and  C_18
REMARK    5  A    between atoms: C_18  and  C_19
REMARK    6  A    between atoms: C_26  and  C_27
REMARK    7  A    between atoms: C_27  and  O_28
REMARK    8  A    between atoms: O_28  and  C_29
REMARK    9  A    between atoms: C_32  and  N_33
REMARK                            x       y       z     vdW  Elec       q    Type
REMARK                         _______ _______ _______ _____ _____    ______ ____
ROOT
ATOM      1  C   UNL     1       0.385  10.017  19.043  0.00  0.00    +0.000 A 
ATOM      2  C   UNL     1       0.957   9.677  17.808  0.00  0.00    +0.000 A 
ATOM      3  C   UNL     1       1.861   8.618  17.698  0.00  0.00    +0.000 A 
ATOM      4  C   UNL     1       2.209   7.863  18.821  0.00  0.00    +0.000 A 
ATOM      5  C   UNL     1       1.546   8.139  20.036  0.00  0.00    +0.000 A 
ATOM      6  C   UNL     1       0.659   9.226  20.171  0.00  0.00    +0.000 A 
ENDROOT
BRANCH   4   7
ATOM      7  C   UNL     1       3.254   6.752  18.709  0.00  0.00    +0.000 C 
ATOM      8  N   UNL     1       4.422   7.339  18.052  0.00  0.00    +0.000 N 
ATOM      9  C   UNL     1       5.349   6.409  17.561  0.00  0.00    +0.000 A 
ATOM     10  C   UNL     1       6.697   6.757  17.433  0.00  0.00    +0.000 A 
ATOM     11  C   UNL     1       7.616   5.856  16.883  0.00  0.00    +0.000 A 
ATOM     12  C   UNL     1       7.190   4.614  16.413  0.00  0.00    +0.000 A 
ATOM     13  C   UNL     1       5.839   4.284  16.476  0.00  0.00    +0.000 A 
ATOM     14  C   UNL     1       4.932   5.189  17.037  0.00  0.00    +0.000 A 
ATOM     15  C   UNL     1       3.507   4.852  17.118  0.00  0.00    +0.000 C 
ATOM     16  O   UNL     1       3.072   3.914  16.455  0.00  0.00    +0.000 OA
ATOM     17  N   UNL     1       2.737   5.583  18.007  0.00  0.00    +0.000 N 
ATOM     18  H   UNL     1       4.119   7.935  17.283  0.00  0.00    +0.000 HD
BRANCH  17  19
ATOM     19  C   UNL     1       1.573   4.888  18.572  0.00  0.00    +0.000 C 
BRANCH  19  20
ATOM     20  C   UNL     1       1.920   3.921  19.696  0.00  0.00    +0.000 A 
ATOM     21  C   UNL     1       3.204   3.367  19.785  0.00  0.00    +0.000 A 
ATOM     22  C   UNL     1       3.535   2.497  20.831  0.00  0.00    +0.000 A 
ATOM     23  C   UNL     1       2.584   2.175  21.800  0.00  0.00    +0.000 A 
ATOM     24  C   UNL     1       1.311   2.730  21.732  0.00  0.00    +0.000 A 
ATOM     25  C   UNL     1       0.985   3.604  20.693  0.00  0.00    +0.000 A 
ENDBRANCH  19  20
ENDBRANCH  17  19
ENDBRANCH   4   7
BRANCH   1  27
ATOM     26  C   UNL     1      -0.021  12.317  18.628  0.00  0.00    +0.000 C 
ATOM     27  O   UNL     1      -0.448  11.092  19.222  0.00  0.00    +0.000 OA
ENDBRANCH   1  27
BRANCH   6  28
ATOM     28  C   UNL     1       0.053   9.499  21.536  0.00  0.00    +0.000 C 
BRANCH  28  29
ATOM     29  O   UNL     1       0.476  10.786  21.989  0.00  0.00    +0.000 OA
BRANCH  29  30
ATOM     30  C   UNL     1      -0.493  11.648  22.431  0.00  0.00    +0.000 A 
ATOM     31  C   UNL     1      -0.259  12.996  22.128  0.00  0.00    +0.000 A 
ATOM     32  C   UNL     1      -1.194  13.981  22.464  0.00  0.00    +0.000 A 
ATOM     33  C   UNL     1      -2.382  13.613  23.095  0.00  0.00    +0.000 A 
ATOM     34  C   UNL     1      -2.633  12.267  23.404  0.00  0.00    +0.000 A 
ATOM     35  C   UNL     1      -1.683  11.289  23.070  0.00  0.00    +0.000 A 
BRANCH  33  36
ATOM     36  N   UNL     1      -3.386  14.638  23.422  0.00  0.00    +0.000 N 
ATOM     37  O   UNL     1      -3.490  15.605  22.656  0.00  0.00    +0.000 OA
ATOM     38  O   UNL     1      -4.069  14.474  24.444  0.00  0.00    +0.000 OA
ENDBRANCH  33  36
ENDBRANCH  29  30
ENDBRANCH  28  29
ENDBRANCH   6  28
TORSDOF 8
ENDMDL
MODEL 6
REMARK VINA RESULT:      -8.1      2.782      5.165
REMARK  Name = 
REMARK  9 active torsions:
REMARK  status: ('A' for Active; 'I' for Inactive)
REMARK    1  A    between atoms: C_1  and  O_2
REMARK    2  A    between atoms: O_2  and  C_3
REMARK    3  A    between atoms: C_6  and  C_7
REMARK    4  A    between atoms: N_17  and  C_18
REMARK    5  A    between atoms: C_18  and  C_19
REMARK    6  A    between atoms: C_26  and  C_27
REMARK    7  A    between atoms: C_27  and  O_28
REMARK    8  A    between atoms: O_28  and  C_29
REMARK    9  A    between atoms: C_32  and  N_33
REMARK                            x       y       z     vdW  Elec       q    Type
REMARK                         _______ _______ _______ _____ _____    ______ ____
ROOT
ATOM      1  C   UNL     1      -1.230  10.671  17.964  0.00  0.00    +0.000 A 
ATOM      2  C   UNL     1      -1.651  12.009  17.975  0.00  0.00    +0.000 A 
ATOM      3  C   UNL     1      -0.767  13.042  18.296  0.00  0.00    +0.000 A 
ATOM      4  C   UNL     1       0.568  12.763  18.604  0.00  0.00    +0.000 A 
ATOM      5  C   UNL     1       1.011  11.429  18.482  0.00  0.00    +0.000 A 
ATOM      6  C   UNL     1       0.124  10.372  18.194  0.00  0.00    +0.000 A 
ENDROOT
BRANCH   4   7
ATOM      7  C   UNL     1       1.512  13.889  19.026  0.00  0.00    +0.000 C 
ATOM      8  N   UNL     1       2.760  13.691  18.288  0.00  0.00    +0.000 N 
ATOM      9  C   UNL     1       3.855  14.413  18.780  0.00  0.00    +0.000 A 
ATOM     10  C   UNL     1       4.901  14.777  17.927  0.00  0.00    +0.000 A 
ATOM     11  C   UNL     1       6.028  15.441  18.425  0.00  0.00    +0.000 A 
ATOM     12  C   UNL     1       6.142  15.710  19.788  0.00  0.00    +0.000 A 
ATOM     13  C   UNL     1       5.136  15.294  20.655  0.00  0.00    +0.000 A 
ATOM     14  C   UNL     1       4.011  14.639  20.144  0.00  0.00    +0.000 A 
ATOM     15  C   UNL     1       2.938  14.203  21.045  0.00  0.00    +0.000 C 
ATOM     16  O   UNL     1       3.149  14.160  22.254  0.00  0.00    +0.000 OA
ATOM     17  N   UNL     1       1.709  13.925  20.471  0.00  0.00    +0.000 N 
ATOM     18  H   UNL     1       2.999  12.700  18.280  0.00  0.00    +0.000 HD
BRANCH  17  19
ATOM     19  C   UNL     1       0.536  14.135  21.330  0.00  0.00    +0.000 C 
BRANCH  19  20
ATOM     20  C   UNL     1      -0.056  12.847  21.888  0.00  0.00    +0.000 A 
ATOM     21  C   UNL     1       0.603  11.624  21.705  0.00  0.00    +0.000 A 
ATOM     22  C   UNL     1       0.075  10.442  22.238  0.00  0.00    +0.000 A 
ATOM     23  C   UNL     1      -1.117  10.474  22.963  0.00  0.00    +0.000 A 
ATOM     24  C   UNL     1      -1.773  11.683  23.166  0.00  0.00    +0.000 A 
ATOM     25  C   UNL     1      -1.241  12.862  22.640  0.00  0.00    +0.000 A 
ENDBRANCH  19  20
ENDBRANCH  17  19
ENDBRANCH   4   7
BRANCH   1  27
ATOM     26  C   UNL     1      -3.411   9.950  17.373  0.00  0.00    +0.000 C 
ATOM     27  O   UNL     1      -2.071   9.614  17.731  0.00  0.00    +0.000 OA
ENDBRANCH   1  27
BRANCH   6  28
ATOM     28  C   UNL     1       0.672   8.956  18.164  0.00  0.00    +0.000 C 
BRANCH  28  29
ATOM     29  O   UNL     1       2.088   9.003  17.986  0.00  0.00    +0.000 OA
BRANCH  29  30
ATOM     30  C   UNL     1       2.792   7.853  18.226  0.00  0.00    +0.000 A 
ATOM     31  C   UNL     1       2.400   7.156  19.377  0.00  0.00    +0.000 A 
ATOM     32  C   UNL     1       2.989   5.933  19.712  0.00  0.00    +0.000 A 
ATOM     33  C   UNL     1       3.971   5.394  18.881  0.00  0.00    +0.000 A 
ATOM     34  C   UNL     1       4.375   6.077  17.725  0.00  0.00    +0.000 A 
ATOM     35  C   UNL     1       3.782   7.308  17.403  0.00  0.00    +0.000 A 
BRANCH  33  36
ATOM     36  N   UNL     1       4.574   4.091  19.209  0.00  0.00    +0.000 N 
ATOM     37  O   UNL     1       3.808   3.147  19.446  0.00  0.00    +0.000 OA
ATOM     38  O   UNL     1       5.811   4.015  19.227  0.00  0.00    +0.000 OA
ENDBRANCH  33  36
ENDBRANCH  29  30
ENDBRANCH  28  29
ENDBRANCH   6  28
TORSDOF 8
ENDMDL
MODEL 7
REMARK VINA RESULT:      -8.0      3.937      6.938
REMARK  Name = 
REMARK  9 active torsions:
REMARK  status: ('A' for Active; 'I' for Inactive)
REMARK    1  A    between atoms: C_1  and  O_2
REMARK    2  A    between atoms: O_2  and  C_3
REMARK    3  A    between atoms: C_6  and  C_7
REMARK    4  A    between atoms: N_17  and  C_18
REMARK    5  A    between atoms: C_18  and  C_19
REMARK    6  A    between atoms: C_26  and  C_27
REMARK    7  A    between atoms: C_27  and  O_28
REMARK    8  A    between atoms: O_28  and  C_29
REMARK    9  A    between atoms: C_32  and  N_33
REMARK                            x       y       z     vdW  Elec       q    Type
REMARK                         _______ _______ _______ _____ _____    ______ ____
ROOT
ATOM      1  C   UNL     1       6.224   5.462  16.500  0.00  0.00    +0.000 A 
ATOM      2  C   UNL     1       5.000   4.877  16.144  0.00  0.00    +0.000 A 
ATOM      3  C   UNL     1       3.798   5.318  16.705  0.00  0.00    +0.000 A 
ATOM      4  C   UNL     1       3.791   6.365  17.631  0.00  0.00    +0.000 A 
ATOM      5  C   UNL     1       5.011   7.020  17.900  0.00  0.00    +0.000 A 
ATOM      6  C   UNL     1       6.235   6.565  17.370  0.00  0.00    +0.000 A 
ENDROOT
BRANCH   4   7
ATOM      7  C   UNL     1       2.483   6.794  18.297  0.00  0.00    +0.000 C 
ATOM      8  N   UNL     1       2.125   8.092  17.725  0.00  0.00    +0.000 N 
ATOM      9  C   UNL     1       1.150   8.801  18.438  0.00  0.00    +0.000 A 
ATOM     10  C   UNL     1       0.324   9.719  17.782  0.00  0.00    +0.000 A 
ATOM     11  C   UNL     1      -0.608  10.477  18.500  0.00  0.00    +0.000 A 
ATOM     12  C   UNL     1      -0.695  10.359  19.886  0.00  0.00    +0.000 A 
ATOM     13  C   UNL     1       0.167   9.495  20.556  0.00  0.00    +0.000 A 
ATOM     14  C   UNL     1       1.088   8.736  19.827  0.00  0.00    +0.000 A 
ATOM     15  C   UNL     1       1.997   7.815  20.518  0.00  0.00    +0.000 C 
ATOM     16  O   UNL     1       2.143   7.913  21.733  0.00  0.00    +0.000 OA
ATOM     17  N   UNL     1       2.596   6.829  19.751  0.00  0.00    +0.000 N 
ATOM     18  H   UNL     1       2.959   8.673  17.646  0.00  0.00    +0.000 HD
BRANCH  17  19
ATOM     19  C   UNL     1       2.934   5.585  20.455  0.00  0.00    +0.000 C 
BRANCH  19  20
ATOM     20  C   UNL     1       2.299   4.342  19.846  0.00  0.00    +0.000 A 
ATOM     21  C   UNL     1       3.099   3.332  19.295  0.00  0.00    +0.000 A 
ATOM     22  C   UNL     1       2.520   2.176  18.757  0.00  0.00    +0.000 A 
ATOM     23  C   UNL     1       1.133   2.019  18.769  0.00  0.00    +0.000 A 
ATOM     24  C   UNL     1       0.328   3.006  19.327  0.00  0.00    +0.000 A 
ATOM     25  C   UNL     1       0.908   4.155  19.871  0.00  0.00    +0.000 A 
ENDBRANCH  19  20
ENDBRANCH  17  19
ENDBRANCH   4   7
BRANCH   1  27
ATOM     26  C   UNL     1       7.511   4.745  14.641  0.00  0.00    +0.000 C 
ATOM     27  O   UNL     1       7.437   5.019  16.039  0.00  0.00    +0.000 OA
ENDBRANCH   1  27
BRANCH   6  28
ATOM     28  C   UNL     1       7.511   7.280  17.778  0.00  0.00    +0.000 C 
BRANCH  28  29
ATOM     29  O   UNL     1       7.497   8.606  17.248  0.00  0.00    +0.000 OA
BRANCH  29  30
ATOM     30  C   UNL     1       8.231   9.556  17.907  0.00  0.00    +0.000 A 
ATOM     31  C   UNL     1       8.133  10.847  17.373  0.00  0.00    +0.000 A 
ATOM     32  C   UNL     1       8.780  11.928  17.981  0.00  0.00    +0.000 A 
ATOM     33  C   UNL     1       9.521  11.719  19.144  0.00  0.00    +0.000 A 
ATOM     34  C   UNL     1       9.629  10.432  19.694  0.00  0.00    +0.000 A 
ATOM     35  C   UNL     1       8.982   9.354  19.069  0.00  0.00    +0.000 A 
BRANCH  33  36
ATOM     36  N   UNL     1      10.177  12.856  19.809  0.00  0.00    +0.000 N 
ATOM     37  O   UNL     1      10.857  12.618  20.816  0.00  0.00    +0.000 OA
ATOM     38  O   UNL     1      10.012  13.984  19.322  0.00  0.00    +0.000 OA
ENDBRANCH  33  36
ENDBRANCH  29  30
ENDBRANCH  28  29
ENDBRANCH   6  28
TORSDOF 8
ENDMDL
MODEL 8
REMARK VINA RESULT:      -7.9      3.745      7.736
REMARK  Name = 
REMARK  9 active torsions:
REMARK  status: ('A' for Active; 'I' for Inactive)
REMARK    1  A    between atoms: C_1  and  O_2
REMARK    2  A    between atoms: O_2  and  C_3
REMARK    3  A    between atoms: C_6  and  C_7
REMARK    4  A    between atoms: N_17  and  C_18
REMARK    5  A    between atoms: C_18  and  C_19
REMARK    6  A    between atoms: C_26  and  C_27
REMARK    7  A    between atoms: C_27  and  O_28
REMARK    8  A    between atoms: O_28  and  C_29
REMARK    9  A    between atoms: C_32  and  N_33
REMARK                            x       y       z     vdW  Elec       q    Type
REMARK                         _______ _______ _______ _____ _____    ______ ____
ROOT
ATOM      1  C   UNL     1      -0.984  13.222  23.052  0.00  0.00    +0.000 A 
ATOM      2  C   UNL     1      -1.520  11.937  23.229  0.00  0.00    +0.000 A 
ATOM      3  C   UNL     1      -1.197  10.893  22.358  0.00  0.00    +0.000 A 
ATOM      4  C   UNL     1      -0.319  11.106  21.291  0.00  0.00    +0.000 A 
ATOM      5  C   UNL     1       0.301  12.369  21.185  0.00  0.00    +0.000 A 
ATOM      6  C   UNL     1      -0.041  13.441  22.034  0.00  0.00    +0.000 A 
ENDROOT
BRANCH   4   7
ATOM      7  C   UNL     1      -0.026   9.980  20.298  0.00  0.00    +0.000 C 
ATOM      8  N   UNL     1       0.800   9.002  21.004  0.00  0.00    +0.000 N 
ATOM      9  C   UNL     1       1.446   8.073  20.177  0.00  0.00    +0.000 A 
ATOM     10  C   UNL     1       1.782   6.806  20.666  0.00  0.00    +0.000 A 
ATOM     11  C   UNL     1       2.484   5.897  19.867  0.00  0.00    +0.000 A 
ATOM     12  C   UNL     1       2.898   6.259  18.586  0.00  0.00    +0.000 A 
ATOM     13  C   UNL     1       2.625   7.540  18.113  0.00  0.00    +0.000 A 
ATOM     14  C   UNL     1       1.914   8.436  18.918  0.00  0.00    +0.000 A 
ATOM     15  C   UNL     1       1.612   9.786  18.431  0.00  0.00    +0.000 C 
ATOM     16  O   UNL     1       2.210  10.219  17.450  0.00  0.00    +0.000 OA
ATOM     17  N   UNL     1       0.601  10.477  19.078  0.00  0.00    +0.000 N 
ATOM     18  H   UNL     1       1.503   9.485  21.562  0.00  0.00    +0.000 HD
BRANCH  17  19
ATOM     19  C   UNL     1      -0.132  11.456  18.265  0.00  0.00    +0.000 C 
BRANCH  19  20
ATOM     20  C   UNL     1      -1.585  11.077  18.010  0.00  0.00    +0.000 A 
ATOM     21  C   UNL     1      -2.625  11.832  18.569  0.00  0.00    +0.000 A 
ATOM     22  C   UNL     1      -3.962  11.502  18.316  0.00  0.00    +0.000 A 
ATOM     23  C   UNL     1      -4.271  10.414  17.498  0.00  0.00    +0.000 A 
ATOM     24  C   UNL     1      -3.249   9.666  16.924  0.00  0.00    +0.000 A 
ATOM     25  C   UNL     1      -1.916  10.002  17.170  0.00  0.00    +0.000 A 
ENDBRANCH  19  20
ENDBRANCH  17  19
ENDBRANCH   4   7
BRANCH   1  27
ATOM     26  C   UNL     1      -2.644  14.810  23.642  0.00  0.00    +0.000 C 
ATOM     27  O   UNL     1      -1.325  14.298  23.829  0.00  0.00    +0.000 OA
ENDBRANCH   1  27
BRANCH   6  28
ATOM     28  C   UNL     1       0.616  14.790  21.796  0.00  0.00    +0.000 C 
BRANCH  28  29
ATOM     29  O   UNL     1       1.941  14.768  22.327  0.00  0.00    +0.000 OA
BRANCH  29  30
ATOM     30  C   UNL     1       2.978  14.856  21.437  0.00  0.00    +0.000 A 
ATOM     31  C   UNL     1       4.252  14.868  22.021  0.00  0.00    +0.000 A 
ATOM     32  C   UNL     1       5.405  14.892  21.229  0.00  0.00    +0.000 A 
ATOM     33  C   UNL     1       5.284  14.890  19.840  0.00  0.00    +0.000 A 
ATOM     34  C   UNL     1       4.017  14.877  19.238  0.00  0.00    +0.000 A 
ATOM     35  C   UNL     1       2.867  14.861  20.043  0.00  0.00    +0.000 A 
BRANCH  33  36
ATOM     36  N   UNL     1       6.493  14.883  19.000  0.00  0.00    +0.000 N 
ATOM     37  O   UNL     1       6.378  15.254  17.824  0.00  0.00    +0.000 OA
ATOM     38  O   UNL     1       7.555  14.507  19.518  0.00  0.00    +0.000 OA
ENDBRANCH  33  36
ENDBRANCH  29  30
ENDBRANCH  28  29
ENDBRANCH   6  28
TORSDOF 8
ENDMDL
MODEL 9
REMARK VINA RESULT:      -7.9      2.622      3.179
REMARK  Name = 
REMARK  9 active torsions:
REMARK  status: ('A' for Active; 'I' for Inactive)
REMARK    1  A    between atoms: C_1  and  O_2
REMARK    2  A    between atoms: O_2  and  C_3
REMARK    3  A    between atoms: C_6  and  C_7
REMARK    4  A    between atoms: N_17  and  C_18
REMARK    5  A    between atoms: C_18  and  C_19
REMARK    6  A    between atoms: C_26  and  C_27
REMARK    7  A    between atoms: C_27  and  O_28
REMARK    8  A    between atoms: O_28  and  C_29
REMARK    9  A    between atoms: C_32  and  N_33
REMARK                            x       y       z     vdW  Elec       q    Type
REMARK                         _______ _______ _______ _____ _____    ______ ____
ROOT
ATOM      1  C   UNL     1       1.925   7.771  20.082  0.00  0.00    +0.000 A 
ATOM      2  C   UNL     1       0.985   8.449  20.873  0.00  0.00    +0.000 A 
ATOM      3  C   UNL     1       0.427   9.660  20.455  0.00  0.00    +0.000 A 
ATOM      4  C   UNL     1       0.788  10.219  19.226  0.00  0.00    +0.000 A 
ATOM      5  C   UNL     1       1.647   9.478  18.387  0.00  0.00    +0.000 A 
ATOM      6  C   UNL     1       2.246   8.274  18.810  0.00  0.00    +0.000 A 
ENDROOT
BRANCH   4   7
ATOM      7  C   UNL     1       0.231  11.580  18.806  0.00  0.00    +0.000 C 
ATOM      8  N   UNL     1       1.311  12.550  18.985  0.00  0.00    +0.000 N 
ATOM      9  C   UNL     1       0.904  13.891  18.975  0.00  0.00    +0.000 A 
ATOM     10  C   UNL     1       1.793  14.895  18.578  0.00  0.00    +0.000 A 
ATOM     11  C   UNL     1       1.414  16.242  18.627  0.00  0.00    +0.000 A 
ATOM     12  C   UNL     1       0.159  16.603  19.116  0.00  0.00    +0.000 A 
ATOM     13  C   UNL     1      -0.708  15.616  19.574  0.00  0.00    +0.000 A 
ATOM     14  C   UNL     1      -0.322  14.273  19.511  0.00  0.00    +0.000 A 
ATOM     15  C   UNL     1      -1.229  13.221  19.982  0.00  0.00    +0.000 C 
ATOM     16  O   UNL     1      -2.194  13.526  20.677  0.00  0.00    +0.000 OA
ATOM     17  N   UNL     1      -0.974  11.930  19.549  0.00  0.00    +0.000 N 
ATOM     18  H   UNL     1       1.797  12.363  19.861  0.00  0.00    +0.000 HD
BRANCH  17  19
ATOM     19  C   UNL     1      -2.142  11.046  19.443  0.00  0.00    +0.000 C 
BRANCH  19  20
ATOM     20  C   UNL     1      -2.670  10.893  18.022  0.00  0.00    +0.000 A 
ATOM     21  C   UNL     1      -2.080   9.978  17.140  0.00  0.00    +0.000 A 
ATOM     22  C   UNL     1      -2.579   9.817  15.841  0.00  0.00    +0.000 A 
ATOM     23  C   UNL     1      -3.675  10.569  15.415  0.00  0.00    +0.000 A 
ATOM     24  C   UNL     1      -4.279  11.469  16.286  0.00  0.00    +0.000 A 
ATOM     25  C   UNL     1      -3.786  11.623  17.583  0.00  0.00    +0.000 A 
ENDBRANCH  19  20
ENDBRANCH  17  19
ENDBRANCH   4   7
BRANCH   1  27
ATOM     26  C   UNL     1       1.715   5.580  20.966  0.00  0.00    +0.000 C 
ATOM     27  O   UNL     1       2.559   6.622  20.477  0.00  0.00    +0.000 OA
ENDBRANCH   1  27
BRANCH   6  28
ATOM     28  C   UNL     1       3.223   7.584  17.874  0.00  0.00    +0.000 C 
BRANCH  28  29
ATOM     29  O   UNL     1       2.578   6.467  17.261  0.00  0.00    +0.000 OA
BRANCH  29  30
ATOM     30  C   UNL     1       2.936   5.218  17.694  0.00  0.00    +0.000 A 
ATOM     31  C   UNL     1       4.237   5.126  18.207  0.00  0.00    +0.000 A 
ATOM     32  C   UNL     1       4.715   3.926  18.742  0.00  0.00    +0.000 A 
ATOM     33  C   UNL     1       3.881   2.809  18.778  0.00  0.00    +0.000 A 
ATOM     34  C   UNL     1       2.575   2.883  18.270  0.00  0.00    +0.000 A 
ATOM     35  C   UNL     1       2.109   4.091  17.728  0.00  0.00    +0.000 A 
BRANCH  33  36
ATOM     36  N   UNL     1       4.365   1.551  19.370  0.00  0.00    +0.000 N 
ATOM     37  O   UNL     1       5.025   1.624  20.415  0.00  0.00    +0.000 OA
ATOM     38  O   UNL     1       4.083   0.493  18.789  0.00  0.00    +0.000 OA
ENDBRANCH  33  36
ENDBRANCH  29  30
ENDBRANCH  28  29
ENDBRANCH   6  28
TORSDOF 8
ENDMDL
