MODEL 1
REMARK VINA RESULT:      -7.4      0.000      0.000
REMARK  Name = 
REMARK  5 active torsions:
REMARK  status: ('A' for Active; 'I' for Inactive)
REMARK    1  A    between atoms: C_1  and  C_2
REMARK    2  A    between atoms: C_2  and  C_3
REMARK    3  A    between atoms: N_8  and  S_9
REMARK    4  A    between atoms: S_9  and  C_12
REMARK    5  A    between atoms: C_17  and  N_18
REMARK                            x       y       z     vdW  Elec       q    Type
REMARK                         _______ _______ _______ _____ _____    ______ ____
ROOT
ATOM      1  S   UNL     1       4.342   3.624  18.555  0.00  0.00    +0.000 S 
ATOM      2  O   UNL     1       3.497   2.650  17.894  0.00  0.00    +0.000 OA
ATOM      3  O   UNL     1       5.320   3.191  19.529  0.00  0.00    +0.000 OA
ENDROOT
BRANCH   1   9
ATOM      4  C   UNL     1       6.629   4.659  17.537  0.00  0.00    +0.000 C 
ATOM      5  C   UNL     1       7.366   5.308  16.348  0.00  0.00    +0.000 C 
ATOM      6  C   UNL     1       7.059   4.634  15.024  0.00  0.00    +0.000 C 
ATOM      7  C   UNL     1       5.559   4.646  14.811  0.00  0.00    +0.000 C 
ATOM      8  C   UNL     1       4.866   3.886  15.932  0.00  0.00    +0.000 C 
ATOM      9  N   UNL     1       5.114   4.514  17.279  0.00  0.00    +0.000 NA
BRANCH   4  11
ATOM     10  C   UNL     1       7.883   6.653  18.610  0.00  0.00    +0.000 C 
ATOM     11  C   UNL     1       6.968   5.451  18.818  0.00  0.00    +0.000 C 
ENDBRANCH   4  11
ENDBRANCH   1   9
BRANCH   1  12
ATOM     12  C   UNL     1       3.252   4.738  19.401  0.00  0.00    +0.000 A 
ATOM     13  C   UNL     1       3.292   6.095  19.040  0.00  0.00    +0.000 A 
ATOM     14  C   UNL     1       2.427   7.018  19.631  0.00  0.00    +0.000 A 
ATOM     15  C   UNL     1       1.502   6.598  20.585  0.00  0.00    +0.000 A 
ATOM     16  C   UNL     1       1.449   5.253  20.958  0.00  0.00    +0.000 A 
ATOM     17  C   UNL     1       2.327   4.329  20.359  0.00  0.00    +0.000 A 
BRANCH  17  18
ATOM     18  N   UNL     1       2.263   2.966  20.842  0.00  0.00    +0.000 N 
ATOM     19  O   UNL     1       1.522   2.180  20.247  0.00  0.00    +0.000 OA
ATOM     20  O   UNL     1       2.890   2.726  21.883  0.00  0.00    +0.000 OA
ENDBRANCH  17  18
ENDBRANCH   1  12
TORSDOF 4
ENDMDL
MODEL 2
REMARK VINA RESULT:      -7.2      1.637      3.006
REMARK  Name = 
REMARK  5 active torsions:
REMARK  status: ('A' for Active; 'I' for Inactive)
REMARK    1  A    between atoms: C_1  and  C_2
REMARK    2  A    between atoms: C_2  and  C_3
REMARK    3  A    between atoms: N_8  and  S_9
REMARK    4  A    between atoms: S_9  and  C_12
REMARK    5  A    between atoms: C_17  and  N_18
REMARK                            x       y       z     vdW  Elec       q    Type
REMARK                         _______ _______ _______ _____ _____    ______ ____
ROOT
ATOM      1  S   UNL     1       3.556   4.676  17.676  0.00  0.00    +0.000 S 
ATOM      2  O   UNL     1       3.048   6.010  17.428  0.00  0.00    +0.000 OA
ATOM      3  O   UNL     1       3.247   3.602  16.759  0.00  0.00    +0.000 OA
ENDROOT
BRANCH   1   9
ATOM      4  C   UNL     1       5.844   5.795  16.753  0.00  0.00    +0.000 C 
ATOM      5  C   UNL     1       7.341   6.097  16.966  0.00  0.00    +0.000 C 
ATOM      6  C   UNL     1       7.655   6.569  18.372  0.00  0.00    +0.000 C 
ATOM      7  C   UNL     1       7.162   5.525  19.355  0.00  0.00    +0.000 C 
ATOM      8  C   UNL     1       5.659   5.342  19.211  0.00  0.00    +0.000 C 
ATOM      9  N   UNL     1       5.276   4.855  17.838  0.00  0.00    +0.000 NA
BRANCH   4  11
ATOM     10  C   UNL     1       6.369   3.971  14.994  0.00  0.00    +0.000 C 
ATOM     11  C   UNL     1       5.646   5.274  15.314  0.00  0.00    +0.000 C 
ENDBRANCH   4  11
ENDBRANCH   1   9
BRANCH   1  12
ATOM     12  C   UNL     1       2.918   4.184  19.256  0.00  0.00    +0.000 A 
ATOM     13  C   UNL     1       2.056   5.073  19.921  0.00  0.00    +0.000 A 
ATOM     14  C   UNL     1       1.479   4.729  21.146  0.00  0.00    +0.000 A 
ATOM     15  C   UNL     1       1.747   3.488  21.720  0.00  0.00    +0.000 A 
ATOM     16  C   UNL     1       2.602   2.592  21.074  0.00  0.00    +0.000 A 
ATOM     17  C   UNL     1       3.182   2.948  19.840  0.00  0.00    +0.000 A 
BRANCH  17  18
ATOM     18  N   UNL     1       4.110   2.000  19.262  0.00  0.00    +0.000 N 
ATOM     19  O   UNL     1       3.675   1.211  18.421  0.00  0.00    +0.000 OA
ATOM     20  O   UNL     1       5.253   1.996  19.740  0.00  0.00    +0.000 OA
ENDBRANCH  17  18
ENDBRANCH   1  12
TORSDOF 4
ENDMDL
MODEL 3
REMARK VINA RESULT:      -7.1      2.108      5.737
REMARK  Name = 
REMARK  5 active torsions:
REMARK  status: ('A' for Active; 'I' for Inactive)
REMARK    1  A    between atoms: C_1  and  C_2
REMARK    2  A    between atoms: C_2  and  C_3
REMARK    3  A    between atoms: N_8  and  S_9
REMARK    4  A    between atoms: S_9  and  C_12
REMARK    5  A    between atoms: C_17  and  N_18
REMARK                            x       y       z     vdW  Elec       q    Type
REMARK                         _______ _______ _______ _____ _____    ______ ____
ROOT
ATOM      1  S   UNL     1       4.912   4.100  18.234  0.00  0.00    +0.000 S 
ATOM      2  O   UNL     1       5.301   3.206  19.305  0.00  0.00    +0.000 OA
ATOM      3  O   UNL     1       4.830   3.611  16.876  0.00  0.00    +0.000 OA
ENDROOT
BRANCH   1   9
ATOM      4  C   UNL     1       2.544   3.748  19.503  0.00  0.00    +0.000 C 
ATOM      5  C   UNL     1       1.258   4.367  20.085  0.00  0.00    +0.000 C 
ATOM      6  C   UNL     1       1.517   5.633  20.879  0.00  0.00    +0.000 C 
ATOM      7  C   UNL     1       2.247   6.621  19.991  0.00  0.00    +0.000 C 
ATOM      8  C   UNL     1       3.574   6.033  19.537  0.00  0.00    +0.000 C 
ATOM      9  N   UNL     1       3.389   4.779  18.724  0.00  0.00    +0.000 NA
BRANCH   4  11
ATOM     10  C   UNL     1       0.680   2.146  18.695  0.00  0.00    +0.000 C 
ATOM     11  C   UNL     1       2.162   2.504  18.675  0.00  0.00    +0.000 C 
ENDBRANCH   4  11
ENDBRANCH   1   9
BRANCH   1  12
ATOM     12  C   UNL     1       6.103   5.413  18.222  0.00  0.00    +0.000 A 
ATOM     13  C   UNL     1       7.096   5.407  19.215  0.00  0.00    +0.000 A 
ATOM     14  C   UNL     1       8.095   6.383  19.236  0.00  0.00    +0.000 A 
ATOM     15  C   UNL     1       8.122   7.375  18.258  0.00  0.00    +0.000 A 
ATOM     16  C   UNL     1       7.142   7.398  17.263  0.00  0.00    +0.000 A 
ATOM     17  C   UNL     1       6.137   6.411  17.251  0.00  0.00    +0.000 A 
BRANCH  17  18
ATOM     18  N   UNL     1       5.116   6.537  16.233  0.00  0.00    +0.000 N 
ATOM     19  O   UNL     1       5.377   6.115  15.104  0.00  0.00    +0.000 OA
ATOM     20  O   UNL     1       4.093   7.153  16.560  0.00  0.00    +0.000 OA
ENDBRANCH  17  18
ENDBRANCH   1  12
TORSDOF 4
ENDMDL
MODEL 4
REMARK VINA RESULT:      -6.9      2.074      5.723
REMARK  Name = 
REMARK  5 active torsions:
REMARK  status: ('A' for Active; 'I' for Inactive)
REMARK    1  A    between atoms: C_1  and  C_2
REMARK    2  A    between atoms: C_2  and  C_3
REMARK    3  A    between atoms: N_8  and  S_9
REMARK    4  A    between atoms: S_9  and  C_12
REMARK    5  A    between atoms: C_17  and  N_18
REMARK                            x       y       z     vdW  Elec       q    Type
REMARK                         _______ _______ _______ _____ _____    ______ ____
ROOT
ATOM      1  S   UNL     1       4.099   4.232  17.885  0.00  0.00    +0.000 S 
ATOM      2  O   UNL     1       4.496   2.920  17.418  0.00  0.00    +0.000 OA
ATOM      3  O   UNL     1       3.172   5.026  17.111  0.00  0.00    +0.000 OA
ENDROOT
BRANCH   1   9
ATOM      4  C   UNL     1       2.232   4.849  19.749  0.00  0.00    +0.000 C 
ATOM      5  C   UNL     1       1.577   4.538  21.110  0.00  0.00    +0.000 C 
ATOM      6  C   UNL     1       1.327   3.057  21.322  0.00  0.00    +0.000 C 
ATOM      7  C   UNL     1       2.640   2.317  21.164  0.00  0.00    +0.000 C 
ATOM      8  C   UNL     1       3.198   2.536  19.766  0.00  0.00    +0.000 C 
ATOM      9  N   UNL     1       3.488   3.989  19.494  0.00  0.00    +0.000 NA
BRANCH   4  11
ATOM     10  C   UNL     1       1.682   7.216  20.637  0.00  0.00    +0.000 C 
ATOM     11  C   UNL     1       2.489   6.368  19.661  0.00  0.00    +0.000 C 
ENDBRANCH   4  11
ENDBRANCH   1   9
BRANCH   1  12
ATOM     12  C   UNL     1       5.588   5.187  18.017  0.00  0.00    +0.000 A 
ATOM     13  C   UNL     1       6.212   5.258  19.273  0.00  0.00    +0.000 A 
ATOM     14  C   UNL     1       7.413   5.952  19.438  0.00  0.00    +0.000 A 
ATOM     15  C   UNL     1       8.013   6.577  18.347  0.00  0.00    +0.000 A 
ATOM     16  C   UNL     1       7.406   6.518  17.090  0.00  0.00    +0.000 A 
ATOM     17  C   UNL     1       6.194   5.818  16.934  0.00  0.00    +0.000 A 
BRANCH  17  18
ATOM     18  N   UNL     1       5.587   5.856  15.620  0.00  0.00    +0.000 N 
ATOM     19  O   UNL     1       5.715   4.863  14.900  0.00  0.00    +0.000 OA
ATOM     20  O   UNL     1       5.070   6.932  15.289  0.00  0.00    +0.000 OA
ENDBRANCH  17  18
ENDBRANCH   1  12
TORSDOF 4
ENDMDL
MODEL 5
REMARK VINA RESULT:      -6.9      0.688      2.186
REMARK  Name = 
REMARK  5 active torsions:
REMARK  status: ('A' for Active; 'I' for Inactive)
REMARK    1  A    between atoms: C_1  and  C_2
REMARK    2  A    between atoms: C_2  and  C_3
REMARK    3  A    between atoms: N_8  and  S_9
REMARK    4  A    between atoms: S_9  and  C_12
REMARK    5  A    between atoms: C_17  and  N_18
REMARK                            x       y       z     vdW  Elec       q    Type
REMARK                         _______ _______ _______ _____ _____    ______ ____
ROOT
ATOM      1  S   UNL     1       4.657   3.455  18.921  0.00  0.00    +0.000 S 
ATOM      2  O   UNL     1       4.044   2.833  17.766  0.00  0.00    +0.000 OA
ATOM      3  O   UNL     1       5.058   2.648  20.051  0.00  0.00    +0.000 OA
ENDROOT
BRANCH   1   9
ATOM      4  C   UNL     1       5.630   5.146  17.041  0.00  0.00    +0.000 C 
ATOM      5  C   UNL     1       6.769   6.067  16.562  0.00  0.00    +0.000 C 
ATOM      6  C   UNL     1       7.322   6.947  17.666  0.00  0.00    +0.000 C 
ATOM      7  C   UNL     1       7.777   6.062  18.809  0.00  0.00    +0.000 C 
ATOM      8  C   UNL     1       6.603   5.260  19.348  0.00  0.00    +0.000 C 
ATOM      9  N   UNL     1       6.015   4.347  18.304  0.00  0.00    +0.000 NA
BRANCH   4  11
ATOM     10  C   UNL     1       6.248   4.010  14.800  0.00  0.00    +0.000 C 
ATOM     11  C   UNL     1       5.181   4.262  15.859  0.00  0.00    +0.000 C 
ENDBRANCH   4  11
ENDBRANCH   1   9
BRANCH   1  12
ATOM     12  C   UNL     1       3.481   4.631  19.538  0.00  0.00    +0.000 A 
ATOM     13  C   UNL     1       3.605   5.965  19.116  0.00  0.00    +0.000 A 
ATOM     14  C   UNL     1       2.685   6.934  19.524  0.00  0.00    +0.000 A 
ATOM     15  C   UNL     1       1.621   6.581  20.352  0.00  0.00    +0.000 A 
ATOM     16  C   UNL     1       1.482   5.259  20.782  0.00  0.00    +0.000 A 
ATOM     17  C   UNL     1       2.417   4.290  20.368  0.00  0.00    +0.000 A 
BRANCH  17  18
ATOM     18  N   UNL     1       2.251   2.957  20.907  0.00  0.00    +0.000 N 
ATOM     19  O   UNL     1       1.715   2.110  20.189  0.00  0.00    +0.000 OA
ATOM     20  O   UNL     1       2.575   2.804  22.093  0.00  0.00    +0.000 OA
ENDBRANCH  17  18
ENDBRANCH   1  12
TORSDOF 4
ENDMDL
MODEL 6
REMARK VINA RESULT:      -6.8      1.707      5.595
REMARK  Name = 
REMARK  5 active torsions:
REMARK  status: ('A' for Active; 'I' for Inactive)
REMARK    1  A    between atoms: C_1  and  C_2
REMARK    2  A    between atoms: C_2  and  C_3
REMARK    3  A    between atoms: N_8  and  S_9
REMARK    4  A    between atoms: S_9  and  C_12
REMARK    5  A    between atoms: C_17  and  N_18
REMARK                            x       y       z     vdW  Elec       q    Type
REMARK                         _______ _______ _______ _____ _____    ______ ____
ROOT
ATOM      1  S   UNL     1       4.480   3.673  18.304  0.00  0.00    +0.000 S 
ATOM      2  O   UNL     1       5.386   3.832  19.423  0.00  0.00    +0.000 OA
ATOM      3  O   UNL     1       3.901   2.379  18.019  0.00  0.00    +0.000 OA
ENDROOT
BRANCH   1   9
ATOM      4  C   UNL     1       2.871   4.989  20.042  0.00  0.00    +0.000 C 
ATOM      5  C   UNL     1       1.877   6.139  20.304  0.00  0.00    +0.000 C 
ATOM      6  C   UNL     1       2.316   7.452  19.685  0.00  0.00    +0.000 C 
ATOM      7  C   UNL     1       2.528   7.240  18.199  0.00  0.00    +0.000 C 
ATOM      8  C   UNL     1       3.608   6.194  17.971  0.00  0.00    +0.000 C 
ATOM      9  N   UNL     1       3.229   4.854  18.546  0.00  0.00    +0.000 NA
BRANCH   4  11
ATOM     10  C   UNL     1       0.956   3.250  20.112  0.00  0.00    +0.000 C 
ATOM     11  C   UNL     1       2.305   3.696  20.665  0.00  0.00    +0.000 C 
ENDBRANCH   4  11
ENDBRANCH   1   9
BRANCH   1  12
ATOM     12  C   UNL     1       5.388   4.145  16.856  0.00  0.00    +0.000 A 
ATOM     13  C   UNL     1       4.838   3.825  15.603  0.00  0.00    +0.000 A 
ATOM     14  C   UNL     1       5.475   4.210  14.422  0.00  0.00    +0.000 A 
ATOM     15  C   UNL     1       6.668   4.929  14.474  0.00  0.00    +0.000 A 
ATOM     16  C   UNL     1       7.230   5.255  15.710  0.00  0.00    +0.000 A 
ATOM     17  C   UNL     1       6.582   4.861  16.897  0.00  0.00    +0.000 A 
BRANCH  17  18
ATOM     18  N   UNL     1       7.256   5.173  18.139  0.00  0.00    +0.000 N 
ATOM     19  O   UNL     1       6.992   6.248  18.681  0.00  0.00    +0.000 OA
ATOM     20  O   UNL     1       8.124   4.368  18.505  0.00  0.00    +0.000 OA
ENDBRANCH  17  18
ENDBRANCH   1  12
TORSDOF 4
ENDMDL
MODEL 7
REMARK VINA RESULT:      -6.7      2.303      3.217
REMARK  Name = 
REMARK  5 active torsions:
REMARK  status: ('A' for Active; 'I' for Inactive)
REMARK    1  A    between atoms: C_1  and  C_2
REMARK    2  A    between atoms: C_2  and  C_3
REMARK    3  A    between atoms: N_8  and  S_9
REMARK    4  A    between atoms: S_9  and  C_12
REMARK    5  A    between atoms: C_17  and  N_18
REMARK                            x       y       z     vdW  Elec       q    Type
REMARK                         _______ _______ _______ _____ _____    ______ ____
ROOT
ATOM      1  S   UNL     1       3.281   3.049  17.465  0.00  0.00    +0.000 S 
ATOM      2  O   UNL     1       2.173   3.263  16.556  0.00  0.00    +0.000 OA
ATOM      3  O   UNL     1       4.103   1.866  17.339  0.00  0.00    +0.000 OA
ENDROOT
BRANCH   1   9
ATOM      4  C   UNL     1       4.774   4.690  15.910  0.00  0.00    +0.000 C 
ATOM      5  C   UNL     1       5.515   6.032  15.744  0.00  0.00    +0.000 C 
ATOM      6  C   UNL     1       4.719   7.215  16.261  0.00  0.00    +0.000 C 
ATOM      7  C   UNL     1       4.363   6.962  17.712  0.00  0.00    +0.000 C 
ATOM      8  C   UNL     1       3.521   5.701  17.831  0.00  0.00    +0.000 C 
ATOM      9  N   UNL     1       4.261   4.479  17.351  0.00  0.00    +0.000 NA
BRANCH   4  11
ATOM     10  C   UNL     1       6.255   3.758  14.004  0.00  0.00    +0.000 C 
ATOM     11  C   UNL     1       5.691   3.556  15.405  0.00  0.00    +0.000 C 
ENDBRANCH   4  11
ENDBRANCH   1   9
BRANCH   1  12
ATOM     12  C   UNL     1       2.588   3.004  19.097  0.00  0.00    +0.000 A 
ATOM     13  C   UNL     1       1.208   3.233  19.229  0.00  0.00    +0.000 A 
ATOM     14  C   UNL     1       0.588   3.164  20.479  0.00  0.00    +0.000 A 
ATOM     15  C   UNL     1       1.335   2.857  21.613  0.00  0.00    +0.000 A 
ATOM     16  C   UNL     1       2.709   2.627  21.501  0.00  0.00    +0.000 A 
ATOM     17  C   UNL     1       3.326   2.701  20.237  0.00  0.00    +0.000 A 
BRANCH  17  18
ATOM     18  N   UNL     1       4.762   2.520  20.206  0.00  0.00    +0.000 N 
ATOM     19  O   UNL     1       5.210   1.423  20.545  0.00  0.00    +0.000 OA
ATOM     20  O   UNL     1       5.433   3.525  19.932  0.00  0.00    +0.000 OA
ENDBRANCH  17  18
ENDBRANCH   1  12
TORSDOF 4
ENDMDL
MODEL 8
REMARK VINA RESULT:      -6.7      2.096      2.769
REMARK  Name = 
REMARK  5 active torsions:
REMARK  status: ('A' for Active; 'I' for Inactive)
REMARK    1  A    between atoms: C_1  and  C_2
REMARK    2  A    between atoms: C_2  and  C_3
REMARK    3  A    between atoms: N_8  and  S_9
REMARK    4  A    between atoms: S_9  and  C_12
REMARK    5  A    between atoms: C_17  and  N_18
REMARK                            x       y       z     vdW  Elec       q    Type
REMARK                         _______ _______ _______ _____ _____    ______ ____
ROOT
ATOM      1  S   UNL     1       5.021   4.501  19.001  0.00  0.00    +0.000 S 
ATOM      2  O   UNL     1       5.921   3.411  19.318  0.00  0.00    +0.000 OA
ATOM      3  O   UNL     1       4.959   5.662  19.860  0.00  0.00    +0.000 OA
ENDROOT
BRANCH   1   9
ATOM      4  C   UNL     1       6.944   5.050  17.173  0.00  0.00    +0.000 C 
ATOM      5  C   UNL     1       7.326   5.313  15.703  0.00  0.00    +0.000 C 
ATOM      6  C   UNL     1       6.655   4.356  14.737  0.00  0.00    +0.000 C 
ATOM      7  C   UNL     1       5.155   4.440  14.936  0.00  0.00    +0.000 C 
ATOM      8  C   UNL     1       4.795   4.048  16.361  0.00  0.00    +0.000 C 
ATOM      9  N   UNL     1       5.416   4.972  17.376  0.00  0.00    +0.000 NA
BRANCH   4  11
ATOM     10  C   UNL     1       7.565   7.536  17.532  0.00  0.00    +0.000 C 
ATOM     11  C   UNL     1       7.636   6.107  18.059  0.00  0.00    +0.000 C 
ENDBRANCH   4  11
ENDBRANCH   1   9
BRANCH   1  12
ATOM     12  C   UNL     1       3.388   3.809  18.976  0.00  0.00    +0.000 A 
ATOM     13  C   UNL     1       3.269   2.411  18.928  0.00  0.00    +0.000 A 
ATOM     14  C   UNL     1       2.014   1.797  18.955  0.00  0.00    +0.000 A 
ATOM     15  C   UNL     1       0.860   2.573  19.040  0.00  0.00    +0.000 A 
ATOM     16  C   UNL     1       0.959   3.966  19.087  0.00  0.00    +0.000 A 
ATOM     17  C   UNL     1       2.228   4.575  19.056  0.00  0.00    +0.000 A 
BRANCH  17  18
ATOM     18  N   UNL     1       2.252   6.023  19.039  0.00  0.00    +0.000 N 
ATOM     19  O   UNL     1       2.037   6.613  20.099  0.00  0.00    +0.000 OA
ATOM     20  O   UNL     1       2.391   6.552  17.928  0.00  0.00    +0.000 OA
ENDBRANCH  17  18
ENDBRANCH   1  12
TORSDOF 4
ENDMDL
MODEL 9
REMARK VINA RESULT:      -6.6      2.314      5.790
REMARK  Name = 
REMARK  5 active torsions:
REMARK  status: ('A' for Active; 'I' for Inactive)
REMARK    1  A    between atoms: C_1  and  C_2
REMARK    2  A    between atoms: C_2  and  C_3
REMARK    3  A    between atoms: N_8  and  S_9
REMARK    4  A    between atoms: S_9  and  C_12
REMARK    5  A    between atoms: C_17  and  N_18
REMARK                            x       y       z     vdW  Elec       q    Type
REMARK                         _______ _______ _______ _____ _____    ______ ____
ROOT
ATOM      1  S   UNL     1       4.535   5.407  18.886  0.00  0.00    +0.000 S 
ATOM      2  O   UNL     1       4.021   6.738  18.633  0.00  0.00    +0.000 OA
ATOM      3  O   UNL     1       5.534   5.200  19.911  0.00  0.00    +0.000 OA
ENDROOT
BRANCH   1   9
ATOM      4  C   UNL     1       3.510   3.177  20.033  0.00  0.00    +0.000 C 
ATOM      5  C   UNL     1       2.268   2.366  20.455  0.00  0.00    +0.000 C 
ATOM      6  C   UNL     1       1.200   3.218  21.112  0.00  0.00    +0.000 C 
ATOM      7  C   UNL     1       0.824   4.339  20.164  0.00  0.00    +0.000 C 
ATOM      8  C   UNL     1       2.041   5.202  19.868  0.00  0.00    +0.000 C 
ATOM      9  N   UNL     1       3.139   4.420  19.195  0.00  0.00    +0.000 NA
BRANCH   4  11
ATOM     10  C   UNL     1       3.872   1.226  18.373  0.00  0.00    +0.000 C 
ATOM     11  C   UNL     1       4.504   2.228  19.331  0.00  0.00    +0.000 C 
ENDBRANCH   4  11
ENDBRANCH   1   9
BRANCH   1  12
ATOM     12  C   UNL     1       5.257   4.853  17.364  0.00  0.00    +0.000 A 
ATOM     13  C   UNL     1       4.405   4.279  16.406  0.00  0.00    +0.000 A 
ATOM     14  C   UNL     1       4.899   3.866  15.166  0.00  0.00    +0.000 A 
ATOM     15  C   UNL     1       6.249   4.028  14.862  0.00  0.00    +0.000 A 
ATOM     16  C   UNL     1       7.111   4.595  15.804  0.00  0.00    +0.000 A 
ATOM     17  C   UNL     1       6.605   5.007  17.053  0.00  0.00    +0.000 A 
BRANCH  17  18
ATOM     18  N   UNL     1       7.567   5.522  18.004  0.00  0.00    +0.000 N 
ATOM     19  O   UNL     1       7.733   6.743  18.048  0.00  0.00    +0.000 OA
ATOM     20  O   UNL     1       8.221   4.677  18.631  0.00  0.00    +0.000 OA
ENDBRANCH  17  18
ENDBRANCH   1  12
TORSDOF 4
ENDMDL
