MODEL 1
REMARK VINA RESULT:      -6.6      0.000      0.000
REMARK  Name = 
REMARK  11 active torsions:
REMARK  status: ('A' for Active; 'I' for Inactive)
REMARK    1  A    between atoms: C_1  and  C_2
REMARK    2  A    between atoms: C_2  and  C_3
REMARK    3  A    between atoms: C_2  and  N_14
REMARK    4  A    between atoms: C_3  and  C_4
REMARK    5  A    between atoms: C_4  and  N_5
REMARK    6  A    between atoms: C_9  and  C_10
REMARK    7  A    between atoms: C_15  and  O_17
REMARK    8  A    between atoms: O_17  and  C_18
REMARK    9  A    between atoms: C_18  and  C_19
REMARK   10  A    between atoms: C_18  and  C_20
REMARK   11  A    between atoms: C_18  and  C_21
REMARK                            x       y       z     vdW  Elec       q    Type
REMARK                         _______ _______ _______ _____ _____    ______ ____
ROOT
ATOM      1  C   UNL     1       4.308   6.329  17.376  0.00  0.00    +0.000 C 
ENDROOT
BRANCH   1   3
ATOM      2  C   UNL     1       5.100   4.295  16.033  0.00  0.00    +0.000 C 
ATOM      3  C   UNL     1       4.728   4.844  17.407  0.00  0.00    +0.000 C 
BRANCH   3   4
ATOM      4  N   UNL     1       3.734   3.998  18.058  0.00  0.00    +0.000 N 
ATOM      5  C   UNL     1       4.053   3.292  19.185  0.00  0.00    +0.000 C 
ATOM      6  O   UNL     1       5.170   3.298  19.680  0.00  0.00    +0.000 OA
ATOM      7  H   UNL     1       2.768   3.978  17.760  0.00  0.00    +0.000 HD
BRANCH   5   8
ATOM      8  O   UNL     1       2.988   2.583  19.638  0.00  0.00    +0.000 OA
BRANCH   8   9
ATOM      9  C   UNL     1       2.028   3.259  20.499  0.00  0.00    +0.000 C 
ATOM     10  C   UNL     1       2.539   4.642  20.928  0.00  0.00    +0.000 C 
ATOM     11  C   UNL     1       0.748   3.456  19.668  0.00  0.00    +0.000 C 
ATOM     12  C   UNL     1       1.662   2.385  21.709  0.00  0.00    +0.000 C 
ENDBRANCH   8   9
ENDBRANCH   5   8
ENDBRANCH   3   4
ENDBRANCH   1   3
BRANCH   1  13
ATOM     13  C   UNL     1       3.006   6.608  18.125  0.00  0.00    +0.000 C 
BRANCH  13  14
ATOM     14  N   UNL     1       2.518   7.960  17.832  0.00  0.00    +0.000 N 
ATOM     15  C   UNL     1       1.850   8.547  18.926  0.00  0.00    +0.000 A 
ATOM     16  C   UNL     1       1.303   9.816  18.773  0.00  0.00    +0.000 A 
ATOM     17  C   UNL     1       0.666  10.429  19.853  0.00  0.00    +0.000 A 
ATOM     18  C   UNL     1       0.605   9.745  21.054  0.00  0.00    +0.000 A 
ATOM     19  N   UNL     1       1.144   8.520  21.198  0.00  0.00    +0.000 NA
ATOM     20  N   UNL     1       1.776   7.932  20.128  0.00  0.00    +0.000 NA
ATOM     21  H   UNL     1       1.919   7.991  17.011  0.00  0.00    +0.000 HD
BRANCH  18  22
ATOM     22  C   UNL     1      -0.026  10.296  22.214  0.00  0.00    +0.000 C 
ATOM     23  N   UNL     1      -0.501  10.764  23.166  0.00  0.00    +0.000 NA
ENDBRANCH  18  22
ENDBRANCH  13  14
ENDBRANCH   1  13
TORSDOF 7
ENDMDL
MODEL 2
REMARK VINA RESULT:      -6.5      0.548      1.131
REMARK  Name = 
REMARK  11 active torsions:
REMARK  status: ('A' for Active; 'I' for Inactive)
REMARK    1  A    between atoms: C_1  and  C_2
REMARK    2  A    between atoms: C_2  and  C_3
REMARK    3  A    between atoms: C_2  and  N_14
REMARK    4  A    between atoms: C_3  and  C_4
REMARK    5  A    between atoms: C_4  and  N_5
REMARK    6  A    between atoms: C_9  and  C_10
REMARK    7  A    between atoms: C_15  and  O_17
REMARK    8  A    between atoms: O_17  and  C_18
REMARK    9  A    between atoms: C_18  and  C_19
REMARK   10  A    between atoms: C_18  and  C_20
REMARK   11  A    between atoms: C_18  and  C_21
REMARK                            x       y       z     vdW  Elec       q    Type
REMARK                         _______ _______ _______ _____ _____    ______ ____
ROOT
ATOM      1  C   UNL     1       4.162   7.008  17.374  0.00  0.00    +0.000 C 
ENDROOT
BRANCH   1   3
ATOM      2  C   UNL     1       5.311   5.137  16.054  0.00  0.00    +0.000 C 
ATOM      3  C   UNL     1       4.759   5.585  17.404  0.00  0.00    +0.000 C 
BRANCH   3   4
ATOM      4  N   UNL     1       3.828   4.600  17.942  0.00  0.00    +0.000 N 
ATOM      5  C   UNL     1       4.215   3.752  18.942  0.00  0.00    +0.000 C 
ATOM      6  O   UNL     1       5.345   3.742  19.406  0.00  0.00    +0.000 OA
ATOM      7  H   UNL     1       2.855   4.575  17.667  0.00  0.00    +0.000 HD
BRANCH   5   8
ATOM      8  O   UNL     1       3.199   2.929  19.308  0.00  0.00    +0.000 OA
BRANCH   8   9
ATOM      9  C   UNL     1       2.241   3.414  20.292  0.00  0.00    +0.000 C 
ATOM     10  C   UNL     1       0.799   3.260  19.790  0.00  0.00    +0.000 C 
ATOM     11  C   UNL     1       2.411   2.537  21.545  0.00  0.00    +0.000 C 
ATOM     12  C   UNL     1       2.554   4.863  20.697  0.00  0.00    +0.000 C 
ENDBRANCH   8   9
ENDBRANCH   5   8
ENDBRANCH   3   4
ENDBRANCH   1   3
BRANCH   1  13
ATOM     13  C   UNL     1       2.790   7.105  18.041  0.00  0.00    +0.000 C 
BRANCH  13  14
ATOM     14  N   UNL     1       2.174   8.407  17.772  0.00  0.00    +0.000 N 
ATOM     15  C   UNL     1       1.511   8.939  18.898  0.00  0.00    +0.000 A 
ATOM     16  C   UNL     1       0.849  10.155  18.771  0.00  0.00    +0.000 A 
ATOM     17  C   UNL     1       0.213  10.714  19.881  0.00  0.00    +0.000 A 
ATOM     18  C   UNL     1       0.269  10.032  21.083  0.00  0.00    +0.000 A 
ATOM     19  N   UNL     1       0.919   8.859  21.200  0.00  0.00    +0.000 NA
ATOM     20  N   UNL     1       1.548   8.324  20.101  0.00  0.00    +0.000 NA
ATOM     21  H   UNL     1       1.536   8.383  16.981  0.00  0.00    +0.000 HD
BRANCH  18  22
ATOM     22  C   UNL     1      -0.351  10.531  22.273  0.00  0.00    +0.000 C 
ATOM     23  N   UNL     1      -0.839  10.902  23.260  0.00  0.00    +0.000 NA
ENDBRANCH  18  22
ENDBRANCH  13  14
ENDBRANCH   1  13
TORSDOF 7
ENDMDL
MODEL 3
REMARK VINA RESULT:      -6.3      2.084      3.983
REMARK  Name = 
REMARK  11 active torsions:
REMARK  status: ('A' for Active; 'I' for Inactive)
REMARK    1  A    between atoms: C_1  and  C_2
REMARK    2  A    between atoms: C_2  and  C_3
REMARK    3  A    between atoms: C_2  and  N_14
REMARK    4  A    between atoms: C_3  and  C_4
REMARK    5  A    between atoms: C_4  and  N_5
REMARK    6  A    between atoms: C_9  and  C_10
REMARK    7  A    between atoms: C_15  and  O_17
REMARK    8  A    between atoms: O_17  and  C_18
REMARK    9  A    between atoms: C_18  and  C_19
REMARK   10  A    between atoms: C_18  and  C_20
REMARK   11  A    between atoms: C_18  and  C_21
REMARK                            x       y       z     vdW  Elec       q    Type
REMARK                         _______ _______ _______ _____ _____    ______ ____
ROOT
ATOM      1  C   UNL     1       1.621   5.043  20.380  0.00  0.00    +0.000 C 
ENDROOT
BRANCH   1   3
ATOM      2  C   UNL     1       2.085   2.527  20.230  0.00  0.00    +0.000 C 
ATOM      3  C   UNL     1       2.439   3.918  19.711  0.00  0.00    +0.000 C 
BRANCH   3   4
ATOM      4  N   UNL     1       3.876   4.155  19.785  0.00  0.00    +0.000 N 
ATOM      5  C   UNL     1       4.688   3.838  18.731  0.00  0.00    +0.000 C 
ATOM      6  O   UNL     1       4.274   3.316  17.707  0.00  0.00    +0.000 OA
ATOM      7  H   UNL     1       4.301   4.639  20.564  0.00  0.00    +0.000 HD
BRANCH   5   8
ATOM      8  O   UNL     1       5.982   4.150  18.997  0.00  0.00    +0.000 OA
BRANCH   8   9
ATOM      9  C   UNL     1       6.625   5.168  18.179  0.00  0.00    +0.000 C 
ATOM     10  C   UNL     1       5.623   6.242  17.733  0.00  0.00    +0.000 C 
ATOM     11  C   UNL     1       7.689   5.841  19.065  0.00  0.00    +0.000 C 
ATOM     12  C   UNL     1       7.354   4.535  16.984  0.00  0.00    +0.000 C 
ENDBRANCH   8   9
ENDBRANCH   5   8
ENDBRANCH   3   4
ENDBRANCH   1   3
BRANCH   1  13
ATOM     13  C   UNL     1       2.173   6.441  20.106  0.00  0.00    +0.000 C 
BRANCH  13  14
ATOM     14  N   UNL     1       1.689   7.395  21.109  0.00  0.00    +0.000 N 
ATOM     15  C   UNL     1       1.341   8.642  20.550  0.00  0.00    +0.000 A 
ATOM     16  C   UNL     1       0.902   9.654  21.395  0.00  0.00    +0.000 A 
ATOM     17  C   UNL     1       0.522  10.886  20.860  0.00  0.00    +0.000 A 
ATOM     18  C   UNL     1       0.595  11.056  19.489  0.00  0.00    +0.000 A 
ATOM     19  N   UNL     1       1.014  10.070  18.675  0.00  0.00    +0.000 NA
ATOM     20  N   UNL     1       1.376   8.858  19.216  0.00  0.00    +0.000 NA
ATOM     21  H   UNL     1       2.350   7.535  21.869  0.00  0.00    +0.000 HD
BRANCH  18  22
ATOM     22  C   UNL     1       0.224  12.284  18.852  0.00  0.00    +0.000 C 
ATOM     23  N   UNL     1      -0.113  13.262  18.323  0.00  0.00    +0.000 NA
ENDBRANCH  18  22
ENDBRANCH  13  14
ENDBRANCH   1  13
TORSDOF 7
ENDMDL
MODEL 4
REMARK VINA RESULT:      -6.3      3.173      7.086
REMARK  Name = 
REMARK  11 active torsions:
REMARK  status: ('A' for Active; 'I' for Inactive)
REMARK    1  A    between atoms: C_1  and  C_2
REMARK    2  A    between atoms: C_2  and  C_3
REMARK    3  A    between atoms: C_2  and  N_14
REMARK    4  A    between atoms: C_3  and  C_4
REMARK    5  A    between atoms: C_4  and  N_5
REMARK    6  A    between atoms: C_9  and  C_10
REMARK    7  A    between atoms: C_15  and  O_17
REMARK    8  A    between atoms: O_17  and  C_18
REMARK    9  A    between atoms: C_18  and  C_19
REMARK   10  A    between atoms: C_18  and  C_20
REMARK   11  A    between atoms: C_18  and  C_21
REMARK                            x       y       z     vdW  Elec       q    Type
REMARK                         _______ _______ _______ _____ _____    ______ ____
ROOT
ATOM      1  C   UNL     1       5.478   7.109  17.525  0.00  0.00    +0.000 C 
ENDROOT
BRANCH   1   3
ATOM      2  C   UNL     1       3.023   7.765  17.854  0.00  0.00    +0.000 C 
ATOM      3  C   UNL     1       4.020   6.625  17.664  0.00  0.00    +0.000 C 
BRANCH   3   4
ATOM      4  N   UNL     1       3.864   5.614  18.704  0.00  0.00    +0.000 N 
ATOM      5  C   UNL     1       3.320   4.395  18.414  0.00  0.00    +0.000 C 
ATOM      6  O   UNL     1       2.908   4.099  17.302  0.00  0.00    +0.000 OA
ATOM      7  H   UNL     1       4.233   5.743  19.637  0.00  0.00    +0.000 HD
BRANCH   5   8
ATOM      8  O   UNL     1       3.280   3.600  19.513  0.00  0.00    +0.000 OA
BRANCH   8   9
ATOM      9  C   UNL     1       2.046   3.556  20.285  0.00  0.00    +0.000 C 
ATOM     10  C   UNL     1       1.459   4.962  20.480  0.00  0.00    +0.000 C 
ATOM     11  C   UNL     1       1.041   2.724  19.469  0.00  0.00    +0.000 C 
ATOM     12  C   UNL     1       2.261   2.836  21.626  0.00  0.00    +0.000 C 
ENDBRANCH   8   9
ENDBRANCH   5   8
ENDBRANCH   3   4
ENDBRANCH   1   3
BRANCH   1  13
ATOM     13  C   UNL     1       6.491   5.968  17.432  0.00  0.00    +0.000 C 
BRANCH  13  14
ATOM     14  N   UNL     1       7.318   6.106  16.229  0.00  0.00    +0.000 N 
ATOM     15  C   UNL     1       6.889   5.273  15.175  0.00  0.00    +0.000 A 
ATOM     16  C   UNL     1       7.609   5.276  13.986  0.00  0.00    +0.000 A 
ATOM     17  C   UNL     1       7.184   4.482  12.919  0.00  0.00    +0.000 A 
ATOM     18  C   UNL     1       6.045   3.715  13.084  0.00  0.00    +0.000 A 
ATOM     19  N   UNL     1       5.348   3.723  14.236  0.00  0.00    +0.000 NA
ATOM     20  N   UNL     1       5.774   4.516  15.275  0.00  0.00    +0.000 NA
ATOM     21  H   UNL     1       8.305   5.945  16.411  0.00  0.00    +0.000 HD
BRANCH  18  22
ATOM     22  C   UNL     1       5.534   2.873  12.045  0.00  0.00    +0.000 C 
ATOM     23  N   UNL     1       5.091   2.221  11.191  0.00  0.00    +0.000 NA
ENDBRANCH  18  22
ENDBRANCH  13  14
ENDBRANCH   1  13
TORSDOF 7
ENDMDL
MODEL 5
REMARK VINA RESULT:      -6.3      7.092      9.908
REMARK  Name = 
REMARK  11 active torsions:
REMARK  status: ('A' for Active; 'I' for Inactive)
REMARK    1  A    between atoms: C_1  and  C_2
REMARK    2  A    between atoms: C_2  and  C_3
REMARK    3  A    between atoms: C_2  and  N_14
REMARK    4  A    between atoms: C_3  and  C_4
REMARK    5  A    between atoms: C_4  and  N_5
REMARK    6  A    between atoms: C_9  and  C_10
REMARK    7  A    between atoms: C_15  and  O_17
REMARK    8  A    between atoms: O_17  and  C_18
REMARK    9  A    between atoms: C_18  and  C_19
REMARK   10  A    between atoms: C_18  and  C_20
REMARK   11  A    between atoms: C_18  and  C_21
REMARK                            x       y       z     vdW  Elec       q    Type
REMARK                         _______ _______ _______ _____ _____    ______ ____
ROOT
ATOM      1  C   UNL     1       8.049   9.728  17.986  0.00  0.00    +0.000 C 
ENDROOT
BRANCH   1   3
ATOM      2  C   UNL     1       9.349  10.576  20.025  0.00  0.00    +0.000 C 
ATOM      3  C   UNL     1       9.311  10.448  18.505  0.00  0.00    +0.000 C 
BRANCH   3   4
ATOM      4  N   UNL     1       9.516  11.743  17.865  0.00  0.00    +0.000 N 
ATOM      5  C   UNL     1      10.778  12.202  17.612  0.00  0.00    +0.000 C 
ATOM      6  O   UNL     1      11.785  11.588  17.932  0.00  0.00    +0.000 OA
ATOM      7  H   UNL     1       8.746  12.293  17.508  0.00  0.00    +0.000 HD
BRANCH   5   8
ATOM      8  O   UNL     1      10.748  13.413  17.002  0.00  0.00    +0.000 OA
BRANCH   8   9
ATOM      9  C   UNL     1      10.727  14.605  17.838  0.00  0.00    +0.000 C 
ATOM     10  C   UNL     1      11.464  14.370  19.164  0.00  0.00    +0.000 C 
ATOM     11  C   UNL     1      11.473  15.705  17.062  0.00  0.00    +0.000 C 
ATOM     12  C   UNL     1       9.288  15.095  18.063  0.00  0.00    +0.000 C 
ENDBRANCH   8   9
ENDBRANCH   5   8
ENDBRANCH   3   4
ENDBRANCH   1   3
BRANCH   1  13
ATOM     13  C   UNL     1       8.200   8.208  17.921  0.00  0.00    +0.000 C 
BRANCH  13  14
ATOM     14  N   UNL     1       7.210   7.627  17.009  0.00  0.00    +0.000 N 
ATOM     15  C   UNL     1       6.575   6.489  17.548  0.00  0.00    +0.000 A 
ATOM     16  C   UNL     1       5.639   5.815  16.772  0.00  0.00    +0.000 A 
ATOM     17  C   UNL     1       4.976   4.705  17.298  0.00  0.00    +0.000 A 
ATOM     18  C   UNL     1       5.275   4.313  18.590  0.00  0.00    +0.000 A 
ATOM     19  N   UNL     1       6.177   4.974  19.339  0.00  0.00    +0.000 NA
ATOM     20  N   UNL     1       6.816   6.071  18.811  0.00  0.00    +0.000 NA
ATOM     21  H   UNL     1       7.601   7.400  16.099  0.00  0.00    +0.000 HD
BRANCH  18  22
ATOM     22  C   UNL     1       4.644   3.188  19.211  0.00  0.00    +0.000 C 
ATOM     23  N   UNL     1       4.145   2.251  19.683  0.00  0.00    +0.000 NA
ENDBRANCH  18  22
ENDBRANCH  13  14
ENDBRANCH   1  13
TORSDOF 7
ENDMDL
MODEL 6
REMARK VINA RESULT:      -6.2      3.312      7.220
REMARK  Name = 
REMARK  11 active torsions:
REMARK  status: ('A' for Active; 'I' for Inactive)
REMARK    1  A    between atoms: C_1  and  C_2
REMARK    2  A    between atoms: C_2  and  C_3
REMARK    3  A    between atoms: C_2  and  N_14
REMARK    4  A    between atoms: C_3  and  C_4
REMARK    5  A    between atoms: C_4  and  N_5
REMARK    6  A    between atoms: C_9  and  C_10
REMARK    7  A    between atoms: C_15  and  O_17
REMARK    8  A    between atoms: O_17  and  C_18
REMARK    9  A    between atoms: C_18  and  C_19
REMARK   10  A    between atoms: C_18  and  C_20
REMARK   11  A    between atoms: C_18  and  C_21
REMARK                            x       y       z     vdW  Elec       q    Type
REMARK                         _______ _______ _______ _____ _____    ______ ____
ROOT
ATOM      1  C   UNL     1       5.816   6.799  17.728  0.00  0.00    +0.000 C 
ENDROOT
BRANCH   1   3
ATOM      2  C   UNL     1       3.349   7.494  17.739  0.00  0.00    +0.000 C 
ATOM      3  C   UNL     1       4.344   6.337  17.720  0.00  0.00    +0.000 C 
BRANCH   3   4
ATOM      4  N   UNL     1       4.054   5.380  18.782  0.00  0.00    +0.000 N 
ATOM      5  C   UNL     1       3.451   4.187  18.498  0.00  0.00    +0.000 C 
ATOM      6  O   UNL     1       3.094   3.874  17.372  0.00  0.00    +0.000 OA
ATOM      7  H   UNL     1       4.369   5.522  19.733  0.00  0.00    +0.000 HD
BRANCH   5   8
ATOM      8  O   UNL     1       3.286   3.440  19.619  0.00  0.00    +0.000 OA
BRANCH   8   9
ATOM      9  C   UNL     1       1.972   3.423  20.246  0.00  0.00    +0.000 C 
ATOM     10  C   UNL     1       2.011   2.709  21.605  0.00  0.00    +0.000 C 
ATOM     11  C   UNL     1       1.575   4.891  20.486  0.00  0.00    +0.000 C 
ATOM     12  C   UNL     1       0.921   2.808  19.308  0.00  0.00    +0.000 C 
ENDBRANCH   8   9
ENDBRANCH   5   8
ENDBRANCH   3   4
ENDBRANCH   1   3
BRANCH   1  13
ATOM     13  C   UNL     1       6.805   5.688  17.378  0.00  0.00    +0.000 C 
BRANCH  13  14
ATOM     14  N   UNL     1       7.475   5.973  16.106  0.00  0.00    +0.000 N 
ATOM     15  C   UNL     1       7.029   5.144  15.056  0.00  0.00    +0.000 A 
ATOM     16  C   UNL     1       7.610   5.281  13.801  0.00  0.00    +0.000 A 
ATOM     17  C   UNL     1       7.160   4.492  12.741  0.00  0.00    +0.000 A 
ATOM     18  C   UNL     1       6.137   3.593  12.980  0.00  0.00    +0.000 A 
ATOM     19  N   UNL     1       5.573   3.470  14.196  0.00  0.00    +0.000 NA
ATOM     20  N   UNL     1       6.020   4.260  15.229  0.00  0.00    +0.000 NA
ATOM     21  H   UNL     1       8.488   5.919  16.175  0.00  0.00    +0.000 HD
BRANCH  18  22
ATOM     22  C   UNL     1       5.612   2.745  11.953  0.00  0.00    +0.000 C 
ATOM     23  N   UNL     1       5.159   2.089  11.108  0.00  0.00    +0.000 NA
ENDBRANCH  18  22
ENDBRANCH  13  14
ENDBRANCH   1  13
TORSDOF 7
ENDMDL
MODEL 7
REMARK VINA RESULT:      -6.2      0.979      1.116
REMARK  Name = 
REMARK  11 active torsions:
REMARK  status: ('A' for Active; 'I' for Inactive)
REMARK    1  A    between atoms: C_1  and  C_2
REMARK    2  A    between atoms: C_2  and  C_3
REMARK    3  A    between atoms: C_2  and  N_14
REMARK    4  A    between atoms: C_3  and  C_4
REMARK    5  A    between atoms: C_4  and  N_5
REMARK    6  A    between atoms: C_9  and  C_10
REMARK    7  A    between atoms: C_15  and  O_17
REMARK    8  A    between atoms: O_17  and  C_18
REMARK    9  A    between atoms: C_18  and  C_19
REMARK   10  A    between atoms: C_18  and  C_20
REMARK   11  A    between atoms: C_18  and  C_21
REMARK                            x       y       z     vdW  Elec       q    Type
REMARK                         _______ _______ _______ _____ _____    ______ ____
ROOT
ATOM      1  C   UNL     1       4.599   5.728  16.416  0.00  0.00    +0.000 C 
ENDROOT
BRANCH   1   3
ATOM      2  C   UNL     1       5.916   3.671  15.638  0.00  0.00    +0.000 C 
ATOM      3  C   UNL     1       5.155   4.335  16.782  0.00  0.00    +0.000 C 
BRANCH   3   4
ATOM      4  N   UNL     1       4.127   3.447  17.313  0.00  0.00    +0.000 N 
ATOM      5  C   UNL     1       4.136   3.081  18.630  0.00  0.00    +0.000 C 
ATOM      6  O   UNL     1       5.005   3.436  19.412  0.00  0.00    +0.000 OA
ATOM      7  H   UNL     1       3.333   3.154  16.759  0.00  0.00    +0.000 HD
BRANCH   5   8
ATOM      8  O   UNL     1       3.090   2.267  18.921  0.00  0.00    +0.000 OA
BRANCH   8   9
ATOM      9  C   UNL     1       1.930   2.848  19.582  0.00  0.00    +0.000 C 
ATOM     10  C   UNL     1       1.675   4.284  19.103  0.00  0.00    +0.000 C 
ATOM     11  C   UNL     1       0.717   1.987  19.188  0.00  0.00    +0.000 C 
ATOM     12  C   UNL     1       2.072   2.772  21.111  0.00  0.00    +0.000 C 
ENDBRANCH   8   9
ENDBRANCH   5   8
ENDBRANCH   3   4
ENDBRANCH   1   3
BRANCH   1  13
ATOM     13  C   UNL     1       4.081   6.512  17.620  0.00  0.00    +0.000 C 
BRANCH  13  14
ATOM     14  N   UNL     1       3.362   7.714  17.187  0.00  0.00    +0.000 N 
ATOM     15  C   UNL     1       2.506   8.226  18.184  0.00  0.00    +0.000 A 
ATOM     16  C   UNL     1       1.735   9.345  17.892  0.00  0.00    +0.000 A 
ATOM     17  C   UNL     1       0.904   9.887  18.874  0.00  0.00    +0.000 A 
ATOM     18  C   UNL     1       0.883   9.286  20.120  0.00  0.00    +0.000 A 
ATOM     19  N   UNL     1       1.638   8.208  20.398  0.00  0.00    +0.000 NA
ATOM     20  N   UNL     1       2.458   7.690  19.423  0.00  0.00    +0.000 NA
ATOM     21  H   UNL     1       2.837   7.569  16.328  0.00  0.00    +0.000 HD
BRANCH  18  22
ATOM     22  C   UNL     1       0.064   9.774  21.188  0.00  0.00    +0.000 C 
ATOM     23  N   UNL     1      -0.634  10.174  22.027  0.00  0.00    +0.000 NA
ENDBRANCH  18  22
ENDBRANCH  13  14
ENDBRANCH   1  13
TORSDOF 7
ENDMDL
MODEL 8
REMARK VINA RESULT:      -6.2      1.745      3.523
REMARK  Name = 
REMARK  11 active torsions:
REMARK  status: ('A' for Active; 'I' for Inactive)
REMARK    1  A    between atoms: C_1  and  C_2
REMARK    2  A    between atoms: C_2  and  C_3
REMARK    3  A    between atoms: C_2  and  N_14
REMARK    4  A    between atoms: C_3  and  C_4
REMARK    5  A    between atoms: C_4  and  N_5
REMARK    6  A    between atoms: C_9  and  C_10
REMARK    7  A    between atoms: C_15  and  O_17
REMARK    8  A    between atoms: O_17  and  C_18
REMARK    9  A    between atoms: C_18  and  C_19
REMARK   10  A    between atoms: C_18  and  C_20
REMARK   11  A    between atoms: C_18  and  C_21
REMARK                            x       y       z     vdW  Elec       q    Type
REMARK                         _______ _______ _______ _____ _____    ______ ____
ROOT
ATOM      1  C   UNL     1       2.173   6.290  18.088  0.00  0.00    +0.000 C 
ENDROOT
BRANCH   1   3
ATOM      2  C   UNL     1       1.786   5.556  20.513  0.00  0.00    +0.000 C 
ATOM      3  C   UNL     1       2.576   5.329  19.227  0.00  0.00    +0.000 C 
BRANCH   3   4
ATOM      4  N   UNL     1       4.012   5.342  19.485  0.00  0.00    +0.000 N 
ATOM      5  C   UNL     1       4.841   4.463  18.845  0.00  0.00    +0.000 C 
ATOM      6  O   UNL     1       4.435   3.611  18.068  0.00  0.00    +0.000 OA
ATOM      7  H   UNL     1       4.447   6.049  20.062  0.00  0.00    +0.000 HD
BRANCH   5   8
ATOM      8  O   UNL     1       6.133   4.650  19.213  0.00  0.00    +0.000 OA
BRANCH   8   9
ATOM      9  C   UNL     1       7.003   5.397  18.315  0.00  0.00    +0.000 C 
ATOM     10  C   UNL     1       7.647   4.476  17.268  0.00  0.00    +0.000 C 
ATOM     11  C   UNL     1       6.112   6.413  17.579  0.00  0.00    +0.000 C 
ATOM     12  C   UNL     1       8.056   6.192  19.103  0.00  0.00    +0.000 C 
ENDBRANCH   8   9
ENDBRANCH   5   8
ENDBRANCH   3   4
ENDBRANCH   1   3
BRANCH   1  13
ATOM     13  C   UNL     1       2.695   7.713  18.280  0.00  0.00    +0.000 C 
BRANCH  13  14
ATOM     14  N   UNL     1       1.676   8.695  17.897  0.00  0.00    +0.000 N 
ATOM     15  C   UNL     1       1.050   9.293  19.011  0.00  0.00    +0.000 A 
ATOM     16  C   UNL     1       0.035  10.217  18.791  0.00  0.00    +0.000 A 
ATOM     17  C   UNL     1      -0.576  10.844  19.878  0.00  0.00    +0.000 A 
ATOM     18  C   UNL     1      -0.141  10.522  21.151  0.00  0.00    +0.000 A 
ATOM     19  N   UNL     1       0.847   9.632  21.357  0.00  0.00    +0.000 NA
ATOM     20  N   UNL     1       1.446   9.029  20.276  0.00  0.00    +0.000 NA
ATOM     21  H   UNL     1       0.969   8.306  17.278  0.00  0.00    +0.000 HD
BRANCH  18  22
ATOM     22  C   UNL     1      -0.708  11.116  22.324  0.00  0.00    +0.000 C 
ATOM     23  N   UNL     1      -1.188  11.627  23.251  0.00  0.00    +0.000 NA
ENDBRANCH  18  22
ENDBRANCH  13  14
ENDBRANCH   1  13
TORSDOF 7
ENDMDL
MODEL 9
REMARK VINA RESULT:      -6.2      1.946      3.795
REMARK  Name = 
REMARK  11 active torsions:
REMARK  status: ('A' for Active; 'I' for Inactive)
REMARK    1  A    between atoms: C_1  and  C_2
REMARK    2  A    between atoms: C_2  and  C_3
REMARK    3  A    between atoms: C_2  and  N_14
REMARK    4  A    between atoms: C_3  and  C_4
REMARK    5  A    between atoms: C_4  and  N_5
REMARK    6  A    between atoms: C_9  and  C_10
REMARK    7  A    between atoms: C_15  and  O_17
REMARK    8  A    between atoms: O_17  and  C_18
REMARK    9  A    between atoms: C_18  and  C_19
REMARK   10  A    between atoms: C_18  and  C_20
REMARK   11  A    between atoms: C_18  and  C_21
REMARK                            x       y       z     vdW  Elec       q    Type
REMARK                         _______ _______ _______ _____ _____    ______ ____
ROOT
ATOM      1  C   UNL     1       1.494   4.385  20.376  0.00  0.00    +0.000 C 
ENDROOT
BRANCH   1   3
ATOM      2  C   UNL     1       2.021   2.059  19.439  0.00  0.00    +0.000 C 
ATOM      3  C   UNL     1       2.359   3.546  19.411  0.00  0.00    +0.000 C 
BRANCH   3   4
ATOM      4  N   UNL     1       3.787   3.763  19.613  0.00  0.00    +0.000 N 
ATOM      5  C   UNL     1       4.644   3.786  18.548  0.00  0.00    +0.000 C 
ATOM      6  O   UNL     1       4.280   3.594  17.397  0.00  0.00    +0.000 OA
ATOM      7  H   UNL     1       4.173   3.994  20.519  0.00  0.00    +0.000 HD
BRANCH   5   8
ATOM      8  O   UNL     1       5.920   4.015  18.949  0.00  0.00    +0.000 OA
BRANCH   8   9
ATOM      9  C   UNL     1       6.674   5.065  18.278  0.00  0.00    +0.000 C 
ATOM     10  C   UNL     1       7.336   4.545  16.994  0.00  0.00    +0.000 C 
ATOM     11  C   UNL     1       5.662   6.157  17.888  0.00  0.00    +0.000 C 
ATOM     12  C   UNL     1       7.697   5.704  19.230  0.00  0.00    +0.000 C 
ENDBRANCH   8   9
ENDBRANCH   5   8
ENDBRANCH   3   4
ENDBRANCH   1   3
BRANCH   1  13
ATOM     13  C   UNL     1       2.009   5.810  20.573  0.00  0.00    +0.000 C 
BRANCH  13  14
ATOM     14  N   UNL     1       2.375   6.412  19.287  0.00  0.00    +0.000 N 
ATOM     15  C   UNL     1       1.959   7.755  19.177  0.00  0.00    +0.000 A 
ATOM     16  C   UNL     1       2.208   8.436  17.991  0.00  0.00    +0.000 A 
ATOM     17  C   UNL     1       1.834   9.776  17.872  0.00  0.00    +0.000 A 
ATOM     18  C   UNL     1       1.223  10.385  18.954  0.00  0.00    +0.000 A 
ATOM     19  N   UNL     1       0.992   9.722  20.101  0.00  0.00    +0.000 NA
ATOM     20  N   UNL     1       1.375   8.405  20.207  0.00  0.00    +0.000 NA
ATOM     21  H   UNL     1       2.027   5.881  18.492  0.00  0.00    +0.000 HD
BRANCH  18  22
ATOM     22  C   UNL     1       0.807  11.755  18.922  0.00  0.00    +0.000 C 
ATOM     23  N   UNL     1       0.429  12.853  18.907  0.00  0.00    +0.000 NA
ENDBRANCH  18  22
ENDBRANCH  13  14
ENDBRANCH   1  13
TORSDOF 7
ENDMDL
