MODEL 1
REMARK VINA RESULT:      -6.7      0.000      0.000
REMARK  Name = 
REMARK  6 active torsions:
REMARK  status: ('A' for Active; 'I' for Inactive)
REMARK    1  A    between atoms: C_1  and  C_2
REMARK    2  A    between atoms: C_5  and  N_6
REMARK    3  A    between atoms: C_7  and  S_8
REMARK    4  A    between atoms: C_11  and  C_12
REMARK    5  A    between atoms: C_12  and  C_13
REMARK    6  A    between atoms: C_15  and  C_16
REMARK                            x       y       z     vdW  Elec       q    Type
REMARK                         _______ _______ _______ _____ _____    ______ ____
ROOT
ATOM      1  N   UNL     1       5.643   4.862  16.655  0.00  0.00    +0.000 N 
ATOM      2  C   UNL     1       6.753   5.527  17.191  0.00  0.00    +0.000 A 
ATOM      3  N   UNL     1       7.648   5.766  16.268  0.00  0.00    +0.000 NA
ATOM      4  N   UNL     1       7.169   5.286  15.092  0.00  0.00    +0.000 NA
ATOM      5  C   UNL     1       5.966   4.799  15.289  0.00  0.00    +0.000 A 
ENDROOT
BRANCH   1  10
ATOM      6  C   UNL     1       0.775   2.538  18.661  0.00  0.00    +0.000 C 
ATOM      7  C   UNL     1       2.096   3.144  18.286  0.00  0.00    +0.000 A 
ATOM      8  C   UNL     1       3.178   2.360  17.911  0.00  0.00    +0.000 A 
ATOM      9  C   UNL     1       4.371   2.963  17.494  0.00  0.00    +0.000 A 
ATOM     10  C   UNL     1       4.492   4.364  17.359  0.00  0.00    +0.000 A 
ATOM     11  C   UNL     1       3.425   5.165  17.819  0.00  0.00    +0.000 A 
ATOM     12  C   UNL     1       3.344   6.666  17.805  0.00  0.00    +0.000 C 
ATOM     13  C   UNL     1       2.259   4.531  18.310  0.00  0.00    +0.000 A 
ENDBRANCH   1  10
BRANCH   2  14
ATOM     14  S   UNL     1       7.107   5.890  18.860  0.00  0.00    +0.000 S 
ATOM     15  H   UNL     1       8.442   5.844  18.873  0.00  0.00    +0.000 HD
ENDBRANCH   2  14
BRANCH   5  16
ATOM     16  C   UNL     1       5.099   4.329  14.169  0.00  0.00    +0.000 C 
BRANCH  16  17
ATOM     17  C   UNL     1       5.891   3.737  13.077  0.00  0.00    +0.000 C 
ATOM     18  N   UNL     1       6.514   3.332  12.181  0.00  0.00    +0.000 NA
ENDBRANCH  16  17
ENDBRANCH   5  16
TORSDOF 4
ENDMDL
MODEL 2
REMARK VINA RESULT:      -6.4      1.822      3.305
REMARK  Name = 
REMARK  6 active torsions:
REMARK  status: ('A' for Active; 'I' for Inactive)
REMARK    1  A    between atoms: C_1  and  C_2
REMARK    2  A    between atoms: C_5  and  N_6
REMARK    3  A    between atoms: C_7  and  S_8
REMARK    4  A    between atoms: C_11  and  C_12
REMARK    5  A    between atoms: C_12  and  C_13
REMARK    6  A    between atoms: C_15  and  C_16
REMARK                            x       y       z     vdW  Elec       q    Type
REMARK                         _______ _______ _______ _____ _____    ______ ____
ROOT
ATOM      1  N   UNL     1       5.894   5.271  16.501  0.00  0.00    +0.000 N 
ATOM      2  C   UNL     1       6.304   4.904  15.212  0.00  0.00    +0.000 A 
ATOM      3  N   UNL     1       7.384   5.553  14.862  0.00  0.00    +0.000 NA
ATOM      4  N   UNL     1       7.738   6.358  15.896  0.00  0.00    +0.000 NA
ATOM      5  C   UNL     1       6.904   6.166  16.891  0.00  0.00    +0.000 A 
ENDROOT
BRANCH   1  10
ATOM      6  C   UNL     1       0.941   3.152  18.525  0.00  0.00    +0.000 C 
ATOM      7  C   UNL     1       2.279   3.715  18.146  0.00  0.00    +0.000 A 
ATOM      8  C   UNL     1       3.362   2.894  17.864  0.00  0.00    +0.000 A 
ATOM      9  C   UNL     1       4.574   3.452  17.440  0.00  0.00    +0.000 A 
ATOM     10  C   UNL     1       4.717   4.838  17.205  0.00  0.00    +0.000 A 
ATOM     11  C   UNL     1       3.647   5.682  17.572  0.00  0.00    +0.000 A 
ATOM     12  C   UNL     1       3.586   7.178  17.444  0.00  0.00    +0.000 C 
ATOM     13  C   UNL     1       2.459   5.098  18.073  0.00  0.00    +0.000 A 
ENDBRANCH   1  10
BRANCH   2  14
ATOM     14  S   UNL     1       5.493   3.877  14.059  0.00  0.00    +0.000 S 
ATOM     15  H   UNL     1       5.428   2.719  14.723  0.00  0.00    +0.000 HD
ENDBRANCH   2  14
BRANCH   5  16
ATOM     16  C   UNL     1       7.102   6.787  18.232  0.00  0.00    +0.000 C 
BRANCH  16  17
ATOM     17  C   UNL     1       7.787   5.872  19.162  0.00  0.00    +0.000 C 
ATOM     18  N   UNL     1       8.317   5.196  19.947  0.00  0.00    +0.000 NA
ENDBRANCH  16  17
ENDBRANCH   5  16
TORSDOF 4
ENDMDL
MODEL 3
REMARK VINA RESULT:      -6.3      1.847      3.287
REMARK  Name = 
REMARK  6 active torsions:
REMARK  status: ('A' for Active; 'I' for Inactive)
REMARK    1  A    between atoms: C_1  and  C_2
REMARK    2  A    between atoms: C_5  and  N_6
REMARK    3  A    between atoms: C_7  and  S_8
REMARK    4  A    between atoms: C_11  and  C_12
REMARK    5  A    between atoms: C_12  and  C_13
REMARK    6  A    between atoms: C_15  and  C_16
REMARK                            x       y       z     vdW  Elec       q    Type
REMARK                         _______ _______ _______ _____ _____    ______ ____
ROOT
ATOM      1  N   UNL     1       5.914   5.008  16.289  0.00  0.00    +0.000 N 
ATOM      2  C   UNL     1       6.205   4.695  14.955  0.00  0.00    +0.000 A 
ATOM      3  N   UNL     1       7.321   5.259  14.574  0.00  0.00    +0.000 NA
ATOM      4  N   UNL     1       7.818   5.951  15.631  0.00  0.00    +0.000 NA
ATOM      5  C   UNL     1       7.031   5.772  16.666  0.00  0.00    +0.000 A 
ENDROOT
BRANCH   1  10
ATOM      6  C   UNL     1       0.921   3.208  18.515  0.00  0.00    +0.000 C 
ATOM      7  C   UNL     1       2.278   3.678  18.081  0.00  0.00    +0.000 A 
ATOM      8  C   UNL     1       3.276   2.787  17.714  0.00  0.00    +0.000 A 
ATOM      9  C   UNL     1       4.505   3.264  17.241  0.00  0.00    +0.000 A 
ATOM     10  C   UNL     1       4.744   4.642  17.043  0.00  0.00    +0.000 A 
ATOM     11  C   UNL     1       3.765   5.553  17.495  0.00  0.00    +0.000 A 
ATOM     12  C   UNL     1       3.816   7.053  17.418  0.00  0.00    +0.000 C 
ATOM     13  C   UNL     1       2.563   5.045  18.042  0.00  0.00    +0.000 A 
ENDBRANCH   1  10
BRANCH   2  14
ATOM     14  S   UNL     1       5.224   3.835  13.796  0.00  0.00    +0.000 S 
ATOM     15  H   UNL     1       4.705   4.838  13.081  0.00  0.00    +0.000 HD
ENDBRANCH   2  14
BRANCH   5  16
ATOM     16  C   UNL     1       7.373   6.274  18.028  0.00  0.00    +0.000 C 
BRANCH  16  17
ATOM     17  C   UNL     1       7.795   7.686  17.999  0.00  0.00    +0.000 C 
ATOM     18  N   UNL     1       8.182   8.781  17.935  0.00  0.00    +0.000 NA
ENDBRANCH  16  17
ENDBRANCH   5  16
TORSDOF 4
ENDMDL
MODEL 4
REMARK VINA RESULT:      -6.2      3.022      4.898
REMARK  Name = 
REMARK  6 active torsions:
REMARK  status: ('A' for Active; 'I' for Inactive)
REMARK    1  A    between atoms: C_1  and  C_2
REMARK    2  A    between atoms: C_5  and  N_6
REMARK    3  A    between atoms: C_7  and  S_8
REMARK    4  A    between atoms: C_11  and  C_12
REMARK    5  A    between atoms: C_12  and  C_13
REMARK    6  A    between atoms: C_15  and  C_16
REMARK                            x       y       z     vdW  Elec       q    Type
REMARK                         _______ _______ _______ _____ _____    ______ ____
ROOT
ATOM      1  N   UNL     1       3.826   4.922  19.232  0.00  0.00    +0.000 N 
ATOM      2  C   UNL     1       3.081   3.757  19.458  0.00  0.00    +0.000 A 
ATOM      3  N   UNL     1       3.863   2.713  19.558  0.00  0.00    +0.000 NA
ATOM      4  N   UNL     1       5.143   3.139  19.417  0.00  0.00    +0.000 NA
ATOM      5  C   UNL     1       5.146   4.444  19.278  0.00  0.00    +0.000 A 
ENDROOT
BRANCH   1  10
ATOM      6  C   UNL     1       1.018   9.839  18.199  0.00  0.00    +0.000 C 
ATOM      7  C   UNL     1       1.865   8.644  18.530  0.00  0.00    +0.000 A 
ATOM      8  C   UNL     1       1.736   7.972  19.737  0.00  0.00    +0.000 A 
ATOM      9  C   UNL     1       2.489   6.816  19.980  0.00  0.00    +0.000 A 
ATOM     10  C   UNL     1       3.329   6.251  18.994  0.00  0.00    +0.000 A 
ATOM     11  C   UNL     1       3.526   6.978  17.801  0.00  0.00    +0.000 A 
ATOM     12  C   UNL     1       4.392   6.592  16.635  0.00  0.00    +0.000 C 
ATOM     13  C   UNL     1       2.812   8.186  17.612  0.00  0.00    +0.000 A 
ENDBRANCH   1  10
BRANCH   2  14
ATOM     14  S   UNL     1       1.349   3.551  19.454  0.00  0.00    +0.000 S 
ATOM     15  H   UNL     1       1.088   3.408  20.757  0.00  0.00    +0.000 HD
ENDBRANCH   2  14
BRANCH   5  16
ATOM     16  C   UNL     1       6.405   5.244  19.251  0.00  0.00    +0.000 C 
BRANCH  16  17
ATOM     17  C   UNL     1       7.269   4.865  18.119  0.00  0.00    +0.000 C 
ATOM     18  N   UNL     1       7.913   4.506  17.219  0.00  0.00    +0.000 NA
ENDBRANCH  16  17
ENDBRANCH   5  16
TORSDOF 4
ENDMDL
MODEL 5
REMARK VINA RESULT:      -6.2      1.635      2.653
REMARK  Name = 
REMARK  6 active torsions:
REMARK  status: ('A' for Active; 'I' for Inactive)
REMARK    1  A    between atoms: C_1  and  C_2
REMARK    2  A    between atoms: C_5  and  N_6
REMARK    3  A    between atoms: C_7  and  S_8
REMARK    4  A    between atoms: C_11  and  C_12
REMARK    5  A    between atoms: C_12  and  C_13
REMARK    6  A    between atoms: C_15  and  C_16
REMARK                            x       y       z     vdW  Elec       q    Type
REMARK                         _______ _______ _______ _____ _____    ______ ____
ROOT
ATOM      1  N   UNL     1       5.950   5.194  17.173  0.00  0.00    +0.000 N 
ATOM      2  C   UNL     1       7.212   5.163  17.782  0.00  0.00    +0.000 A 
ATOM      3  N   UNL     1       8.075   4.522  17.037  0.00  0.00    +0.000 NA
ATOM      4  N   UNL     1       7.433   4.117  15.912  0.00  0.00    +0.000 NA
ATOM      5  C   UNL     1       6.194   4.549  15.949  0.00  0.00    +0.000 A 
ENDROOT
BRANCH   1  10
ATOM      6  C   UNL     1       1.602   7.988  19.704  0.00  0.00    +0.000 C 
ATOM      7  C   UNL     1       2.629   7.199  18.947  0.00  0.00    +0.000 A 
ATOM      8  C   UNL     1       3.308   7.736  17.863  0.00  0.00    +0.000 A 
ATOM      9  C   UNL     1       4.314   6.997  17.228  0.00  0.00    +0.000 A 
ATOM     10  C   UNL     1       4.729   5.735  17.708  0.00  0.00    +0.000 A 
ATOM     11  C   UNL     1       3.984   5.150  18.755  0.00  0.00    +0.000 A 
ATOM     12  C   UNL     1       4.219   3.813  19.400  0.00  0.00    +0.000 C 
ATOM     13  C   UNL     1       2.920   5.887  19.328  0.00  0.00    +0.000 A 
ENDBRANCH   1  10
BRANCH   2  14
ATOM     14  S   UNL     1       7.668   5.704  19.376  0.00  0.00    +0.000 S 
ATOM     15  H   UNL     1       7.694   4.554  20.057  0.00  0.00    +0.000 HD
ENDBRANCH   2  14
BRANCH   5  16
ATOM     16  C   UNL     1       5.261   4.404  14.794  0.00  0.00    +0.000 C 
BRANCH  16  17
ATOM     17  C   UNL     1       5.960   3.945  13.581  0.00  0.00    +0.000 C 
ATOM     18  N   UNL     1       6.453   3.551  12.603  0.00  0.00    +0.000 NA
ENDBRANCH  16  17
ENDBRANCH   5  16
TORSDOF 4
ENDMDL
MODEL 6
REMARK VINA RESULT:      -6.0      3.333      5.980
REMARK  Name = 
REMARK  6 active torsions:
REMARK  status: ('A' for Active; 'I' for Inactive)
REMARK    1  A    between atoms: C_1  and  C_2
REMARK    2  A    between atoms: C_5  and  N_6
REMARK    3  A    between atoms: C_7  and  S_8
REMARK    4  A    between atoms: C_11  and  C_12
REMARK    5  A    between atoms: C_12  and  C_13
REMARK    6  A    between atoms: C_15  and  C_16
REMARK                            x       y       z     vdW  Elec       q    Type
REMARK                         _______ _______ _______ _____ _____    ______ ____
ROOT
ATOM      1  N   UNL     1       3.264   5.684  19.013  0.00  0.00    +0.000 N 
ATOM      2  C   UNL     1       2.575   6.902  19.092  0.00  0.00    +0.000 A 
ATOM      3  N   UNL     1       1.746   6.906  20.103  0.00  0.00    +0.000 NA
ATOM      4  N   UNL     1       1.858   5.711  20.737  0.00  0.00    +0.000 NA
ATOM      5  C   UNL     1       2.786   4.998  20.142  0.00  0.00    +0.000 A 
ENDROOT
BRANCH   1  10
ATOM      6  C   UNL     1       6.787   4.797  14.549  0.00  0.00    +0.000 C 
ATOM      7  C   UNL     1       5.955   4.925  15.792  0.00  0.00    +0.000 A 
ATOM      8  C   UNL     1       6.230   5.882  16.758  0.00  0.00    +0.000 A 
ATOM      9  C   UNL     1       5.387   6.022  17.867  0.00  0.00    +0.000 A 
ATOM     10  C   UNL     1       4.200   5.267  18.003  0.00  0.00    +0.000 A 
ATOM     11  C   UNL     1       3.964   4.236  17.069  0.00  0.00    +0.000 A 
ATOM     12  C   UNL     1       2.794   3.293  17.033  0.00  0.00    +0.000 C 
ATOM     13  C   UNL     1       4.874   4.064  15.999  0.00  0.00    +0.000 A 
ENDBRANCH   1  10
BRANCH   2  14
ATOM     14  S   UNL     1       2.590   8.239  17.972  0.00  0.00    +0.000 S 
ATOM     15  H   UNL     1       1.352   8.724  18.110  0.00  0.00    +0.000 HD
ENDBRANCH   2  14
BRANCH   5  16
ATOM     16  C   UNL     1       3.261   3.691  20.683  0.00  0.00    +0.000 C 
BRANCH  16  17
ATOM     17  C   UNL     1       2.245   3.052  21.537  0.00  0.00    +0.000 C 
ATOM     18  N   UNL     1       1.458   2.486  22.181  0.00  0.00    +0.000 NA
ENDBRANCH  16  17
ENDBRANCH   5  16
TORSDOF 4
ENDMDL
MODEL 7
REMARK VINA RESULT:      -6.0      1.103      2.074
REMARK  Name = 
REMARK  6 active torsions:
REMARK  status: ('A' for Active; 'I' for Inactive)
REMARK    1  A    between atoms: C_1  and  C_2
REMARK    2  A    between atoms: C_5  and  N_6
REMARK    3  A    between atoms: C_7  and  S_8
REMARK    4  A    between atoms: C_11  and  C_12
REMARK    5  A    between atoms: C_12  and  C_13
REMARK    6  A    between atoms: C_15  and  C_16
REMARK                            x       y       z     vdW  Elec       q    Type
REMARK                         _______ _______ _______ _____ _____    ______ ____
ROOT
ATOM      1  N   UNL     1       5.741   4.781  17.195  0.00  0.00    +0.000 N 
ATOM      2  C   UNL     1       6.997   5.003  17.776  0.00  0.00    +0.000 A 
ATOM      3  N   UNL     1       7.958   4.762  16.922  0.00  0.00    +0.000 NA
ATOM      4  N   UNL     1       7.387   4.387  15.750  0.00  0.00    +0.000 NA
ATOM      5  C   UNL     1       6.081   4.444  15.874  0.00  0.00    +0.000 A 
ENDROOT
BRANCH   1  10
ATOM      6  C   UNL     1       1.051   5.327  20.485  0.00  0.00    +0.000 C 
ATOM      7  C   UNL     1       2.180   5.203  19.504  0.00  0.00    +0.000 A 
ATOM      8  C   UNL     1       2.919   6.306  19.100  0.00  0.00    +0.000 A 
ATOM      9  C   UNL     1       4.013   6.141  18.242  0.00  0.00    +0.000 A 
ATOM     10  C   UNL     1       4.453   4.863  17.828  0.00  0.00    +0.000 A 
ATOM     11  C   UNL     1       3.654   3.750  18.167  0.00  0.00    +0.000 A 
ATOM     12  C   UNL     1       3.904   2.311  17.812  0.00  0.00    +0.000 C 
ATOM     13  C   UNL     1       2.507   3.954  18.971  0.00  0.00    +0.000 A 
ENDBRANCH   1  10
BRANCH   2  14
ATOM     14  S   UNL     1       7.380   5.377  19.436  0.00  0.00    +0.000 S 
ATOM     15  H   UNL     1       6.357   6.165  19.781  0.00  0.00    +0.000 HD
ENDBRANCH   2  14
BRANCH   5  16
ATOM     16  C   UNL     1       5.157   4.238  14.721  0.00  0.00    +0.000 C 
BRANCH  16  17
ATOM     17  C   UNL     1       5.883   3.828  13.506  0.00  0.00    +0.000 C 
ATOM     18  N   UNL     1       6.420   3.552  12.511  0.00  0.00    +0.000 NA
ENDBRANCH  16  17
ENDBRANCH   5  16
TORSDOF 4
ENDMDL
MODEL 8
REMARK VINA RESULT:      -5.9      3.302      5.658
REMARK  Name = 
REMARK  6 active torsions:
REMARK  status: ('A' for Active; 'I' for Inactive)
REMARK    1  A    between atoms: C_1  and  C_2
REMARK    2  A    between atoms: C_5  and  N_6
REMARK    3  A    between atoms: C_7  and  S_8
REMARK    4  A    between atoms: C_11  and  C_12
REMARK    5  A    between atoms: C_12  and  C_13
REMARK    6  A    between atoms: C_15  and  C_16
REMARK                            x       y       z     vdW  Elec       q    Type
REMARK                         _______ _______ _______ _____ _____    ______ ____
ROOT
ATOM      1  N   UNL     1       3.845   4.255  19.204  0.00  0.00    +0.000 N 
ATOM      2  C   UNL     1       2.966   5.086  19.911  0.00  0.00    +0.000 A 
ATOM      3  N   UNL     1       2.336   4.417  20.843  0.00  0.00    +0.000 NA
ATOM      4  N   UNL     1       2.775   3.133  20.800  0.00  0.00    +0.000 NA
ATOM      5  C   UNL     1       3.703   3.030  19.877  0.00  0.00    +0.000 A 
ENDROOT
BRANCH   1  10
ATOM      6  C   UNL     1       7.148   4.726  14.515  0.00  0.00    +0.000 C 
ATOM      7  C   UNL     1       6.244   4.751  15.712  0.00  0.00    +0.000 A 
ATOM      8  C   UNL     1       4.916   4.355  15.632  0.00  0.00    +0.000 A 
ATOM      9  C   UNL     1       4.123   4.319  16.785  0.00  0.00    +0.000 A 
ATOM     10  C   UNL     1       4.653   4.598  18.065  0.00  0.00    +0.000 A 
ATOM     11  C   UNL     1       5.977   5.083  18.139  0.00  0.00    +0.000 A 
ATOM     12  C   UNL     1       6.734   5.472  19.378  0.00  0.00    +0.000 C 
ATOM     13  C   UNL     1       6.733   5.184  16.947  0.00  0.00    +0.000 A 
ENDBRANCH   1  10
BRANCH   2  14
ATOM     14  S   UNL     1       2.540   6.747  19.594  0.00  0.00    +0.000 S 
ATOM     15  H   UNL     1       3.705   7.370  19.793  0.00  0.00    +0.000 HD
ENDBRANCH   2  14
BRANCH   5  16
ATOM     16  C   UNL     1       4.498   1.784  19.678  0.00  0.00    +0.000 C 
BRANCH  16  17
ATOM     17  C   UNL     1       5.166   1.357  20.920  0.00  0.00    +0.000 C 
ATOM     18  N   UNL     1       5.742   1.069  21.889  0.00  0.00    +0.000 NA
ENDBRANCH  16  17
ENDBRANCH   5  16
TORSDOF 4
ENDMDL
MODEL 9
REMARK VINA RESULT:      -5.9      2.154      3.611
REMARK  Name = 
REMARK  6 active torsions:
REMARK  status: ('A' for Active; 'I' for Inactive)
REMARK    1  A    between atoms: C_1  and  C_2
REMARK    2  A    between atoms: C_5  and  N_6
REMARK    3  A    between atoms: C_7  and  S_8
REMARK    4  A    between atoms: C_11  and  C_12
REMARK    5  A    between atoms: C_12  and  C_13
REMARK    6  A    between atoms: C_15  and  C_16
REMARK                            x       y       z     vdW  Elec       q    Type
REMARK                         _______ _______ _______ _____ _____    ______ ____
ROOT
ATOM      1  N   UNL     1       6.062   5.495  17.150  0.00  0.00    +0.000 N 
ATOM      2  C   UNL     1       6.169   4.991  15.847  0.00  0.00    +0.000 A 
ATOM      3  N   UNL     1       7.214   5.487  15.236  0.00  0.00    +0.000 NA
ATOM      4  N   UNL     1       7.843   6.321  16.102  0.00  0.00    +0.000 NA
ATOM      5  C   UNL     1       7.211   6.298  17.252  0.00  0.00    +0.000 A 
ENDROOT
BRANCH   1  10
ATOM      6  C   UNL     1       1.621   3.835  20.411  0.00  0.00    +0.000 C 
ATOM      7  C   UNL     1       2.836   4.339  19.689  0.00  0.00    +0.000 A 
ATOM      8  C   UNL     1       3.994   3.581  19.595  0.00  0.00    +0.000 A 
ATOM      9  C   UNL     1       5.082   4.051  18.848  0.00  0.00    +0.000 A 
ATOM     10  C   UNL     1       5.015   5.250  18.104  0.00  0.00    +0.000 A 
ATOM     11  C   UNL     1       3.872   6.063  18.266  0.00  0.00    +0.000 A 
ATOM     12  C   UNL     1       3.598   7.385  17.607  0.00  0.00    +0.000 C 
ATOM     13  C   UNL     1       2.818   5.601  19.091  0.00  0.00    +0.000 A 
ENDBRANCH   1  10
BRANCH   2  14
ATOM     14  S   UNL     1       5.048   3.979  14.973  0.00  0.00    +0.000 S 
ATOM     15  H   UNL     1       5.212   2.801  15.583  0.00  0.00    +0.000 HD
ENDBRANCH   2  14
BRANCH   5  16
ATOM     16  C   UNL     1       7.732   6.990  18.466  0.00  0.00    +0.000 C 
BRANCH  16  17
ATOM     17  C   UNL     1       8.136   8.377  18.174  0.00  0.00    +0.000 C 
ATOM     18  N   UNL     1       8.498   9.469  17.998  0.00  0.00    +0.000 NA
ENDBRANCH  16  17
ENDBRANCH   5  16
TORSDOF 4
ENDMDL
