MODEL 1
REMARK VINA RESULT:      -8.4      0.000      0.000
REMARK  Name = 
REMARK  8 active torsions:
REMARK  status: ('A' for Active; 'I' for Inactive)
REMARK    1  A    between atoms: C_1  and  C_2
REMARK    2  A    between atoms: C_2  and  O_3
REMARK    3  A    between atoms: O_3  and  C_4
REMARK    4  A    between atoms: C_6  and  C_7
REMARK    5  A    between atoms: C_18  and  N_19
REMARK    6  A    between atoms: C_23  and  C_24
REMARK    7  A    between atoms: C_28  and  N_29
REMARK    8  A    between atoms: N_29  and  C_30
REMARK                            x       y       z     vdW  Elec       q    Type
REMARK                         _______ _______ _______ _____ _____    ______ ____
ROOT
ATOM      1  C   UNL     1       2.080   5.358  19.893  0.00  0.00    +0.000 A 
ATOM      2  C   UNL     1       2.763   4.593  18.926  0.00  0.00    +0.000 A 
ATOM      3  C   UNL     1       3.488   5.216  17.899  0.00  0.00    +0.000 A 
ATOM      4  C   UNL     1       3.457   6.592  17.804  0.00  0.00    +0.000 A 
ATOM      5  F   UNL     1       3.992   7.235  16.759  0.00  0.00    +0.000 F 
ATOM      6  C   UNL     1       2.881   7.357  18.807  0.00  0.00    +0.000 A 
ATOM      7  C   UNL     1       2.226   6.761  19.898  0.00  0.00    +0.000 A 
ENDROOT
BRANCH   3   8
ATOM      8  C   UNL     1       4.146   4.349  16.895  0.00  0.00    +0.000 C 
ATOM      9  O   UNL     1       3.420   3.520  16.346  0.00  0.00    +0.000 OA
ATOM     10  N   UNL     1       5.502   4.448  16.618  0.00  0.00    +0.000 N 
ATOM     11  C   UNL     1       6.520   5.307  17.243  0.00  0.00    +0.000 C 
ATOM     12  C   UNL     1       7.194   6.176  16.169  0.00  0.00    +0.000 C 
ATOM     13  O   UNL     1       7.752   5.360  15.123  0.00  0.00    +0.000 OA
ATOM     14  C   UNL     1       6.733   4.556  14.502  0.00  0.00    +0.000 C 
ATOM     15  C   UNL     1       6.055   3.641  15.526  0.00  0.00    +0.000 C 
ENDBRANCH   3   8
BRANCH   7  16
ATOM     16  N   UNL     1       1.792   7.552  20.978  0.00  0.00    +0.000 N 
ATOM     17  C   UNL     1       1.038   8.731  20.949  0.00  0.00    +0.000 A 
ATOM     18  N   UNL     1       0.685   9.275  22.113  0.00  0.00    +0.000 NA
ATOM     19  C   UNL     1      -0.024  10.422  22.047  0.00  0.00    +0.000 A 
ATOM     20  C   UNL     1      -0.368  11.078  20.877  0.00  0.00    +0.000 A 
ATOM     21  C   UNL     1       0.013  10.447  19.723  0.00  0.00    +0.000 A 
ATOM     22  N   UNL     1       0.710   9.294  19.771  0.00  0.00    +0.000 NA
ATOM     23  H   UNL     1       2.260   7.413  21.863  0.00  0.00    +0.000 HD
BRANCH  20  24
ATOM     24  C   UNL     1      -1.093  12.370  20.955  0.00  0.00    +0.000 C 
ATOM     25  F   UNL     1      -1.324  12.780  22.239  0.00  0.00    +0.000 F 
ATOM     26  F   UNL     1      -0.393  13.396  20.389  0.00  0.00    +0.000 F 
ATOM     27  F   UNL     1      -2.317  12.368  20.360  0.00  0.00    +0.000 F 
ENDBRANCH  20  24
BRANCH  21  28
ATOM     28  N   UNL     1      -0.327  10.772  18.429  0.00  0.00    +0.000 N 
ATOM     29  C   UNL     1      -1.463  10.243  17.704  0.00  0.00    +0.000 C 
ATOM     30  H   UNL     1      -0.311  11.793  18.398  0.00  0.00    +0.000 HD
ENDBRANCH  21  28
ENDBRANCH   7  16
BRANCH   1  31
ATOM     31  O   UNL     1       1.261   4.795  20.853  0.00  0.00    +0.000 OA
BRANCH  31  33
ATOM     32  C   UNL     1       1.736   2.583  21.757  0.00  0.00    +0.000 C 
ATOM     33  C   UNL     1       1.022   3.386  20.684  0.00  0.00    +0.000 C 
ENDBRANCH  31  33
ENDBRANCH   1  31
TORSDOF 6
ENDMDL
MODEL 2
REMARK VINA RESULT:      -8.3      2.875      4.930
REMARK  Name = 
REMARK  8 active torsions:
REMARK  status: ('A' for Active; 'I' for Inactive)
REMARK    1  A    between atoms: C_1  and  C_2
REMARK    2  A    between atoms: C_2  and  O_3
REMARK    3  A    between atoms: O_3  and  C_4
REMARK    4  A    between atoms: C_6  and  C_7
REMARK    5  A    between atoms: C_18  and  N_19
REMARK    6  A    between atoms: C_23  and  C_24
REMARK    7  A    between atoms: C_28  and  N_29
REMARK    8  A    between atoms: N_29  and  C_30
REMARK                            x       y       z     vdW  Elec       q    Type
REMARK                         _______ _______ _______ _____ _____    ______ ____
ROOT
ATOM      1  C   UNL     1       1.834   9.603  18.204  0.00  0.00    +0.000 A 
ATOM      2  C   UNL     1       2.534   8.483  17.712  0.00  0.00    +0.000 A 
ATOM      3  C   UNL     1       2.649   7.313  18.477  0.00  0.00    +0.000 A 
ATOM      4  C   UNL     1       2.132   7.303  19.757  0.00  0.00    +0.000 A 
ATOM      5  F   UNL     1       2.348   6.281  20.593  0.00  0.00    +0.000 F 
ATOM      6  C   UNL     1       1.350   8.355  20.211  0.00  0.00    +0.000 A 
ATOM      7  C   UNL     1       1.141   9.503  19.429  0.00  0.00    +0.000 A 
ENDROOT
BRANCH   3   8
ATOM      8  C   UNL     1       3.434   6.192  17.912  0.00  0.00    +0.000 C 
ATOM      9  O   UNL     1       4.621   6.430  17.688  0.00  0.00    +0.000 OA
ATOM     10  N   UNL     1       2.855   4.964  17.627  0.00  0.00    +0.000 N 
ATOM     11  C   UNL     1       1.449   4.547  17.742  0.00  0.00    +0.000 C 
ATOM     12  C   UNL     1       1.346   3.323  18.668  0.00  0.00    +0.000 C 
ATOM     13  O   UNL     1       2.185   2.252  18.198  0.00  0.00    +0.000 OA
ATOM     14  C   UNL     1       3.560   2.671  18.127  0.00  0.00    +0.000 C 
ATOM     15  C   UNL     1       3.722   3.867  17.185  0.00  0.00    +0.000 C 
ENDBRANCH   3   8
BRANCH   7  16
ATOM     16  N   UNL     1       0.218  10.481  19.845  0.00  0.00    +0.000 N 
ATOM     17  C   UNL     1      -1.049  10.766  19.321  0.00  0.00    +0.000 A 
ATOM     18  N   UNL     1      -1.779  11.701  19.927  0.00  0.00    +0.000 NA
ATOM     19  C   UNL     1      -2.985  11.963  19.382  0.00  0.00    +0.000 A 
ATOM     20  C   UNL     1      -3.489  11.367  18.238  0.00  0.00    +0.000 A 
ATOM     21  C   UNL     1      -2.688  10.403  17.684  0.00  0.00    +0.000 A 
ATOM     22  N   UNL     1      -1.486  10.119  18.225  0.00  0.00    +0.000 NA
ATOM     23  H   UNL     1       0.575  11.229  20.424  0.00  0.00    +0.000 HD
BRANCH  20  24
ATOM     24  C   UNL     1      -4.805  11.801  17.711  0.00  0.00    +0.000 C 
ATOM     25  F   UNL     1      -5.739  10.803  17.709  0.00  0.00    +0.000 F 
ATOM     26  F   UNL     1      -5.367  12.793  18.463  0.00  0.00    +0.000 F 
ATOM     27  F   UNL     1      -4.778  12.262  16.431  0.00  0.00    +0.000 F 
ENDBRANCH  20  24
BRANCH  21  28
ATOM     28  N   UNL     1      -2.992   9.539  16.657  0.00  0.00    +0.000 N 
ATOM     29  C   UNL     1      -2.886   9.846  15.246  0.00  0.00    +0.000 C 
ATOM     30  H   UNL     1      -2.503   8.672  16.885  0.00  0.00    +0.000 HD
ENDBRANCH  21  28
ENDBRANCH   7  16
BRANCH   1  31
ATOM     31  O   UNL     1       1.792  10.812  17.539  0.00  0.00    +0.000 OA
BRANCH  31  33
ATOM     32  C   UNL     1       1.943  13.165  18.155  0.00  0.00    +0.000 C 
ATOM     33  C   UNL     1       2.656  11.826  18.083  0.00  0.00    +0.000 C 
ENDBRANCH  31  33
ENDBRANCH   1  31
TORSDOF 6
ENDMDL
MODEL 3
REMARK VINA RESULT:      -8.1      0.842      1.147
REMARK  Name = 
REMARK  8 active torsions:
REMARK  status: ('A' for Active; 'I' for Inactive)
REMARK    1  A    between atoms: C_1  and  C_2
REMARK    2  A    between atoms: C_2  and  O_3
REMARK    3  A    between atoms: O_3  and  C_4
REMARK    4  A    between atoms: C_6  and  C_7
REMARK    5  A    between atoms: C_18  and  N_19
REMARK    6  A    between atoms: C_23  and  C_24
REMARK    7  A    between atoms: C_28  and  N_29
REMARK    8  A    between atoms: N_29  and  C_30
REMARK                            x       y       z     vdW  Elec       q    Type
REMARK                         _______ _______ _______ _____ _____    ______ ____
ROOT
ATOM      1  C   UNL     1       1.842   5.110  19.954  0.00  0.00    +0.000 A 
ATOM      2  C   UNL     1       2.576   4.443  18.952  0.00  0.00    +0.000 A 
ATOM      3  C   UNL     1       3.326   5.164  18.011  0.00  0.00    +0.000 A 
ATOM      4  C   UNL     1       3.272   6.542  18.033  0.00  0.00    +0.000 A 
ATOM      5  F   UNL     1       3.833   7.282  17.068  0.00  0.00    +0.000 F 
ATOM      6  C   UNL     1       2.644   7.208  19.075  0.00  0.00    +0.000 A 
ATOM      7  C   UNL     1       1.960   6.510  20.084  0.00  0.00    +0.000 A 
ENDROOT
BRANCH   3   8
ATOM      8  C   UNL     1       4.038   4.398  16.963  0.00  0.00    +0.000 C 
ATOM      9  O   UNL     1       3.346   3.622  16.304  0.00  0.00    +0.000 OA
ATOM     10  N   UNL     1       5.405   4.528  16.762  0.00  0.00    +0.000 N 
ATOM     11  C   UNL     1       6.386   5.328  17.513  0.00  0.00    +0.000 C 
ATOM     12  C   UNL     1       7.102   6.298  16.559  0.00  0.00    +0.000 C 
ATOM     13  O   UNL     1       7.715   5.585  15.468  0.00  0.00    +0.000 OA
ATOM     14  C   UNL     1       6.734   4.840  14.726  0.00  0.00    +0.000 C 
ATOM     15  C   UNL     1       6.016   3.830  15.626  0.00  0.00    +0.000 C 
ENDBRANCH   3   8
BRANCH   7  16
ATOM     16  N   UNL     1       1.471   7.197  21.210  0.00  0.00    +0.000 N 
ATOM     17  C   UNL     1       0.992   8.510  21.292  0.00  0.00    +0.000 A 
ATOM     18  N   UNL     1       0.512   8.928  22.463  0.00  0.00    +0.000 NA
ATOM     19  C   UNL     1       0.079  10.206  22.509  0.00  0.00    +0.000 A 
ATOM     20  C   UNL     1       0.133  11.103  21.457  0.00  0.00    +0.000 A 
ATOM     21  C   UNL     1       0.621  10.594  20.282  0.00  0.00    +0.000 A 
ATOM     22  N   UNL     1       1.046   9.316  20.215  0.00  0.00    +0.000 NA
ATOM     23  H   UNL     1       1.699   6.811  22.116  0.00  0.00    +0.000 HD
BRANCH  20  24
ATOM     24  C   UNL     1      -0.318  12.500  21.669  0.00  0.00    +0.000 C 
ATOM     25  F   UNL     1      -1.394  12.841  20.899  0.00  0.00    +0.000 F 
ATOM     26  F   UNL     1      -0.729  12.727  22.951  0.00  0.00    +0.000 F 
ATOM     27  F   UNL     1       0.623  13.446  21.398  0.00  0.00    +0.000 F 
ENDBRANCH  20  24
BRANCH  21  28
ATOM     28  N   UNL     1       0.640  11.194  19.043  0.00  0.00    +0.000 N 
ATOM     29  C   UNL     1       1.726  11.993  18.518  0.00  0.00    +0.000 C 
ATOM     30  H   UNL     1       0.370  10.459  18.388  0.00  0.00    +0.000 HD
ENDBRANCH  21  28
ENDBRANCH   7  16
BRANCH   1  31
ATOM     31  O   UNL     1       0.999   4.453  20.828  0.00  0.00    +0.000 OA
BRANCH  31  33
ATOM     32  C   UNL     1       1.910   2.451  21.876  0.00  0.00    +0.000 C 
ATOM     33  C   UNL     1       1.059   3.017  20.753  0.00  0.00    +0.000 C 
ENDBRANCH  31  33
ENDBRANCH   1  31
TORSDOF 6
ENDMDL
MODEL 4
REMARK VINA RESULT:      -7.9      2.887      8.573
REMARK  Name = 
REMARK  8 active torsions:
REMARK  status: ('A' for Active; 'I' for Inactive)
REMARK    1  A    between atoms: C_1  and  C_2
REMARK    2  A    between atoms: C_2  and  O_3
REMARK    3  A    between atoms: O_3  and  C_4
REMARK    4  A    between atoms: C_6  and  C_7
REMARK    5  A    between atoms: C_18  and  N_19
REMARK    6  A    between atoms: C_23  and  C_24
REMARK    7  A    between atoms: C_28  and  N_29
REMARK    8  A    between atoms: N_29  and  C_30
REMARK                            x       y       z     vdW  Elec       q    Type
REMARK                         _______ _______ _______ _____ _____    ______ ____
ROOT
ATOM      1  C   UNL     1       1.809   6.466  20.385  0.00  0.00    +0.000 A 
ATOM      2  C   UNL     1       1.256   7.582  21.045  0.00  0.00    +0.000 A 
ATOM      3  C   UNL     1       1.173   8.827  20.405  0.00  0.00    +0.000 A 
ATOM      4  C   UNL     1       1.715   8.963  19.144  0.00  0.00    +0.000 A 
ATOM      5  F   UNL     1       1.813  10.158  18.547  0.00  0.00    +0.000 F 
ATOM      6  C   UNL     1       2.163   7.853  18.443  0.00  0.00    +0.000 A 
ATOM      7  C   UNL     1       2.172   6.574  19.026  0.00  0.00    +0.000 A 
ENDROOT
BRANCH   3   8
ATOM      8  C   UNL     1       0.619   9.964  21.175  0.00  0.00    +0.000 C 
ATOM      9  O   UNL     1       1.148  10.181  22.265  0.00  0.00    +0.000 OA
ATOM     10  N   UNL     1      -0.451  10.714  20.706  0.00  0.00    +0.000 N 
ATOM     11  C   UNL     1      -1.251  10.533  19.485  0.00  0.00    +0.000 C 
ATOM     12  C   UNL     1      -1.195  11.812  18.635  0.00  0.00    +0.000 C 
ATOM     13  O   UNL     1      -1.630  12.954  19.396  0.00  0.00    +0.000 OA
ATOM     14  C   UNL     1      -0.811  13.134  20.565  0.00  0.00    +0.000 C 
ATOM     15  C   UNL     1      -0.863  11.897  21.467  0.00  0.00    +0.000 C 
ENDBRANCH   3   8
BRANCH   7  16
ATOM     16  N   UNL     1       2.479   5.445  18.244  0.00  0.00    +0.000 N 
ATOM     17  C   UNL     1       3.591   5.228  17.422  0.00  0.00    +0.000 A 
ATOM     18  N   UNL     1       3.704   4.042  16.825  0.00  0.00    +0.000 NA
ATOM     19  C   UNL     1       4.778   3.876  16.024  0.00  0.00    +0.000 A 
ATOM     20  C   UNL     1       5.729   4.846  15.756  0.00  0.00    +0.000 A 
ATOM     21  C   UNL     1       5.555   6.031  16.422  0.00  0.00    +0.000 A 
ATOM     22  N   UNL     1       4.494   6.208  17.236  0.00  0.00    +0.000 NA
ATOM     23  H   UNL     1       1.720   4.807  18.047  0.00  0.00    +0.000 HD
BRANCH  20  24
ATOM     24  C   UNL     1       6.822   4.548  14.800  0.00  0.00    +0.000 C 
ATOM     25  F   UNL     1       6.961   5.498  13.827  0.00  0.00    +0.000 F 
ATOM     26  F   UNL     1       8.045   4.498  15.405  0.00  0.00    +0.000 F 
ATOM     27  F   UNL     1       6.681   3.373  14.128  0.00  0.00    +0.000 F 
ENDBRANCH  20  24
BRANCH  21  28
ATOM     28  N   UNL     1       6.416   7.103  16.481  0.00  0.00    +0.000 N 
ATOM     29  C   UNL     1       7.413   7.319  17.508  0.00  0.00    +0.000 C 
ATOM     30  H   UNL     1       6.826   7.167  15.548  0.00  0.00    +0.000 HD
ENDBRANCH  21  28
ENDBRANCH   7  16
BRANCH   1  31
ATOM     31  O   UNL     1       2.017   5.252  21.010  0.00  0.00    +0.000 OA
BRANCH  31  33
ATOM     32  C   UNL     1       1.541   2.866  21.124  0.00  0.00    +0.000 C 
ATOM     33  C   UNL     1       1.057   4.234  20.676  0.00  0.00    +0.000 C 
ENDBRANCH  31  33
ENDBRANCH   1  31
TORSDOF 6
ENDMDL
MODEL 5
REMARK VINA RESULT:      -7.5      3.596      9.428
REMARK  Name = 
REMARK  8 active torsions:
REMARK  status: ('A' for Active; 'I' for Inactive)
REMARK    1  A    between atoms: C_1  and  C_2
REMARK    2  A    between atoms: C_2  and  O_3
REMARK    3  A    between atoms: O_3  and  C_4
REMARK    4  A    between atoms: C_6  and  C_7
REMARK    5  A    between atoms: C_18  and  N_19
REMARK    6  A    between atoms: C_23  and  C_24
REMARK    7  A    between atoms: C_28  and  N_29
REMARK    8  A    between atoms: N_29  and  C_30
REMARK                            x       y       z     vdW  Elec       q    Type
REMARK                         _______ _______ _______ _____ _____    ______ ____
ROOT
ATOM      1  C   UNL     1      -0.326  10.381  19.285  0.00  0.00    +0.000 A 
ATOM      2  C   UNL     1      -1.023  11.110  20.269  0.00  0.00    +0.000 A 
ATOM      3  C   UNL     1      -0.663  11.016  21.622  0.00  0.00    +0.000 A 
ATOM      4  C   UNL     1       0.335  10.135  21.984  0.00  0.00    +0.000 A 
ATOM      5  F   UNL     1       0.615   9.881  23.268  0.00  0.00    +0.000 F 
ATOM      6  C   UNL     1       1.099   9.496  21.018  0.00  0.00    +0.000 A 
ATOM      7  C   UNL     1       0.820   9.643  19.649  0.00  0.00    +0.000 A 
ENDROOT
BRANCH   3   8
ATOM      8  C   UNL     1      -1.466  11.778  22.605  0.00  0.00    +0.000 C 
ATOM      9  O   UNL     1      -2.122  11.103  23.399  0.00  0.00    +0.000 OA
ATOM     10  N   UNL     1      -1.498  13.166  22.606  0.00  0.00    +0.000 N 
ATOM     11  C   UNL     1      -0.858  14.113  21.680  0.00  0.00    +0.000 C 
ATOM     12  C   UNL     1       0.055  15.069  22.466  0.00  0.00    +0.000 C 
ATOM     13  O   UNL     1      -0.682  15.746  23.501  0.00  0.00    +0.000 OA
ATOM     14  C   UNL     1      -1.268  14.803  24.415  0.00  0.00    +0.000 C 
ATOM     15  C   UNL     1      -2.218  13.849  23.685  0.00  0.00    +0.000 C 
ENDBRANCH   3   8
BRANCH   7  16
ATOM     16  N   UNL     1       1.703   9.115  18.689  0.00  0.00    +0.000 N 
ATOM     17  C   UNL     1       2.333   7.865  18.676  0.00  0.00    +0.000 A 
ATOM     18  N   UNL     1       3.082   7.554  17.618  0.00  0.00    +0.000 NA
ATOM     19  C   UNL     1       3.690   6.350  17.650  0.00  0.00    +0.000 A 
ATOM     20  C   UNL     1       3.623   5.451  18.702  0.00  0.00    +0.000 A 
ATOM     21  C   UNL     1       2.820   5.834  19.743  0.00  0.00    +0.000 A 
ATOM     22  N   UNL     1       2.193   7.028  19.721  0.00  0.00    +0.000 NA
ATOM     23  H   UNL     1       2.134   9.773  18.054  0.00  0.00    +0.000 HD
BRANCH  20  24
ATOM     24  C   UNL     1       4.399   4.190  18.630  0.00  0.00    +0.000 C 
ATOM     25  F   UNL     1       3.611   3.079  18.517  0.00  0.00    +0.000 F 
ATOM     26  F   UNL     1       5.217   4.141  17.538  0.00  0.00    +0.000 F 
ATOM     27  F   UNL     1       5.191   3.951  19.711  0.00  0.00    +0.000 F 
ENDBRANCH  20  24
BRANCH  21  28
ATOM     28  N   UNL     1       2.435   5.088  20.834  0.00  0.00    +0.000 N 
ATOM     29  C   UNL     1       1.425   4.050  20.824  0.00  0.00    +0.000 C 
ATOM     30  H   UNL     1       3.307   4.752  21.247  0.00  0.00    +0.000 HD
ENDBRANCH  21  28
ENDBRANCH   7  16
BRANCH   1  31
ATOM     31  O   UNL     1      -0.714  10.351  17.960  0.00  0.00    +0.000 OA
BRANCH  31  33
ATOM     32  C   UNL     1      -2.444   9.917  16.301  0.00  0.00    +0.000 C 
ATOM     33  C   UNL     1      -2.133  10.235  17.753  0.00  0.00    +0.000 C 
ENDBRANCH  31  33
ENDBRANCH   1  31
TORSDOF 6
ENDMDL
MODEL 6
REMARK VINA RESULT:      -7.5      2.630      4.099
REMARK  Name = 
REMARK  8 active torsions:
REMARK  status: ('A' for Active; 'I' for Inactive)
REMARK    1  A    between atoms: C_1  and  C_2
REMARK    2  A    between atoms: C_2  and  O_3
REMARK    3  A    between atoms: O_3  and  C_4
REMARK    4  A    between atoms: C_6  and  C_7
REMARK    5  A    between atoms: C_18  and  N_19
REMARK    6  A    between atoms: C_23  and  C_24
REMARK    7  A    between atoms: C_28  and  N_29
REMARK    8  A    between atoms: N_29  and  C_30
REMARK                            x       y       z     vdW  Elec       q    Type
REMARK                         _______ _______ _______ _____ _____    ______ ____
ROOT
ATOM      1  C   UNL     1       1.276   8.157  20.258  0.00  0.00    +0.000 A 
ATOM      2  C   UNL     1       2.185   7.130  19.934  0.00  0.00    +0.000 A 
ATOM      3  C   UNL     1       2.867   7.135  18.708  0.00  0.00    +0.000 A 
ATOM      4  C   UNL     1       2.574   8.121  17.788  0.00  0.00    +0.000 A 
ATOM      5  F   UNL     1       3.068   8.089  16.544  0.00  0.00    +0.000 F 
ATOM      6  C   UNL     1       1.766   9.193  18.135  0.00  0.00    +0.000 A 
ATOM      7  C   UNL     1       1.141   9.262  19.392  0.00  0.00    +0.000 A 
ENDROOT
BRANCH   3   8
ATOM      8  C   UNL     1       3.775   6.002  18.418  0.00  0.00    +0.000 C 
ATOM      9  O   UNL     1       4.976   6.222  18.583  0.00  0.00    +0.000 OA
ATOM     10  N   UNL     1       3.300   4.780  17.961  0.00  0.00    +0.000 N 
ATOM     11  C   UNL     1       1.925   4.384  17.624  0.00  0.00    +0.000 C 
ATOM     12  C   UNL     1       1.517   3.164  18.466  0.00  0.00    +0.000 C 
ATOM     13  O   UNL     1       2.446   2.080  18.284  0.00  0.00    +0.000 OA
ATOM     14  C   UNL     1       3.778   2.479  18.654  0.00  0.00    +0.000 C 
ATOM     15  C   UNL     1       4.248   3.671  17.815  0.00  0.00    +0.000 C 
ENDBRANCH   3   8
BRANCH   7  16
ATOM     16  N   UNL     1       0.459  10.432  19.776  0.00  0.00    +0.000 N 
ATOM     17  C   UNL     1      -0.841  10.834  19.445  0.00  0.00    +0.000 A 
ATOM     18  N   UNL     1      -1.302  11.961  19.987  0.00  0.00    +0.000 NA
ATOM     19  C   UNL     1      -2.551  12.328  19.628  0.00  0.00    +0.000 A 
ATOM     20  C   UNL     1      -3.352  11.649  18.726  0.00  0.00    +0.000 A 
ATOM     21  C   UNL     1      -2.815  10.492  18.227  0.00  0.00    +0.000 A 
ATOM     22  N   UNL     1      -1.574  10.103  18.585  0.00  0.00    +0.000 NA
ATOM     23  H   UNL     1       1.022  11.193  20.132  0.00  0.00    +0.000 HD
BRANCH  20  24
ATOM     24  C   UNL     1      -4.681  12.205  18.372  0.00  0.00    +0.000 C 
ATOM     25  F   UNL     1      -5.717  11.382  18.716  0.00  0.00    +0.000 F 
ATOM     26  F   UNL     1      -4.946  13.377  19.020  0.00  0.00    +0.000 F 
ATOM     27  F   UNL     1      -4.855  12.455  17.046  0.00  0.00    +0.000 F 
ENDBRANCH  20  24
BRANCH  21  28
ATOM     28  N   UNL     1      -3.433   9.538  17.451  0.00  0.00    +0.000 N 
ATOM     29  C   UNL     1      -3.466   9.529  16.004  0.00  0.00    +0.000 C 
ATOM     30  H   UNL     1      -3.107   8.643  17.819  0.00  0.00    +0.000 HD
ENDBRANCH  21  28
ENDBRANCH   7  16
BRANCH   1  31
ATOM     31  O   UNL     1       0.498   8.136  21.398  0.00  0.00    +0.000 OA
BRANCH  31  33
ATOM     32  C   UNL     1      -0.154   9.633  23.207  0.00  0.00    +0.000 C 
ATOM     33  C   UNL     1       0.990   8.954  22.475  0.00  0.00    +0.000 C 
ENDBRANCH  31  33
ENDBRANCH   1  31
TORSDOF 6
ENDMDL
MODEL 7
REMARK VINA RESULT:      -7.4      2.637      4.200
REMARK  Name = 
REMARK  8 active torsions:
REMARK  status: ('A' for Active; 'I' for Inactive)
REMARK    1  A    between atoms: C_1  and  C_2
REMARK    2  A    between atoms: C_2  and  O_3
REMARK    3  A    between atoms: O_3  and  C_4
REMARK    4  A    between atoms: C_6  and  C_7
REMARK    5  A    between atoms: C_18  and  N_19
REMARK    6  A    between atoms: C_23  and  C_24
REMARK    7  A    between atoms: C_28  and  N_29
REMARK    8  A    between atoms: N_29  and  C_30
REMARK                            x       y       z     vdW  Elec       q    Type
REMARK                         _______ _______ _______ _____ _____    ______ ____
ROOT
ATOM      1  C   UNL     1       1.882   9.283  18.180  0.00  0.00    +0.000 A 
ATOM      2  C   UNL     1       2.501   8.126  17.667  0.00  0.00    +0.000 A 
ATOM      3  C   UNL     1       2.628   6.970  18.452  0.00  0.00    +0.000 A 
ATOM      4  C   UNL     1       2.206   7.010  19.765  0.00  0.00    +0.000 A 
ATOM      5  F   UNL     1       2.445   5.999  20.609  0.00  0.00    +0.000 F 
ATOM      6  C   UNL     1       1.499   8.101  20.248  0.00  0.00    +0.000 A 
ATOM      7  C   UNL     1       1.277   9.239  19.454  0.00  0.00    +0.000 A 
ENDROOT
BRANCH   3   8
ATOM      8  C   UNL     1       3.327   5.807  17.861  0.00  0.00    +0.000 C 
ATOM      9  O   UNL     1       2.604   4.886  17.478  0.00  0.00    +0.000 OA
ATOM     10  N   UNL     1       4.711   5.750  17.774  0.00  0.00    +0.000 N 
ATOM     11  C   UNL     1       5.715   6.709  18.262  0.00  0.00    +0.000 C 
ATOM     12  C   UNL     1       6.598   7.174  17.093  0.00  0.00    +0.000 C 
ATOM     13  O   UNL     1       7.208   6.050  16.432  0.00  0.00    +0.000 OA
ATOM     14  C   UNL     1       6.208   5.145  15.931  0.00  0.00    +0.000 C 
ATOM     15  C   UNL     1       5.323   4.622  17.066  0.00  0.00    +0.000 C 
ENDBRANCH   3   8
BRANCH   7  16
ATOM     16  N   UNL     1       0.424  10.261  19.910  0.00  0.00    +0.000 N 
ATOM     17  C   UNL     1      -0.849  10.610  19.443  0.00  0.00    +0.000 A 
ATOM     18  N   UNL     1      -1.503  11.581  20.081  0.00  0.00    +0.000 NA
ATOM     19  C   UNL     1      -2.718  11.905  19.590  0.00  0.00    +0.000 A 
ATOM     20  C   UNL     1      -3.301  11.336  18.470  0.00  0.00    +0.000 A 
ATOM     21  C   UNL     1      -2.576  10.334  17.882  0.00  0.00    +0.000 A 
ATOM     22  N   UNL     1      -1.366   9.989  18.368  0.00  0.00    +0.000 NA
ATOM     23  H   UNL     1       0.844  10.989  20.472  0.00  0.00    +0.000 HD
BRANCH  20  24
ATOM     24  C   UNL     1      -4.616  11.838  18.002  0.00  0.00    +0.000 C 
ATOM     25  F   UNL     1      -4.605  12.238  16.695  0.00  0.00    +0.000 F 
ATOM     26  F   UNL     1      -5.590  10.883  18.060  0.00  0.00    +0.000 F 
ATOM     27  F   UNL     1      -5.092  12.909  18.694  0.00  0.00    +0.000 F 
ENDBRANCH  20  24
BRANCH  21  28
ATOM     28  N   UNL     1      -2.969   9.488  16.869  0.00  0.00    +0.000 N 
ATOM     29  C   UNL     1      -2.785   9.735  15.455  0.00  0.00    +0.000 C 
ATOM     30  H   UNL     1      -2.610   8.570  17.135  0.00  0.00    +0.000 HD
ENDBRANCH  21  28
ENDBRANCH   7  16
BRANCH   1  31
ATOM     31  O   UNL     1       1.836  10.478  17.489  0.00  0.00    +0.000 OA
BRANCH  31  33
ATOM     32  C   UNL     1       2.135  12.780  18.225  0.00  0.00    +0.000 C 
ATOM     33  C   UNL     1       2.804  11.453  17.913  0.00  0.00    +0.000 C 
ENDBRANCH  31  33
ENDBRANCH   1  31
TORSDOF 6
ENDMDL
MODEL 8
REMARK VINA RESULT:      -7.3      3.770      9.575
REMARK  Name = 
REMARK  8 active torsions:
REMARK  status: ('A' for Active; 'I' for Inactive)
REMARK    1  A    between atoms: C_1  and  C_2
REMARK    2  A    between atoms: C_2  and  O_3
REMARK    3  A    between atoms: O_3  and  C_4
REMARK    4  A    between atoms: C_6  and  C_7
REMARK    5  A    between atoms: C_18  and  N_19
REMARK    6  A    between atoms: C_23  and  C_24
REMARK    7  A    between atoms: C_28  and  N_29
REMARK    8  A    between atoms: N_29  and  C_30
REMARK                            x       y       z     vdW  Elec       q    Type
REMARK                         _______ _______ _______ _____ _____    ______ ____
ROOT
ATOM      1  C   UNL     1      -0.874  10.581  18.328  0.00  0.00    +0.000 A 
ATOM      2  C   UNL     1      -1.758  11.422  19.033  0.00  0.00    +0.000 A 
ATOM      3  C   UNL     1      -1.324  12.143  20.155  0.00  0.00    +0.000 A 
ATOM      4  C   UNL     1      -0.034  11.954  20.607  0.00  0.00    +0.000 A 
ATOM      5  F   UNL     1       0.390  12.486  21.760  0.00  0.00    +0.000 F 
ATOM      6  C   UNL     1       0.875  11.216  19.863  0.00  0.00    +0.000 A 
ATOM      7  C   UNL     1       0.491  10.557  18.683  0.00  0.00    +0.000 A 
ENDROOT
BRANCH   3   8
ATOM      8  C   UNL     1      -2.319  12.974  20.870  0.00  0.00    +0.000 C 
ATOM      9  O   UNL     1      -3.235  12.360  21.418  0.00  0.00    +0.000 OA
ATOM     10  N   UNL     1      -2.236  14.360  20.892  0.00  0.00    +0.000 N 
ATOM     11  C   UNL     1      -1.273  15.246  20.220  0.00  0.00    +0.000 C 
ATOM     12  C   UNL     1      -0.562  16.124  21.263  0.00  0.00    +0.000 C 
ATOM     13  O   UNL     1      -1.516  16.865  22.045  0.00  0.00    +0.000 OA
ATOM     14  C   UNL     1      -2.424  15.978  22.722  0.00  0.00    +0.000 C 
ATOM     15  C   UNL     1      -3.187  15.105  21.722  0.00  0.00    +0.000 C 
ENDBRANCH   3   8
BRANCH   7  16
ATOM     16  N   UNL     1       1.463   9.951  17.866  0.00  0.00    +0.000 N 
ATOM     17  C   UNL     1       2.143   8.743  18.066  0.00  0.00    +0.000 A 
ATOM     18  N   UNL     1       2.979   8.333  17.113  0.00  0.00    +0.000 NA
ATOM     19  C   UNL     1       3.632   7.175  17.350  0.00  0.00    +0.000 A 
ATOM     20  C   UNL     1       3.523   6.422  18.506  0.00  0.00    +0.000 A 
ATOM     21  C   UNL     1       2.630   6.899  19.429  0.00  0.00    +0.000 A 
ATOM     22  N   UNL     1       1.960   8.047  19.203  0.00  0.00    +0.000 NA
ATOM     23  H   UNL     1       1.913  10.540  17.178  0.00  0.00    +0.000 HD
BRANCH  20  24
ATOM     24  C   UNL     1       4.353   5.202  18.660  0.00  0.00    +0.000 C 
ATOM     25  F   UNL     1       5.225   5.011  17.625  0.00  0.00    +0.000 F 
ATOM     26  F   UNL     1       5.146   5.247  19.771  0.00  0.00    +0.000 F 
ATOM     27  F   UNL     1       3.645   4.043  18.743  0.00  0.00    +0.000 F 
ENDBRANCH  20  24
BRANCH  21  28
ATOM     28  N   UNL     1       2.196   6.285  20.583  0.00  0.00    +0.000 N 
ATOM     29  C   UNL     1       1.337   5.122  20.639  0.00  0.00    +0.000 C 
ATOM     30  H   UNL     1       3.038   6.151  21.146  0.00  0.00    +0.000 HD
ENDBRANCH  21  28
ENDBRANCH   7  16
BRANCH   1  31
ATOM     31  O   UNL     1      -1.282   9.766  17.291  0.00  0.00    +0.000 OA
BRANCH  31  33
ATOM     32  C   UNL     1      -2.787  10.512  15.527  0.00  0.00    +0.000 C 
ATOM     33  C   UNL     1      -2.663   9.916  16.918  0.00  0.00    +0.000 C 
ENDBRANCH  31  33
ENDBRANCH   1  31
TORSDOF 6
ENDMDL
MODEL 9
REMARK VINA RESULT:      -7.2      3.838      9.763
REMARK  Name = 
REMARK  8 active torsions:
REMARK  status: ('A' for Active; 'I' for Inactive)
REMARK    1  A    between atoms: C_1  and  C_2
REMARK    2  A    between atoms: C_2  and  O_3
REMARK    3  A    between atoms: O_3  and  C_4
REMARK    4  A    between atoms: C_6  and  C_7
REMARK    5  A    between atoms: C_18  and  N_19
REMARK    6  A    between atoms: C_23  and  C_24
REMARK    7  A    between atoms: C_28  and  N_29
REMARK    8  A    between atoms: N_29  and  C_30
REMARK                            x       y       z     vdW  Elec       q    Type
REMARK                         _______ _______ _______ _____ _____    ______ ____
ROOT
ATOM      1  C   UNL     1      -1.233  11.392  19.189  0.00  0.00    +0.000 A 
ATOM      2  C   UNL     1      -1.996  12.043  20.179  0.00  0.00    +0.000 A 
ATOM      3  C   UNL     1      -1.633  11.969  21.532  0.00  0.00    +0.000 A 
ATOM      4  C   UNL     1      -0.558  11.181  21.889  0.00  0.00    +0.000 A 
ATOM      5  F   UNL     1      -0.260  10.940  23.171  0.00  0.00    +0.000 F 
ATOM      6  C   UNL     1       0.263  10.624  20.919  0.00  0.00    +0.000 A 
ATOM      7  C   UNL     1      -0.024  10.759  19.550  0.00  0.00    +0.000 A 
ENDROOT
BRANCH   3   8
ATOM      8  C   UNL     1      -2.505  12.644  22.519  0.00  0.00    +0.000 C 
ATOM      9  O   UNL     1      -3.413  11.958  22.989  0.00  0.00    +0.000 OA
ATOM     10  N   UNL     1      -2.325  13.976  22.866  0.00  0.00    +0.000 N 
ATOM     11  C   UNL     1      -1.363  14.955  22.337  0.00  0.00    +0.000 C 
ATOM     12  C   UNL     1      -0.509  15.514  23.487  0.00  0.00    +0.000 C 
ATOM     13  O   UNL     1      -1.341  16.084  24.514  0.00  0.00    +0.000 OA
ATOM     14  C   UNL     1      -2.249  15.101  25.042  0.00  0.00    +0.000 C 
ATOM     15  C   UNL     1      -3.151  14.538  23.940  0.00  0.00    +0.000 C 
ENDBRANCH   3   8
BRANCH   7  16
ATOM     16  N   UNL     1       0.906  10.324  18.588  0.00  0.00    +0.000 N 
ATOM     17  C   UNL     1       1.655   9.142  18.570  0.00  0.00    +0.000 A 
ATOM     18  N   UNL     1       2.431   8.911  17.511  0.00  0.00    +0.000 NA
ATOM     19  C   UNL     1       3.154   7.771  17.538  0.00  0.00    +0.000 A 
ATOM     20  C   UNL     1       3.174   6.866  18.584  0.00  0.00    +0.000 A 
ATOM     21  C   UNL     1       2.337   7.163  19.627  0.00  0.00    +0.000 A 
ATOM     22  N   UNL     1       1.598   8.291  19.611  0.00  0.00    +0.000 NA
ATOM     23  H   UNL     1       1.271  11.024  17.957  0.00  0.00    +0.000 HD
BRANCH  20  24
ATOM     24  C   UNL     1       4.070   5.686  18.508  0.00  0.00    +0.000 C 
ATOM     25  F   UNL     1       4.778   5.473  19.657  0.00  0.00    +0.000 F 
ATOM     26  F   UNL     1       3.386   4.522  18.307  0.00  0.00    +0.000 F 
ATOM     27  F   UNL     1       5.008   5.752  17.524  0.00  0.00    +0.000 F 
ENDBRANCH  20  24
BRANCH  21  28
ATOM     28  N   UNL     1       2.028   6.377  20.714  0.00  0.00    +0.000 N 
ATOM     29  C   UNL     1       1.319   5.116  20.660  0.00  0.00    +0.000 C 
ATOM     30  H   UNL     1       2.901   6.289  21.237  0.00  0.00    +0.000 HD
ENDBRANCH  21  28
ENDBRANCH   7  16
BRANCH   1  31
ATOM     31  O   UNL     1      -1.613  11.340  17.863  0.00  0.00    +0.000 OA
BRANCH  31  33
ATOM     32  C   UNL     1      -2.924  10.327  16.077  0.00  0.00    +0.000 C 
ATOM     33  C   UNL     1      -2.542  10.288  17.546  0.00  0.00    +0.000 C 
ENDBRANCH  31  33
ENDBRANCH   1  31
TORSDOF 6
ENDMDL
