MODEL 1
REMARK VINA RESULT:      -7.8      0.000      0.000
REMARK  Name = 
REMARK  5 active torsions:
REMARK  status: ('A' for Active; 'I' for Inactive)
REMARK    1  A    between atoms: C_4  and  C_5
REMARK    2  A    between atoms: C_5  and  C_6
REMARK    3  A    between atoms: N_19  and  C_20
REMARK    4  A    between atoms: C_20  and  C_21
REMARK    5  A    between atoms: C_26  and  N_27
REMARK                            x       y       z     vdW  Elec       q    Type
REMARK                         _______ _______ _______ _____ _____    ______ ____
ROOT
ATOM      1  O   UNL     1       3.364   8.156  17.563  0.00  0.00    +0.000 OA
ATOM      2  C   UNL     1       2.682   7.265  18.075  0.00  0.00    +0.000 C 
ATOM      3  C   UNL     1       1.459   7.643  18.889  0.00  0.00    +0.000 C 
ATOM      4  C   UNL     1       1.728   7.675  20.394  0.00  0.00    +0.000 C 
ATOM      5  S   UNL     1       2.538   6.161  21.042  0.00  0.00    +0.000 S 
ATOM      6  C   UNL     1       1.903   4.919  19.927  0.00  0.00    +0.000 A 
ATOM      7  C   UNL     1       1.178   3.877  20.525  0.00  0.00    +0.000 A 
ATOM      8  C   UNL     1       0.740   2.790  19.770  0.00  0.00    +0.000 A 
ATOM      9  C   UNL     1       1.037   2.730  18.415  0.00  0.00    +0.000 A 
ATOM     10  C   UNL     1       1.772   3.754  17.811  0.00  0.00    +0.000 A 
ATOM     11  C   UNL     1       2.214   4.865  18.548  0.00  0.00    +0.000 A 
ATOM     12  N   UNL     1       2.947   5.908  17.884  0.00  0.00    +0.000 N 
ENDROOT
BRANCH   4  13
ATOM     13  C   UNL     1       0.417   7.955  21.157  0.00  0.00    +0.000 C 
BRANCH  13  14
ATOM     14  C   UNL     1       0.131   9.404  21.496  0.00  0.00    +0.000 A 
ATOM     15  C   UNL     1       0.575  10.446  20.671  0.00  0.00    +0.000 A 
ATOM     16  C   UNL     1       0.281  11.775  20.987  0.00  0.00    +0.000 A 
ATOM     17  C   UNL     1      -0.466  12.077  22.123  0.00  0.00    +0.000 A 
ATOM     18  C   UNL     1      -0.912  11.051  22.953  0.00  0.00    +0.000 A 
ATOM     19  C   UNL     1      -0.613   9.722  22.642  0.00  0.00    +0.000 A 
ENDBRANCH  13  14
ENDBRANCH   4  13
BRANCH  12  20
ATOM     20  C   UNL     1       4.028   5.539  16.944  0.00  0.00    +0.000 C 
BRANCH  20  21
ATOM     21  C   UNL     1       5.420   5.353  17.547  0.00  0.00    +0.000 A 
ATOM     22  C   UNL     1       5.655   5.683  18.897  0.00  0.00    +0.000 A 
ATOM     23  C   UNL     1       6.890   5.472  19.517  0.00  0.00    +0.000 A 
ATOM     24  C   UNL     1       7.952   4.954  18.793  0.00  0.00    +0.000 A 
ATOM     25  C   UNL     1       7.781   4.670  17.441  0.00  0.00    +0.000 A 
ATOM     26  C   UNL     1       6.532   4.872  16.811  0.00  0.00    +0.000 A 
BRANCH  26  27
ATOM     27  N   UNL     1       6.474   4.573  15.362  0.00  0.00    +0.000 N 
ATOM     28  O   UNL     1       6.036   3.477  14.994  0.00  0.00    +0.000 OA
ATOM     29  O   UNL     1       6.870   5.449  14.578  0.00  0.00    +0.000 OA
ENDBRANCH  26  27
ENDBRANCH  20  21
ENDBRANCH  12  20
TORSDOF 5
ENDMDL
MODEL 2
REMARK VINA RESULT:      -7.7      1.468      1.650
REMARK  Name = 
REMARK  5 active torsions:
REMARK  status: ('A' for Active; 'I' for Inactive)
REMARK    1  A    between atoms: C_4  and  C_5
REMARK    2  A    between atoms: C_5  and  C_6
REMARK    3  A    between atoms: N_19  and  C_20
REMARK    4  A    between atoms: C_20  and  C_21
REMARK    5  A    between atoms: C_26  and  N_27
REMARK                            x       y       z     vdW  Elec       q    Type
REMARK                         _______ _______ _______ _____ _____    ______ ____
ROOT
ATOM      1  O   UNL     1       3.182   8.782  17.577  0.00  0.00    +0.000 OA
ATOM      2  C   UNL     1       2.554   7.840  18.069  0.00  0.00    +0.000 C 
ATOM      3  C   UNL     1       1.304   8.125  18.878  0.00  0.00    +0.000 C 
ATOM      4  C   UNL     1       1.559   8.150  20.386  0.00  0.00    +0.000 C 
ATOM      5  S   UNL     1       2.459   6.680  21.016  0.00  0.00    +0.000 S 
ATOM      6  C   UNL     1       1.914   5.419  19.875  0.00  0.00    +0.000 A 
ATOM      7  C   UNL     1       1.252   4.322  20.451  0.00  0.00    +0.000 A 
ATOM      8  C   UNL     1       0.891   3.223  19.675  0.00  0.00    +0.000 A 
ATOM      9  C   UNL     1       1.202   3.204  18.322  0.00  0.00    +0.000 A 
ATOM     10  C   UNL     1       1.873   4.283  17.741  0.00  0.00    +0.000 A 
ATOM     11  C   UNL     1       2.238   5.408  18.499  0.00  0.00    +0.000 A 
ATOM     12  N   UNL     1       2.907   6.506  17.858  0.00  0.00    +0.000 N 
ENDROOT
BRANCH   4  13
ATOM     13  C   UNL     1       0.227   8.333  21.142  0.00  0.00    +0.000 C 
BRANCH  13  14
ATOM     14  C   UNL     1      -0.120   9.746  21.565  0.00  0.00    +0.000 A 
ATOM     15  C   UNL     1       0.172  10.843  20.744  0.00  0.00    +0.000 A 
ATOM     16  C   UNL     1      -0.177  12.137  21.140  0.00  0.00    +0.000 A 
ATOM     17  C   UNL     1      -0.826  12.348  22.355  0.00  0.00    +0.000 A 
ATOM     18  C   UNL     1      -1.119  11.266  23.181  0.00  0.00    +0.000 A 
ATOM     19  C   UNL     1      -0.766   9.973  22.790  0.00  0.00    +0.000 A 
ENDBRANCH  13  14
ENDBRANCH   4  13
BRANCH  12  20
ATOM     20  C   UNL     1       4.017   6.223  16.921  0.00  0.00    +0.000 C 
BRANCH  20  21
ATOM     21  C   UNL     1       5.428   6.261  17.507  0.00  0.00    +0.000 A 
ATOM     22  C   UNL     1       6.255   7.382  17.289  0.00  0.00    +0.000 A 
ATOM     23  C   UNL     1       7.528   7.497  17.854  0.00  0.00    +0.000 A 
ATOM     24  C   UNL     1       8.038   6.471  18.634  0.00  0.00    +0.000 A 
ATOM     25  C   UNL     1       7.279   5.319  18.827  0.00  0.00    +0.000 A 
ATOM     26  C   UNL     1       5.987   5.201  18.266  0.00  0.00    +0.000 A 
BRANCH  26  27
ATOM     27  N   UNL     1       5.285   3.919  18.502  0.00  0.00    +0.000 N 
ATOM     28  O   UNL     1       4.947   3.235  17.529  0.00  0.00    +0.000 OA
ATOM     29  O   UNL     1       5.069   3.590  19.678  0.00  0.00    +0.000 OA
ENDBRANCH  26  27
ENDBRANCH  20  21
ENDBRANCH  12  20
TORSDOF 5
ENDMDL
MODEL 3
REMARK VINA RESULT:      -7.6      1.473      1.877
REMARK  Name = 
REMARK  5 active torsions:
REMARK  status: ('A' for Active; 'I' for Inactive)
REMARK    1  A    between atoms: C_4  and  C_5
REMARK    2  A    between atoms: C_5  and  C_6
REMARK    3  A    between atoms: N_19  and  C_20
REMARK    4  A    between atoms: C_20  and  C_21
REMARK    5  A    between atoms: C_26  and  N_27
REMARK                            x       y       z     vdW  Elec       q    Type
REMARK                         _______ _______ _______ _____ _____    ______ ____
ROOT
ATOM      1  O   UNL     1       3.204   8.793  17.566  0.00  0.00    +0.000 OA
ATOM      2  C   UNL     1       2.576   7.847  18.048  0.00  0.00    +0.000 C 
ATOM      3  C   UNL     1       1.315   8.123  18.845  0.00  0.00    +0.000 C 
ATOM      4  C   UNL     1       1.555   8.144  20.356  0.00  0.00    +0.000 C 
ATOM      5  S   UNL     1       2.456   6.676  20.990  0.00  0.00    +0.000 S 
ATOM      6  C   UNL     1       1.929   5.416  19.840  0.00  0.00    +0.000 A 
ATOM      7  C   UNL     1       1.267   4.314  20.405  0.00  0.00    +0.000 A 
ATOM      8  C   UNL     1       0.919   3.216  19.622  0.00  0.00    +0.000 A 
ATOM      9  C   UNL     1       1.244   3.203  18.272  0.00  0.00    +0.000 A 
ATOM     10  C   UNL     1       1.916   4.287  17.701  0.00  0.00    +0.000 A 
ATOM     11  C   UNL     1       2.267   5.411  18.467  0.00  0.00    +0.000 A 
ATOM     12  N   UNL     1       2.938   6.515  17.836  0.00  0.00    +0.000 N 
ENDROOT
BRANCH   4  13
ATOM     13  C   UNL     1       0.214   8.317  21.098  0.00  0.00    +0.000 C 
BRANCH  13  14
ATOM     14  C   UNL     1      -0.144   9.727  21.522  0.00  0.00    +0.000 A 
ATOM     15  C   UNL     1      -0.762   9.983  22.753  0.00  0.00    +0.000 A 
ATOM     16  C   UNL     1      -1.062  11.292  23.138  0.00  0.00    +0.000 A 
ATOM     17  C   UNL     1      -0.744  12.359  22.302  0.00  0.00    +0.000 A 
ATOM     18  C   UNL     1      -0.132  12.119  21.074  0.00  0.00    +0.000 A 
ATOM     19  C   UNL     1       0.164  10.811  20.685  0.00  0.00    +0.000 A 
ENDBRANCH  13  14
ENDBRANCH   4  13
BRANCH  12  20
ATOM     20  C   UNL     1       4.059   6.241  16.911  0.00  0.00    +0.000 C 
BRANCH  20  21
ATOM     21  C   UNL     1       5.464   6.291  17.510  0.00  0.00    +0.000 A 
ATOM     22  C   UNL     1       6.287   7.415  17.289  0.00  0.00    +0.000 A 
ATOM     23  C   UNL     1       7.553   7.541  17.866  0.00  0.00    +0.000 A 
ATOM     24  C   UNL     1       8.062   6.525  18.660  0.00  0.00    +0.000 A 
ATOM     25  C   UNL     1       7.307   5.371  18.855  0.00  0.00    +0.000 A 
ATOM     26  C   UNL     1       6.021   5.241  18.283  0.00  0.00    +0.000 A 
BRANCH  26  27
ATOM     27  N   UNL     1       5.323   3.957  18.523  0.00  0.00    +0.000 N 
ATOM     28  O   UNL     1       5.075   3.620  19.686  0.00  0.00    +0.000 OA
ATOM     29  O   UNL     1       5.018   3.275  17.533  0.00  0.00    +0.000 OA
ENDBRANCH  26  27
ENDBRANCH  20  21
ENDBRANCH  12  20
TORSDOF 5
ENDMDL
MODEL 4
REMARK VINA RESULT:      -7.5      1.763      2.417
REMARK  Name = 
REMARK  5 active torsions:
REMARK  status: ('A' for Active; 'I' for Inactive)
REMARK    1  A    between atoms: C_4  and  C_5
REMARK    2  A    between atoms: C_5  and  C_6
REMARK    3  A    between atoms: N_19  and  C_20
REMARK    4  A    between atoms: C_20  and  C_21
REMARK    5  A    between atoms: C_26  and  N_27
REMARK                            x       y       z     vdW  Elec       q    Type
REMARK                         _______ _______ _______ _____ _____    ______ ____
ROOT
ATOM      1  O   UNL     1       4.849   6.856  17.545  0.00  0.00    +0.000 OA
ATOM      2  C   UNL     1       3.824   6.287  17.929  0.00  0.00    +0.000 C 
ATOM      3  C   UNL     1       2.534   7.078  18.038  0.00  0.00    +0.000 C 
ATOM      4  C   UNL     1       2.250   7.569  19.459  0.00  0.00    +0.000 C 
ATOM      5  S   UNL     1       2.357   6.258  20.738  0.00  0.00    +0.000 S 
ATOM      6  C   UNL     1       1.861   4.817  19.807  0.00  0.00    +0.000 A 
ATOM      7  C   UNL     1       0.727   4.142  20.286  0.00  0.00    +0.000 A 
ATOM      8  C   UNL     1       0.320   2.939  19.714  0.00  0.00    +0.000 A 
ATOM      9  C   UNL     1       1.052   2.394  18.668  0.00  0.00    +0.000 A 
ATOM     10  C   UNL     1       2.191   3.048  18.191  0.00  0.00    +0.000 A 
ATOM     11  C   UNL     1       2.615   4.268  18.744  0.00  0.00    +0.000 A 
ATOM     12  N   UNL     1       3.778   4.920  18.209  0.00  0.00    +0.000 N 
ENDROOT
BRANCH   4  13
ATOM     13  C   UNL     1       0.874   8.264  19.510  0.00  0.00    +0.000 C 
BRANCH  13  14
ATOM     14  C   UNL     1       0.885   9.769  19.684  0.00  0.00    +0.000 A 
ATOM     15  C   UNL     1       1.327  10.617  18.660  0.00  0.00    +0.000 A 
ATOM     16  C   UNL     1       1.307  12.004  18.830  0.00  0.00    +0.000 A 
ATOM     17  C   UNL     1       0.840  12.559  20.019  0.00  0.00    +0.000 A 
ATOM     18  C   UNL     1       0.400  11.726  21.046  0.00  0.00    +0.000 A 
ATOM     19  C   UNL     1       0.425  10.340  20.880  0.00  0.00    +0.000 A 
ENDBRANCH  13  14
ENDBRANCH   4  13
BRANCH  12  20
ATOM     20  C   UNL     1       4.988   4.116  17.930  0.00  0.00    +0.000 C 
BRANCH  20  21
ATOM     21  C   UNL     1       5.596   4.264  16.536  0.00  0.00    +0.000 A 
ATOM     22  C   UNL     1       4.837   3.936  15.394  0.00  0.00    +0.000 A 
ATOM     23  C   UNL     1       5.320   4.113  14.095  0.00  0.00    +0.000 A 
ATOM     24  C   UNL     1       6.603   4.594  13.889  0.00  0.00    +0.000 A 
ATOM     25  C   UNL     1       7.410   4.875  14.989  0.00  0.00    +0.000 A 
ATOM     26  C   UNL     1       6.924   4.707  16.305  0.00  0.00    +0.000 A 
BRANCH  26  27
ATOM     27  N   UNL     1       7.879   4.998  17.399  0.00  0.00    +0.000 N 
ATOM     28  O   UNL     1       8.546   4.072  17.873  0.00  0.00    +0.000 OA
ATOM     29  O   UNL     1       7.965   6.172  17.790  0.00  0.00    +0.000 OA
ENDBRANCH  26  27
ENDBRANCH  20  21
ENDBRANCH  12  20
TORSDOF 5
ENDMDL
MODEL 5
REMARK VINA RESULT:      -7.5      1.645      2.308
REMARK  Name = 
REMARK  5 active torsions:
REMARK  status: ('A' for Active; 'I' for Inactive)
REMARK    1  A    between atoms: C_4  and  C_5
REMARK    2  A    between atoms: C_5  and  C_6
REMARK    3  A    between atoms: N_19  and  C_20
REMARK    4  A    between atoms: C_20  and  C_21
REMARK    5  A    between atoms: C_26  and  N_27
REMARK                            x       y       z     vdW  Elec       q    Type
REMARK                         _______ _______ _______ _____ _____    ______ ____
ROOT
ATOM      1  O   UNL     1       4.770   6.978  17.422  0.00  0.00    +0.000 OA
ATOM      2  C   UNL     1       3.756   6.412  17.835  0.00  0.00    +0.000 C 
ATOM      3  C   UNL     1       2.445   7.174  17.876  0.00  0.00    +0.000 C 
ATOM      4  C   UNL     1       2.133   7.754  19.257  0.00  0.00    +0.000 C 
ATOM      5  S   UNL     1       2.259   6.537  20.625  0.00  0.00    +0.000 S 
ATOM      6  C   UNL     1       1.810   5.024  19.791  0.00  0.00    +0.000 A 
ATOM      7  C   UNL     1       0.688   4.354  20.306  0.00  0.00    +0.000 A 
ATOM      8  C   UNL     1       0.318   3.105  19.814  0.00  0.00    +0.000 A 
ATOM      9  C   UNL     1       1.076   2.507  18.815  0.00  0.00    +0.000 A 
ATOM     10  C   UNL     1       2.203   3.157  18.305  0.00  0.00    +0.000 A 
ATOM     11  C   UNL     1       2.589   4.423  18.776  0.00  0.00    +0.000 A 
ATOM     12  N   UNL     1       3.742   5.066  18.209  0.00  0.00    +0.000 N 
ENDROOT
BRANCH   4  13
ATOM     13  C   UNL     1       0.740   8.415  19.247  0.00  0.00    +0.000 C 
BRANCH  13  14
ATOM     14  C   UNL     1       0.371   9.230  20.471  0.00  0.00    +0.000 A 
ATOM     15  C   UNL     1       0.562  10.617  20.506  0.00  0.00    +0.000 A 
ATOM     16  C   UNL     1       0.193  11.355  21.634  0.00  0.00    +0.000 A 
ATOM     17  C   UNL     1      -0.376  10.717  22.734  0.00  0.00    +0.000 A 
ATOM     18  C   UNL     1      -0.569   9.338  22.712  0.00  0.00    +0.000 A 
ATOM     19  C   UNL     1      -0.195   8.598  21.589  0.00  0.00    +0.000 A 
ENDBRANCH  13  14
ENDBRANCH   4  13
BRANCH  12  20
ATOM     20  C   UNL     1       4.975   4.277  17.997  0.00  0.00    +0.000 C 
BRANCH  20  21
ATOM     21  C   UNL     1       5.617   4.376  16.614  0.00  0.00    +0.000 A 
ATOM     22  C   UNL     1       4.912   3.937  15.474  0.00  0.00    +0.000 A 
ATOM     23  C   UNL     1       5.424   4.064  14.180  0.00  0.00    +0.000 A 
ATOM     24  C   UNL     1       6.685   4.603  13.980  0.00  0.00    +0.000 A 
ATOM     25  C   UNL     1       7.441   4.994  15.083  0.00  0.00    +0.000 A 
ATOM     26  C   UNL     1       6.924   4.878  16.393  0.00  0.00    +0.000 A 
BRANCH  26  27
ATOM     27  N   UNL     1       7.828   5.287  17.493  0.00  0.00    +0.000 N 
ATOM     28  O   UNL     1       7.987   6.492  17.719  0.00  0.00    +0.000 OA
ATOM     29  O   UNL     1       8.387   4.390  18.142  0.00  0.00    +0.000 OA
ENDBRANCH  26  27
ENDBRANCH  20  21
ENDBRANCH  12  20
TORSDOF 5
ENDMDL
MODEL 6
REMARK VINA RESULT:      -7.5      0.714      1.045
REMARK  Name = 
REMARK  5 active torsions:
REMARK  status: ('A' for Active; 'I' for Inactive)
REMARK    1  A    between atoms: C_4  and  C_5
REMARK    2  A    between atoms: C_5  and  C_6
REMARK    3  A    between atoms: N_19  and  C_20
REMARK    4  A    between atoms: C_20  and  C_21
REMARK    5  A    between atoms: C_26  and  N_27
REMARK                            x       y       z     vdW  Elec       q    Type
REMARK                         _______ _______ _______ _____ _____    ______ ____
ROOT
ATOM      1  O   UNL     1       3.687   7.900  17.299  0.00  0.00    +0.000 OA
ATOM      2  C   UNL     1       2.919   7.109  17.851  0.00  0.00    +0.000 C 
ATOM      3  C   UNL     1       1.685   7.641  18.553  0.00  0.00    +0.000 C 
ATOM      4  C   UNL     1       1.878   7.802  20.062  0.00  0.00    +0.000 C 
ATOM      5  S   UNL     1       2.546   6.309  20.894  0.00  0.00    +0.000 S 
ATOM      6  C   UNL     1       1.885   5.008  19.865  0.00  0.00    +0.000 A 
ATOM      7  C   UNL     1       1.059   4.077  20.515  0.00  0.00    +0.000 A 
ATOM      8  C   UNL     1       0.586   2.954  19.841  0.00  0.00    +0.000 A 
ATOM      9  C   UNL     1       0.949   2.743  18.517  0.00  0.00    +0.000 A 
ATOM     10  C   UNL     1       1.783   3.654  17.864  0.00  0.00    +0.000 A 
ATOM     11  C   UNL     1       2.262   4.801  18.518  0.00  0.00    +0.000 A 
ATOM     12  N   UNL     1       3.099   5.725  17.803  0.00  0.00    +0.000 N 
ENDROOT
BRANCH   4  13
ATOM     13  C   UNL     1       0.551   8.239  20.718  0.00  0.00    +0.000 C 
BRANCH  13  14
ATOM     14  C   UNL     1       0.149   9.687  20.526  0.00  0.00    +0.000 A 
ATOM     15  C   UNL     1       0.658  10.699  21.349  0.00  0.00    +0.000 A 
ATOM     16  C   UNL     1       0.295  12.032  21.141  0.00  0.00    +0.000 A 
ATOM     17  C   UNL     1      -0.575  12.369  20.106  0.00  0.00    +0.000 A 
ATOM     18  C   UNL     1      -1.091  11.371  19.282  0.00  0.00    +0.000 A 
ATOM     19  C   UNL     1      -0.733  10.038  19.492  0.00  0.00    +0.000 A 
ENDBRANCH  13  14
ENDBRANCH   4  13
BRANCH  12  20
ATOM     20  C   UNL     1       4.200   5.198  16.966  0.00  0.00    +0.000 C 
BRANCH  20  21
ATOM     21  C   UNL     1       5.583   5.150  17.613  0.00  0.00    +0.000 A 
ATOM     22  C   UNL     1       5.742   5.500  18.970  0.00  0.00    +0.000 A 
ATOM     23  C   UNL     1       6.971   5.411  19.628  0.00  0.00    +0.000 A 
ATOM     24  C   UNL     1       8.102   5.002  18.939  0.00  0.00    +0.000 A 
ATOM     25  C   UNL     1       8.002   4.703  17.583  0.00  0.00    +0.000 A 
ATOM     26  C   UNL     1       6.760   4.781  16.913  0.00  0.00    +0.000 A 
BRANCH  26  27
ATOM     27  N   UNL     1       6.777   4.479  15.464  0.00  0.00    +0.000 N 
ATOM     28  O   UNL     1       6.175   3.480  15.054  0.00  0.00    +0.000 OA
ATOM     29  O   UNL     1       7.401   5.253  14.722  0.00  0.00    +0.000 OA
ENDBRANCH  26  27
ENDBRANCH  20  21
ENDBRANCH  12  20
TORSDOF 5
ENDMDL
MODEL 7
REMARK VINA RESULT:      -7.5      4.543      6.944
REMARK  Name = 
REMARK  5 active torsions:
REMARK  status: ('A' for Active; 'I' for Inactive)
REMARK    1  A    between atoms: C_4  and  C_5
REMARK    2  A    between atoms: C_5  and  C_6
REMARK    3  A    between atoms: N_19  and  C_20
REMARK    4  A    between atoms: C_20  and  C_21
REMARK    5  A    between atoms: C_26  and  N_27
REMARK                            x       y       z     vdW  Elec       q    Type
REMARK                         _______ _______ _______ _____ _____    ______ ____
ROOT
ATOM      1  O   UNL     1       6.783   5.130  20.269  0.00  0.00    +0.000 OA
ATOM      2  C   UNL     1       6.777   5.250  19.041  0.00  0.00    +0.000 C 
ATOM      3  C   UNL     1       7.705   6.258  18.391  0.00  0.00    +0.000 C 
ATOM      4  C   UNL     1       7.017   7.586  18.070  0.00  0.00    +0.000 C 
ATOM      5  S   UNL     1       5.444   7.409  17.142  0.00  0.00    +0.000 S 
ATOM      6  C   UNL     1       5.755   5.921  16.205  0.00  0.00    +0.000 A 
ATOM      7  C   UNL     1       5.688   6.055  14.809  0.00  0.00    +0.000 A 
ATOM      8  C   UNL     1       5.793   4.939  13.981  0.00  0.00    +0.000 A 
ATOM      9  C   UNL     1       5.950   3.679  14.543  0.00  0.00    +0.000 A 
ATOM     10  C   UNL     1       6.003   3.531  15.931  0.00  0.00    +0.000 A 
ATOM     11  C   UNL     1       5.912   4.642  16.787  0.00  0.00    +0.000 A 
ATOM     12  N   UNL     1       5.995   4.448  18.208  0.00  0.00    +0.000 N 
ENDROOT
BRANCH   4  13
ATOM     13  C   UNL     1       7.990   8.513  17.313  0.00  0.00    +0.000 C 
BRANCH  13  14
ATOM     14  C   UNL     1       8.486   9.731  18.067  0.00  0.00    +0.000 A 
ATOM     15  C   UNL     1       9.135   9.607  19.302  0.00  0.00    +0.000 A 
ATOM     16  C   UNL     1       9.607  10.739  19.971  0.00  0.00    +0.000 A 
ATOM     17  C   UNL     1       9.443  12.004  19.412  0.00  0.00    +0.000 A 
ATOM     18  C   UNL     1       8.796  12.141  18.186  0.00  0.00    +0.000 A 
ATOM     19  C   UNL     1       8.319  11.011  17.518  0.00  0.00    +0.000 A 
ENDBRANCH  13  14
ENDBRANCH   4  13
BRANCH  12  20
ATOM     20  C   UNL     1       5.228   3.346  18.829  0.00  0.00    +0.000 C 
BRANCH  20  21
ATOM     21  C   UNL     1       3.707   3.486  18.821  0.00  0.00    +0.000 A 
ATOM     22  C   UNL     1       3.060   4.105  17.731  0.00  0.00    +0.000 A 
ATOM     23  C   UNL     1       1.669   4.201  17.642  0.00  0.00    +0.000 A 
ATOM     24  C   UNL     1       0.869   3.712  18.663  0.00  0.00    +0.000 A 
ATOM     25  C   UNL     1       1.469   3.147  19.786  0.00  0.00    +0.000 A 
ATOM     26  C   UNL     1       2.875   3.037  19.878  0.00  0.00    +0.000 A 
BRANCH  26  27
ATOM     27  N   UNL     1       3.406   2.455  21.132  0.00  0.00    +0.000 N 
ATOM     28  O   UNL     1       2.721   2.522  22.159  0.00  0.00    +0.000 OA
ATOM     29  O   UNL     1       4.525   1.922  21.089  0.00  0.00    +0.000 OA
ENDBRANCH  26  27
ENDBRANCH  20  21
ENDBRANCH  12  20
TORSDOF 5
ENDMDL
MODEL 8
REMARK VINA RESULT:      -7.4      1.572      2.335
REMARK  Name = 
REMARK  5 active torsions:
REMARK  status: ('A' for Active; 'I' for Inactive)
REMARK    1  A    between atoms: C_4  and  C_5
REMARK    2  A    between atoms: C_5  and  C_6
REMARK    3  A    between atoms: N_19  and  C_20
REMARK    4  A    between atoms: C_20  and  C_21
REMARK    5  A    between atoms: C_26  and  N_27
REMARK                            x       y       z     vdW  Elec       q    Type
REMARK                         _______ _______ _______ _____ _____    ______ ____
ROOT
ATOM      1  O   UNL     1       4.794   7.372  17.820  0.00  0.00    +0.000 OA
ATOM      2  C   UNL     1       3.812   6.688  18.119  0.00  0.00    +0.000 C 
ATOM      3  C   UNL     1       2.439   7.332  18.143  0.00  0.00    +0.000 C 
ATOM      4  C   UNL     1       2.002   7.756  19.547  0.00  0.00    +0.000 C 
ATOM      5  S   UNL     1       2.159   6.435  20.811  0.00  0.00    +0.000 S 
ATOM      6  C   UNL     1       1.892   4.971  19.823  0.00  0.00    +0.000 A 
ATOM      7  C   UNL     1       0.807   4.167  20.207  0.00  0.00    +0.000 A 
ATOM      8  C   UNL     1       0.577   2.940  19.587  0.00  0.00    +0.000 A 
ATOM      9  C   UNL     1       1.438   2.501  18.590  0.00  0.00    +0.000 A 
ATOM     10  C   UNL     1       2.530   3.286  18.210  0.00  0.00    +0.000 A 
ATOM     11  C   UNL     1       2.776   4.532  18.811  0.00  0.00    +0.000 A 
ATOM     12  N   UNL     1       3.897   5.318  18.374  0.00  0.00    +0.000 N 
ENDROOT
BRANCH   4  13
ATOM     13  C   UNL     1       0.558   8.297  19.506  0.00  0.00    +0.000 C 
BRANCH  13  14
ATOM     14  C   UNL     1       0.167   9.259  20.611  0.00  0.00    +0.000 A 
ATOM     15  C   UNL     1      -0.304   8.796  21.846  0.00  0.00    +0.000 A 
ATOM     16  C   UNL     1      -0.636   9.696  22.861  0.00  0.00    +0.000 A 
ATOM     17  C   UNL     1      -0.496  11.067  22.656  0.00  0.00    +0.000 A 
ATOM     18  C   UNL     1      -0.031  11.541  21.431  0.00  0.00    +0.000 A 
ATOM     19  C   UNL     1       0.296  10.642  20.414  0.00  0.00    +0.000 A 
ENDBRANCH  13  14
ENDBRANCH   4  13
BRANCH  12  20
ATOM     20  C   UNL     1       5.205   4.656  18.172  0.00  0.00    +0.000 C 
BRANCH  20  21
ATOM     21  C   UNL     1       5.730   4.611  16.738  0.00  0.00    +0.000 A 
ATOM     22  C   UNL     1       5.138   3.746  15.795  0.00  0.00    +0.000 A 
ATOM     23  C   UNL     1       5.536   3.712  14.456  0.00  0.00    +0.000 A 
ATOM     24  C   UNL     1       6.573   4.519  14.016  0.00  0.00    +0.000 A 
ATOM     25  C   UNL     1       7.226   5.345  14.928  0.00  0.00    +0.000 A 
ATOM     26  C   UNL     1       6.822   5.392  16.281  0.00  0.00    +0.000 A 
BRANCH  26  27
ATOM     27  N   UNL     1       7.610   6.276  17.170  0.00  0.00    +0.000 N 
ATOM     28  O   UNL     1       7.943   5.859  18.286  0.00  0.00    +0.000 OA
ATOM     29  O   UNL     1       7.903   7.404  16.747  0.00  0.00    +0.000 OA
ENDBRANCH  26  27
ENDBRANCH  20  21
ENDBRANCH  12  20
TORSDOF 5
ENDMDL
MODEL 9
REMARK VINA RESULT:      -7.4      1.773      2.612
REMARK  Name = 
REMARK  5 active torsions:
REMARK  status: ('A' for Active; 'I' for Inactive)
REMARK    1  A    between atoms: C_4  and  C_5
REMARK    2  A    between atoms: C_5  and  C_6
REMARK    3  A    between atoms: N_19  and  C_20
REMARK    4  A    between atoms: C_20  and  C_21
REMARK    5  A    between atoms: C_26  and  N_27
REMARK                            x       y       z     vdW  Elec       q    Type
REMARK                         _______ _______ _______ _____ _____    ______ ____
ROOT
ATOM      1  O   UNL     1       4.867   6.853  17.716  0.00  0.00    +0.000 OA
ATOM      2  C   UNL     1       3.836   6.272  18.062  0.00  0.00    +0.000 C 
ATOM      3  C   UNL     1       2.543   7.056  18.170  0.00  0.00    +0.000 C 
ATOM      4  C   UNL     1       2.230   7.503  19.599  0.00  0.00    +0.000 C 
ATOM      5  S   UNL     1       2.315   6.153  20.839  0.00  0.00    +0.000 S 
ATOM      6  C   UNL     1       1.841   4.741  19.855  0.00  0.00    +0.000 A 
ATOM      7  C   UNL     1       0.699   4.049  20.291  0.00  0.00    +0.000 A 
ATOM      8  C   UNL     1       0.307   2.864  19.674  0.00  0.00    +0.000 A 
ATOM      9  C   UNL     1       1.061   2.352  18.626  0.00  0.00    +0.000 A 
ATOM     10  C   UNL     1       2.207   3.023  18.192  0.00  0.00    +0.000 A 
ATOM     11  C   UNL     1       2.616   4.226  18.791  0.00  0.00    +0.000 A 
ATOM     12  N   UNL     1       3.789   4.897  18.299  0.00  0.00    +0.000 N 
ENDROOT
BRANCH   4  13
ATOM     13  C   UNL     1       0.852   8.193  19.644  0.00  0.00    +0.000 C 
BRANCH  13  14
ATOM     14  C   UNL     1       0.858   9.704  19.763  0.00  0.00    +0.000 A 
ATOM     15  C   UNL     1       0.520  10.341  20.964  0.00  0.00    +0.000 A 
ATOM     16  C   UNL     1       0.556  11.734  21.062  0.00  0.00    +0.000 A 
ATOM     17  C   UNL     1       0.934  12.506  19.965  0.00  0.00    +0.000 A 
ATOM     18  C   UNL     1       1.270  11.884  18.764  0.00  0.00    +0.000 A 
ATOM     19  C   UNL     1       1.230  10.492  18.663  0.00  0.00    +0.000 A 
ENDBRANCH  13  14
ENDBRANCH   4  13
BRANCH  12  20
ATOM     20  C   UNL     1       5.006   4.104  18.018  0.00  0.00    +0.000 C 
BRANCH  20  21
ATOM     21  C   UNL     1       5.641   4.296  16.642  0.00  0.00    +0.000 A 
ATOM     22  C   UNL     1       4.950   3.893  15.481  0.00  0.00    +0.000 A 
ATOM     23  C   UNL     1       5.455   4.104  14.196  0.00  0.00    +0.000 A 
ATOM     24  C   UNL     1       6.696   4.697  14.024  0.00  0.00    +0.000 A 
ATOM     25  C   UNL     1       7.440   5.057  15.146  0.00  0.00    +0.000 A 
ATOM     26  C   UNL     1       6.930   4.855  16.448  0.00  0.00    +0.000 A 
BRANCH  26  27
ATOM     27  N   UNL     1       7.821   5.239  17.567  0.00  0.00    +0.000 N 
ATOM     28  O   UNL     1       8.032   6.438  17.779  0.00  0.00    +0.000 OA
ATOM     29  O   UNL     1       8.317   4.327  18.245  0.00  0.00    +0.000 OA
ENDBRANCH  26  27
ENDBRANCH  20  21
ENDBRANCH  12  20
TORSDOF 5
ENDMDL
