MODEL 1
REMARK VINA RESULT:      -7.1      0.000      0.000
REMARK  Name = 
REMARK  1 active torsions:
REMARK  status: ('A' for Active; 'I' for Inactive)
REMARK    1  A    between atoms: C_1  and  N_2
REMARK                            x       y       z     vdW  Elec       q    Type
REMARK                         _______ _______ _______ _____ _____    ______ ____
ROOT
ATOM      1  C   UNL     1       0.256  12.222  21.487  0.00  0.00    +0.000 C 
ATOM      2  N   UNL     1       0.215  10.941  20.783  0.00  0.00    +0.000 NA
ATOM      3  C   UNL     1       0.748   9.864  21.643  0.00  0.00    +0.000 C 
ATOM      4  C   UNL     1       0.771   8.490  20.939  0.00  0.00    +0.000 C 
ATOM      5  N   UNL     1       1.509   8.567  19.671  0.00  0.00    +0.000 N 
ATOM      6  C   UNL     1       2.275   7.518  19.162  0.00  0.00    +0.000 A 
ATOM      7  N   UNL     1       2.957   7.732  18.057  0.00  0.00    +0.000 NA
ATOM      8  C   UNL     1       3.796   6.741  17.520  0.00  0.00    +0.000 A 
ATOM      9  N   UNL     1       4.464   7.110  16.410  0.00  0.00    +0.000 NA
ATOM     10  C   UNL     1       5.313   6.200  15.866  0.00  0.00    +0.000 A 
ATOM     11  C   UNL     1       5.522   4.926  16.379  0.00  0.00    +0.000 A 
ATOM     12 CL   UNL     1       6.621   3.844  15.630  0.00  0.00    +0.000 Cl
ATOM     13  C   UNL     1       4.828   4.545  17.522  0.00  0.00    +0.000 A 
ATOM     14  C   UNL     1       3.962   5.478  18.087  0.00  0.00    +0.000 A 
ATOM     15  N   UNL     1       3.216   5.243  19.237  0.00  0.00    +0.000 N 
ATOM     16  C   UNL     1       3.102   4.157  20.047  0.00  0.00    +0.000 A 
ATOM     17  N   UNL     1       2.253   4.423  21.016  0.00  0.00    +0.000 NA
ATOM     18  N   UNL     1       1.800   5.713  20.834  0.00  0.00    +0.000 NA
ATOM     19  C   UNL     1       2.401   6.201  19.768  0.00  0.00    +0.000 A 
ATOM     20  C   UNL     1       1.036   9.651  18.790  0.00  0.00    +0.000 C 
ATOM     21  C   UNL     1       1.010  11.000  19.539  0.00  0.00    +0.000 C 
ENDROOT
TORSDOF 0
ENDMDL
MODEL 2
REMARK VINA RESULT:      -7.1      3.482      7.228
REMARK  Name = 
REMARK  1 active torsions:
REMARK  status: ('A' for Active; 'I' for Inactive)
REMARK    1  A    between atoms: C_1  and  N_2
REMARK                            x       y       z     vdW  Elec       q    Type
REMARK                         _______ _______ _______ _____ _____    ______ ____
ROOT
ATOM      1  C   UNL     1       4.447   2.418  20.060  0.00  0.00    +0.000 C 
ATOM      2  N   UNL     1       3.398   3.369  19.694  0.00  0.00    +0.000 NA
ATOM      3  C   UNL     1       3.989   4.570  19.068  0.00  0.00    +0.000 C 
ATOM      4  C   UNL     1       2.932   5.634  18.698  0.00  0.00    +0.000 C 
ATOM      5  N   UNL     1       2.122   5.994  19.870  0.00  0.00    +0.000 N 
ATOM      6  C   UNL     1       1.614   7.273  20.091  0.00  0.00    +0.000 A 
ATOM      7  N   UNL     1       0.972   7.497  21.217  0.00  0.00    +0.000 NA
ATOM      8  C   UNL     1       0.485   8.776  21.533  0.00  0.00    +0.000 A 
ATOM      9  N   UNL     1      -0.117   8.869  22.734  0.00  0.00    +0.000 NA
ATOM     10  C   UNL     1      -0.580  10.091  23.103  0.00  0.00    +0.000 A 
ATOM     11  C   UNL     1      -0.475  11.233  22.318  0.00  0.00    +0.000 A 
ATOM     12 CL   UNL     1      -1.082  12.740  22.868  0.00  0.00    +0.000 Cl
ATOM     13  C   UNL     1       0.141  11.134  21.076  0.00  0.00    +0.000 A 
ATOM     14  C   UNL     1       0.624   9.884  20.697  0.00  0.00    +0.000 A 
ATOM     15  N   UNL     1       1.275   9.639  19.493  0.00  0.00    +0.000 N 
ATOM     16  C   UNL     1       1.583  10.442  18.440  0.00  0.00    +0.000 A 
ATOM     17  N   UNL     1       2.204   9.736  17.520  0.00  0.00    +0.000 NA
ATOM     18  N   UNL     1       2.304   8.440  17.984  0.00  0.00    +0.000 NA
ATOM     19  C   UNL     1       1.756   8.400  19.180  0.00  0.00    +0.000 A 
ATOM     20  C   UNL     1       1.539   4.823  20.552  0.00  0.00    +0.000 C 
ATOM     21  C   UNL     1       2.625   3.779  20.885  0.00  0.00    +0.000 C 
ENDROOT
TORSDOF 0
ENDMDL
MODEL 3
REMARK VINA RESULT:      -6.9      1.948      3.684
REMARK  Name = 
REMARK  1 active torsions:
REMARK  status: ('A' for Active; 'I' for Inactive)
REMARK    1  A    between atoms: C_1  and  N_2
REMARK                            x       y       z     vdW  Elec       q    Type
REMARK                         _______ _______ _______ _____ _____    ______ ____
ROOT
ATOM      1  C   UNL     1      -2.183  11.732  23.120  0.00  0.00    +0.000 C 
ATOM      2  N   UNL     1      -0.896  11.203  22.673  0.00  0.00    +0.000 NA
ATOM      3  C   UNL     1      -0.836  11.174  21.197  0.00  0.00    +0.000 C 
ATOM      4  C   UNL     1       0.487  10.583  20.662  0.00  0.00    +0.000 C 
ATOM      5  N   UNL     1       0.727   9.248  21.226  0.00  0.00    +0.000 N 
ATOM      6  C   UNL     1       1.359   8.220  20.527  0.00  0.00    +0.000 A 
ATOM      7  N   UNL     1       1.444   7.041  21.106  0.00  0.00    +0.000 NA
ATOM      8  C   UNL     1       2.014   5.944  20.438  0.00  0.00    +0.000 A 
ATOM      9  N   UNL     1       2.000   4.792  21.135  0.00  0.00    +0.000 NA
ATOM     10  C   UNL     1       2.511   3.692  20.524  0.00  0.00    +0.000 A 
ATOM     11  C   UNL     1       3.047   3.692  19.242  0.00  0.00    +0.000 A 
ATOM     12 CL   UNL     1       3.663   2.251  18.545  0.00  0.00    +0.000 Cl
ATOM     13  C   UNL     1       3.065   4.883  18.526  0.00  0.00    +0.000 A 
ATOM     14  C   UNL     1       2.535   6.012  19.146  0.00  0.00    +0.000 A 
ATOM     15  N   UNL     1       2.472   7.265  18.548  0.00  0.00    +0.000 N 
ATOM     16  C   UNL     1       2.878   7.720  17.332  0.00  0.00    +0.000 A 
ATOM     17  N   UNL     1       2.603   9.002  17.232  0.00  0.00    +0.000 NA
ATOM     18  N   UNL     1       2.005   9.396  18.411  0.00  0.00    +0.000 NA
ATOM     19  C   UNL     1       1.916   8.336  19.188  0.00  0.00    +0.000 A 
ATOM     20  C   UNL     1       0.643   9.217  22.698  0.00  0.00    +0.000 C 
ATOM     21  C   UNL     1      -0.684   9.835  23.189  0.00  0.00    +0.000 C 
ENDROOT
TORSDOF 0
ENDMDL
MODEL 4
REMARK VINA RESULT:      -6.9      2.864      6.433
REMARK  Name = 
REMARK  1 active torsions:
REMARK  status: ('A' for Active; 'I' for Inactive)
REMARK    1  A    between atoms: C_1  and  N_2
REMARK                            x       y       z     vdW  Elec       q    Type
REMARK                         _______ _______ _______ _____ _____    ______ ____
ROOT
ATOM      1  C   UNL     1       6.288   3.613  13.860  0.00  0.00    +0.000 C 
ATOM      2  N   UNL     1       6.146   4.334  15.124  0.00  0.00    +0.000 NA
ATOM      3  C   UNL     1       5.170   3.653  15.998  0.00  0.00    +0.000 C 
ATOM      4  C   UNL     1       4.943   4.393  17.335  0.00  0.00    +0.000 C 
ATOM      5  N   UNL     1       4.554   5.790  17.097  0.00  0.00    +0.000 N 
ATOM      6  C   UNL     1       3.673   6.493  17.918  0.00  0.00    +0.000 A 
ATOM      7  N   UNL     1       3.335   7.713  17.559  0.00  0.00    +0.000 NA
ATOM      8  C   UNL     1       2.407   8.458  18.305  0.00  0.00    +0.000 A 
ATOM      9  N   UNL     1       2.126   9.675  17.801  0.00  0.00    +0.000 NA
ATOM     10  C   UNL     1       1.211  10.426  18.467  0.00  0.00    +0.000 A 
ATOM     11  C   UNL     1       0.564  10.017  19.627  0.00  0.00    +0.000 A 
ATOM     12 CL   UNL     1      -0.586  11.030  20.398  0.00  0.00    +0.000 Cl
ATOM     13  C   UNL     1       0.859   8.764  20.149  0.00  0.00    +0.000 A 
ATOM     14  C   UNL     1       1.792   7.987  19.465  0.00  0.00    +0.000 A 
ATOM     15  N   UNL     1       2.173   6.710  19.860  0.00  0.00    +0.000 N 
ATOM     16  C   UNL     1       1.812   5.933  20.916  0.00  0.00    +0.000 A 
ATOM     17  N   UNL     1       2.462   4.791  20.861  0.00  0.00    +0.000 NA
ATOM     18  N   UNL     1       3.268   4.822  19.741  0.00  0.00    +0.000 NA
ATOM     19  C   UNL     1       3.071   5.977  19.139  0.00  0.00    +0.000 A 
ATOM     20  C   UNL     1       5.481   6.505  16.200  0.00  0.00    +0.000 C 
ATOM     21  C   UNL     1       5.693   5.721  14.887  0.00  0.00    +0.000 C 
ENDROOT
TORSDOF 0
ENDMDL
MODEL 5
REMARK VINA RESULT:      -6.9      2.827      6.442
REMARK  Name = 
REMARK  1 active torsions:
REMARK  status: ('A' for Active; 'I' for Inactive)
REMARK    1  A    between atoms: C_1  and  N_2
REMARK                            x       y       z     vdW  Elec       q    Type
REMARK                         _______ _______ _______ _____ _____    ______ ____
ROOT
ATOM      1  C   UNL     1       6.226   4.008  13.523  0.00  0.00    +0.000 C 
ATOM      2  N   UNL     1       6.143   4.423  14.922  0.00  0.00    +0.000 NA
ATOM      3  C   UNL     1       5.289   3.491  15.685  0.00  0.00    +0.000 C 
ATOM      4  C   UNL     1       5.126   3.901  17.165  0.00  0.00    +0.000 C 
ATOM      5  N   UNL     1       4.629   5.280  17.272  0.00  0.00    +0.000 N 
ATOM      6  C   UNL     1       3.775   5.714  18.286  0.00  0.00    +0.000 A 
ATOM      7  N   UNL     1       3.330   6.950  18.231  0.00  0.00    +0.000 NA
ATOM      8  C   UNL     1       2.421   7.437  19.185  0.00  0.00    +0.000 A 
ATOM      9  N   UNL     1       2.021   8.708  18.984  0.00  0.00    +0.000 NA
ATOM     10  C   UNL     1       1.117   9.218  19.861  0.00  0.00    +0.000 A 
ATOM     11  C   UNL     1       0.596   8.516  20.940  0.00  0.00    +0.000 A 
ATOM     12 CL   UNL     1      -0.549   9.239  21.992  0.00  0.00    +0.000 Cl
ATOM     13  C   UNL     1       1.014   7.207  21.149  0.00  0.00    +0.000 A 
ATOM     14  C   UNL     1       1.935   6.676  20.248  0.00  0.00    +0.000 A 
ATOM     15  N   UNL     1       2.430   5.379  20.322  0.00  0.00    +0.000 N 
ATOM     16  C   UNL     1       2.209   4.365  21.200  0.00  0.00    +0.000 A 
ATOM     17  N   UNL     1       2.925   3.319  20.848  0.00  0.00    +0.000 NA
ATOM     18  N   UNL     1       3.631   3.659  19.713  0.00  0.00    +0.000 NA
ATOM     19  C   UNL     1       3.311   4.896  19.398  0.00  0.00    +0.000 A 
ATOM     20  C   UNL     1       5.430   6.246  16.497  0.00  0.00    +0.000 C 
ATOM     21  C   UNL     1       5.584   5.786  15.032  0.00  0.00    +0.000 C 
ENDROOT
TORSDOF 0
ENDMDL
MODEL 6
REMARK VINA RESULT:      -6.6      1.736      3.580
REMARK  Name = 
REMARK  1 active torsions:
REMARK  status: ('A' for Active; 'I' for Inactive)
REMARK    1  A    between atoms: C_1  and  N_2
REMARK                            x       y       z     vdW  Elec       q    Type
REMARK                         _______ _______ _______ _____ _____    ______ ____
ROOT
ATOM      1  C   UNL     1      -1.269  11.088  19.326  0.00  0.00    +0.000 C 
ATOM      2  N   UNL     1       0.039  10.459  19.498  0.00  0.00    +0.000 NA
ATOM      3  C   UNL     1       0.552   9.975  18.200  0.00  0.00    +0.000 C 
ATOM      4  C   UNL     1       1.914   9.259  18.322  0.00  0.00    +0.000 C 
ATOM      5  N   UNL     1       1.843   8.165  19.302  0.00  0.00    +0.000 N 
ATOM      6  C   UNL     1       2.562   6.977  19.183  0.00  0.00    +0.000 A 
ATOM      7  N   UNL     1       2.354   6.037  20.079  0.00  0.00    +0.000 NA
ATOM      8  C   UNL     1       2.999   4.792  19.988  0.00  0.00    +0.000 A 
ATOM      9  N   UNL     1       2.663   3.912  20.950  0.00  0.00    +0.000 NA
ATOM     10  C   UNL     1       3.235   2.681  20.892  0.00  0.00    +0.000 A 
ATOM     11  C   UNL     1       4.140   2.289  19.913  0.00  0.00    +0.000 A 
ATOM     12 CL   UNL     1       4.806   0.709  19.913  0.00  0.00    +0.000 Cl
ATOM     13  C   UNL     1       4.490   3.200  18.924  0.00  0.00    +0.000 A 
ATOM     14  C   UNL     1       3.900   4.461  18.976  0.00  0.00    +0.000 A 
ATOM     15  N   UNL     1       4.142   5.467  18.047  0.00  0.00    +0.000 N 
ATOM     16  C   UNL     1       4.946   5.526  16.952  0.00  0.00    +0.000 A 
ATOM     17  N   UNL     1       4.836   6.712  16.394  0.00  0.00    +0.000 NA
ATOM     18  N   UNL     1       3.940   7.446  17.143  0.00  0.00    +0.000 NA
ATOM     19  C   UNL     1       3.517   6.678  18.126  0.00  0.00    +0.000 A 
ATOM     20  C   UNL     1       1.303   8.592  20.607  0.00  0.00    +0.000 C 
ATOM     21  C   UNL     1      -0.048   9.319  20.435  0.00  0.00    +0.000 C 
ENDROOT
TORSDOF 0
ENDMDL
MODEL 7
REMARK VINA RESULT:      -6.4      3.178      5.203
REMARK  Name = 
REMARK  1 active torsions:
REMARK  status: ('A' for Active; 'I' for Inactive)
REMARK    1  A    between atoms: C_1  and  N_2
REMARK                            x       y       z     vdW  Elec       q    Type
REMARK                         _______ _______ _______ _____ _____    ______ ____
ROOT
ATOM      1  C   UNL     1      -0.121  17.348  19.623  0.00  0.00    +0.000 C 
ATOM      2  N   UNL     1      -0.593  15.968  19.729  0.00  0.00    +0.000 NA
ATOM      3  C   UNL     1      -0.189  15.385  21.025  0.00  0.00    +0.000 C 
ATOM      4  C   UNL     1      -0.621  13.911  21.180  0.00  0.00    +0.000 C 
ATOM      5  N   UNL     1      -0.124  13.101  20.059  0.00  0.00    +0.000 N 
ATOM      6  C   UNL     1       0.265  11.768  20.185  0.00  0.00    +0.000 A 
ATOM      7  N   UNL     1       0.771  11.169  19.129  0.00  0.00    +0.000 NA
ATOM      8  C   UNL     1       1.239   9.847  19.199  0.00  0.00    +0.000 A 
ATOM      9  N   UNL     1       1.767   9.375  18.053  0.00  0.00    +0.000 NA
ATOM     10  C   UNL     1       2.262   8.110  18.074  0.00  0.00    +0.000 A 
ATOM     11  C   UNL     1       2.248   7.286  19.193  0.00  0.00    +0.000 A 
ATOM     12 CL   UNL     1       2.904   5.703  19.130  0.00  0.00    +0.000 Cl
ATOM     13  C   UNL     1       1.697   7.773  20.373  0.00  0.00    +0.000 A 
ATOM     14  C   UNL     1       1.195   9.072  20.358  0.00  0.00    +0.000 A 
ATOM     15  N   UNL     1       0.631   9.695  21.466  0.00  0.00    +0.000 N 
ATOM     16  C   UNL     1       0.407   9.272  22.738  0.00  0.00    +0.000 A 
ATOM     17  N   UNL     1      -0.167  10.236  23.424  0.00  0.00    +0.000 NA
ATOM     18  N   UNL     1      -0.323  11.316  22.579  0.00  0.00    +0.000 NA
ATOM     19  C   UNL     1       0.178  10.982  21.408  0.00  0.00    +0.000 A 
ATOM     20  C   UNL     1      -0.472  13.662  18.740  0.00  0.00    +0.000 C 
ATOM     21  C   UNL     1      -0.041  15.140  18.637  0.00  0.00    +0.000 C 
ENDROOT
TORSDOF 0
ENDMDL
MODEL 8
REMARK VINA RESULT:      -6.3      5.526      7.770
REMARK  Name = 
REMARK  1 active torsions:
REMARK  status: ('A' for Active; 'I' for Inactive)
REMARK    1  A    between atoms: C_1  and  N_2
REMARK                            x       y       z     vdW  Elec       q    Type
REMARK                         _______ _______ _______ _____ _____    ______ ____
ROOT
ATOM      1  C   UNL     1      -2.836  15.808  25.085  0.00  0.00    +0.000 C 
ATOM      2  N   UNL     1      -2.785  14.512  24.410  0.00  0.00    +0.000 NA
ATOM      3  C   UNL     1      -1.458  14.303  23.797  0.00  0.00    +0.000 C 
ATOM      4  C   UNL     1      -1.355  12.967  23.030  0.00  0.00    +0.000 C 
ATOM      5  N   UNL     1      -2.422  12.859  22.025  0.00  0.00    +0.000 N 
ATOM      6  C   UNL     1      -2.262  12.217  20.798  0.00  0.00    +0.000 A 
ATOM      7  N   UNL     1      -3.263  12.255  19.946  0.00  0.00    +0.000 NA
ATOM      8  C   UNL     1      -3.151  11.682  18.669  0.00  0.00    +0.000 A 
ATOM      9  N   UNL     1      -4.238  11.830  17.888  0.00  0.00    +0.000 NA
ATOM     10  C   UNL     1      -4.172  11.319  16.630  0.00  0.00    +0.000 A 
ATOM     11  C   UNL     1      -3.065  10.656  16.116  0.00  0.00    +0.000 A 
ATOM     12 CL   UNL     1      -3.067  10.051  14.511  0.00  0.00    +0.000 Cl
ATOM     13  C   UNL     1      -1.946  10.499  16.925  0.00  0.00    +0.000 A 
ATOM     14  C   UNL     1      -2.006  11.028  18.213  0.00  0.00    +0.000 A 
ATOM     15  N   UNL     1      -0.960  10.961  19.126  0.00  0.00    +0.000 N 
ATOM     16  C   UNL     1       0.280  10.408  19.057  0.00  0.00    +0.000 A 
ATOM     17  N   UNL     1       0.908  10.600  20.197  0.00  0.00    +0.000 NA
ATOM     18  N   UNL     1       0.056  11.294  21.032  0.00  0.00    +0.000 NA
ATOM     19  C   UNL     1      -1.059  11.519  20.368  0.00  0.00    +0.000 A 
ATOM     20  C   UNL     1      -3.767  13.095  22.583  0.00  0.00    +0.000 C 
ATOM     21  C   UNL     1      -3.819  14.430  23.357  0.00  0.00    +0.000 C 
ENDROOT
TORSDOF 0
ENDMDL
MODEL 9
REMARK VINA RESULT:      -6.1      4.692      5.716
REMARK  Name = 
REMARK  1 active torsions:
REMARK  status: ('A' for Active; 'I' for Inactive)
REMARK    1  A    between atoms: C_1  and  N_2
REMARK                            x       y       z     vdW  Elec       q    Type
REMARK                         _______ _______ _______ _____ _____    ______ ____
ROOT
ATOM      1  C   UNL     1       0.477   2.588  20.947  0.00  0.00    +0.000 C 
ATOM      2  N   UNL     1       1.858   2.488  20.479  0.00  0.00    +0.000 NA
ATOM      3  C   UNL     1       2.581   3.749  20.737  0.00  0.00    +0.000 C 
ATOM      4  C   UNL     1       4.038   3.722  20.224  0.00  0.00    +0.000 C 
ATOM      5  N   UNL     1       4.081   3.371  18.798  0.00  0.00    +0.000 N 
ATOM      6  C   UNL     1       5.025   3.882  17.908  0.00  0.00    +0.000 A 
ATOM      7  N   UNL     1       4.915   3.559  16.637  0.00  0.00    +0.000 NA
ATOM      8  C   UNL     1       5.794   4.084  15.676  0.00  0.00    +0.000 A 
ATOM      9  N   UNL     1       5.540   3.699  14.411  0.00  0.00    +0.000 NA
ATOM     10  C   UNL     1       6.342   4.203  13.437  0.00  0.00    +0.000 A 
ATOM     11  C   UNL     1       7.399   5.074  13.671  0.00  0.00    +0.000 A 
ATOM     12 CL   UNL     1       8.355   5.668  12.377  0.00  0.00    +0.000 Cl
ATOM     13  C   UNL     1       7.663   5.466  14.978  0.00  0.00    +0.000 A 
ATOM     14  C   UNL     1       6.838   4.958  15.980  0.00  0.00    +0.000 A 
ATOM     15  N   UNL     1       6.973   5.274  17.327  0.00  0.00    +0.000 N 
ATOM     16  C   UNL     1       7.855   6.061  17.998  0.00  0.00    +0.000 A 
ATOM     17  N   UNL     1       7.575   6.034  19.283  0.00  0.00    +0.000 NA
ATOM     18  N   UNL     1       6.483   5.208  19.455  0.00  0.00    +0.000 NA
ATOM     19  C   UNL     1       6.121   4.771  18.268  0.00  0.00    +0.000 A 
ATOM     20  C   UNL     1       3.342   2.134  18.483  0.00  0.00    +0.000 C 
ATOM     21  C   UNL     1       1.900   2.197  19.031  0.00  0.00    +0.000 C 
ENDROOT
TORSDOF 0
ENDMDL
