MODEL 1
REMARK VINA RESULT:      -9.4      0.000      0.000
REMARK  Name = 
REMARK  4 active torsions:
REMARK  status: ('A' for Active; 'I' for Inactive)
REMARK    1  A    between atoms: C_1  and  C_2
REMARK    2  A    between atoms: C_7  and  C_9
REMARK    3  A    between atoms: C_11  and  C_12
REMARK    4  A    between atoms: C_13  and  C_14
REMARK                            x       y       z     vdW  Elec       q    Type
REMARK                         _______ _______ _______ _____ _____    ______ ____
ROOT
ATOM      1  C   UNL     1       3.761   5.412  18.525  0.00  0.00    +0.000 A 
ATOM      2  C   UNL     1       2.567   6.117  18.702  0.00  0.00    +0.000 A 
ATOM      3  N   UNL     1       1.579   5.155  18.770  0.00  0.00    +0.000 N 
ATOM      4  C   UNL     1       2.097   3.889  18.667  0.00  0.00    +0.000 A 
ATOM      5  C   UNL     1       1.444   2.656  18.702  0.00  0.00    +0.000 A 
ATOM      6  F   UNL     1       0.112   2.591  18.825  0.00  0.00    +0.000 F 
ATOM      7  C   UNL     1       2.191   1.490  18.611  0.00  0.00    +0.000 A 
ATOM      8  C   UNL     1       3.567   1.580  18.506  0.00  0.00    +0.000 A 
ATOM      9  F   UNL     1       4.294   0.456  18.435  0.00  0.00    +0.000 F 
ATOM     10  C   UNL     1       4.226   2.812  18.477  0.00  0.00    +0.000 A 
ATOM     11  C   UNL     1       3.480   4.009  18.536  0.00  0.00    +0.000 A 
ATOM     12  H   UNL     1       0.597   5.345  18.916  0.00  0.00    +0.000 HD
ENDROOT
BRANCH   2  13
ATOM     13  C   UNL     1       2.228   7.550  18.820  0.00  0.00    +0.000 A 
ATOM     14  C   UNL     1       2.380   8.416  17.719  0.00  0.00    +0.000 A 
ATOM     15  C   UNL     1       2.020   9.766  17.804  0.00  0.00    +0.000 A 
ATOM     16  C   UNL     1       1.526  10.271  18.999  0.00  0.00    +0.000 A 
ATOM     17  F   UNL     1       1.182  11.562  19.083  0.00  0.00    +0.000 F 
ATOM     18  C   UNL     1       1.374   9.447  20.103  0.00  0.00    +0.000 A 
ATOM     19  C   UNL     1       1.707   8.091  20.005  0.00  0.00    +0.000 A 
ENDBRANCH   2  13
BRANCH   1  22
ATOM     20  C   UNL     1       6.911   6.428  17.255  0.00  0.00    +0.000 C 
ATOM     21  C   UNL     1       6.421   5.259  18.156  0.00  0.00    +0.000 C 
ATOM     22  C   UNL     1       5.128   6.065  18.384  0.00  0.00    +0.000 C 
ATOM     23  C   UNL     1       5.400   6.720  17.003  0.00  0.00    +0.000 C 
BRANCH  20  30
ATOM     24  C   UNL     1      10.708  11.158  20.052  0.00  0.00    +0.000 C 
ATOM     25  C   UNL     1       9.634  11.015  19.059  0.00  0.00    +0.000 A 
ATOM     26  C   UNL     1       8.886  11.862  18.276  0.00  0.00    +0.000 A 
ATOM     27  N   UNL     1       8.026  11.132  17.485  0.00  0.00    +0.000 NA
ATOM     28  C   UNL     1       8.244   9.889  17.857  0.00  0.00    +0.000 A 
ATOM     29  N   UNL     1       7.603   8.787  17.372  0.00  0.00    +0.000 N 
ATOM     30  C   UNL     1       7.733   7.550  17.960  0.00  0.00    +0.000 C 
ATOM     31  O   UNL     1       8.410   7.319  18.966  0.00  0.00    +0.000 OA
ATOM     32  O   UNL     1       9.219   9.746  18.796  0.00  0.00    +0.000 OA
ATOM     33  H   UNL     1       6.961   8.958  16.613  0.00  0.00    +0.000 HD
ENDBRANCH  20  30
ENDBRANCH   1  22
TORSDOF 3
ENDMDL
MODEL 2
REMARK VINA RESULT:      -8.9      0.964      1.174
REMARK  Name = 
REMARK  4 active torsions:
REMARK  status: ('A' for Active; 'I' for Inactive)
REMARK    1  A    between atoms: C_1  and  C_2
REMARK    2  A    between atoms: C_7  and  C_9
REMARK    3  A    between atoms: C_11  and  C_12
REMARK    4  A    between atoms: C_13  and  C_14
REMARK                            x       y       z     vdW  Elec       q    Type
REMARK                         _______ _______ _______ _____ _____    ______ ____
ROOT
ATOM      1  C   UNL     1       3.718   5.501  18.566  0.00  0.00    +0.000 A 
ATOM      2  C   UNL     1       2.500   6.149  18.789  0.00  0.00    +0.000 A 
ATOM      3  N   UNL     1       1.561   5.141  18.886  0.00  0.00    +0.000 N 
ATOM      4  C   UNL     1       2.134   3.901  18.757  0.00  0.00    +0.000 A 
ATOM      5  C   UNL     1       1.540   2.639  18.807  0.00  0.00    +0.000 A 
ATOM      6  F   UNL     1       0.218   2.511  18.976  0.00  0.00    +0.000 F 
ATOM      7  C   UNL     1       2.337   1.510  18.682  0.00  0.00    +0.000 A 
ATOM      8  C   UNL     1       3.702   1.664  18.530  0.00  0.00    +0.000 A 
ATOM      9  F   UNL     1       4.478   0.576  18.427  0.00  0.00    +0.000 F 
ATOM     10  C   UNL     1       4.302   2.926  18.485  0.00  0.00    +0.000 A 
ATOM     11  C   UNL     1       3.504   4.087  18.579  0.00  0.00    +0.000 A 
ATOM     12  H   UNL     1       0.577   5.285  19.067  0.00  0.00    +0.000 HD
ENDROOT
BRANCH   2  13
ATOM     13  C   UNL     1       2.100   7.564  18.928  0.00  0.00    +0.000 A 
ATOM     14  C   UNL     1       2.220   8.453  17.842  0.00  0.00    +0.000 A 
ATOM     15  C   UNL     1       1.801   9.785  17.946  0.00  0.00    +0.000 A 
ATOM     16  C   UNL     1       1.280  10.249  19.146  0.00  0.00    +0.000 A 
ATOM     17  F   UNL     1       0.880  11.523  19.248  0.00  0.00    +0.000 F 
ATOM     18  C   UNL     1       1.158   9.402  20.236  0.00  0.00    +0.000 A 
ATOM     19  C   UNL     1       1.550   8.063  20.118  0.00  0.00    +0.000 A 
ENDBRANCH   2  13
BRANCH   1  22
ATOM     20  C   UNL     1       7.135   6.177  17.903  0.00  0.00    +0.000 C 
ATOM     21  C   UNL     1       6.312   5.855  19.183  0.00  0.00    +0.000 C 
ATOM     22  C   UNL     1       5.048   6.218  18.381  0.00  0.00    +0.000 C 
ATOM     23  C   UNL     1       5.843   5.804  17.114  0.00  0.00    +0.000 C 
BRANCH  20  30
ATOM     24  C   UNL     1       9.007  12.571  17.423  0.00  0.00    +0.000 C 
ATOM     25  C   UNL     1       9.203  11.401  18.290  0.00  0.00    +0.000 A 
ATOM     26  C   UNL     1       9.938  11.109  19.414  0.00  0.00    +0.000 A 
ATOM     27  N   UNL     1       9.683   9.818  19.820  0.00  0.00    +0.000 NA
ATOM     28  C   UNL     1       8.855   9.364  18.905  0.00  0.00    +0.000 A 
ATOM     29  N   UNL     1       8.330   8.106  18.857  0.00  0.00    +0.000 N 
ATOM     30  C   UNL     1       7.646   7.643  17.757  0.00  0.00    +0.000 C 
ATOM     31  O   UNL     1       7.454   8.293  16.725  0.00  0.00    +0.000 OA
ATOM     32  O   UNL     1       8.509  10.278  17.957  0.00  0.00    +0.000 OA
ATOM     33  H   UNL     1       8.555   7.513  19.640  0.00  0.00    +0.000 HD
ENDBRANCH  20  30
ENDBRANCH   1  22
TORSDOF 3
ENDMDL
MODEL 3
REMARK VINA RESULT:      -8.8      5.497      9.597
REMARK  Name = 
REMARK  4 active torsions:
REMARK  status: ('A' for Active; 'I' for Inactive)
REMARK    1  A    between atoms: C_1  and  C_2
REMARK    2  A    between atoms: C_7  and  C_9
REMARK    3  A    between atoms: C_11  and  C_12
REMARK    4  A    between atoms: C_13  and  C_14
REMARK                            x       y       z     vdW  Elec       q    Type
REMARK                         _______ _______ _______ _____ _____    ______ ____
ROOT
ATOM      1  C   UNL     1      -1.563  11.811  20.552  0.00  0.00    +0.000 A 
ATOM      2  C   UNL     1      -2.518  12.015  19.551  0.00  0.00    +0.000 A 
ATOM      3  N   UNL     1      -3.295  13.067  19.994  0.00  0.00    +0.000 N 
ATOM      4  C   UNL     1      -2.860  13.542  21.206  0.00  0.00    +0.000 A 
ATOM      5  C   UNL     1      -3.358  14.592  21.979  0.00  0.00    +0.000 A 
ATOM      6  F   UNL     1      -4.432  15.285  21.580  0.00  0.00    +0.000 F 
ATOM      7  C   UNL     1      -2.726  14.917  23.170  0.00  0.00    +0.000 A 
ATOM      8  C   UNL     1      -1.605  14.202  23.552  0.00  0.00    +0.000 A 
ATOM      9  F   UNL     1      -0.980  14.523  24.694  0.00  0.00    +0.000 F 
ATOM     10  C   UNL     1      -1.099  13.154  22.779  0.00  0.00    +0.000 A 
ATOM     11  C   UNL     1      -1.748  12.789  21.579  0.00  0.00    +0.000 A 
ATOM     12  H   UNL     1      -4.066  13.471  19.481  0.00  0.00    +0.000 HD
ENDROOT
BRANCH   2  13
ATOM     13  C   UNL     1      -2.796  11.372  18.251  0.00  0.00    +0.000 A 
ATOM     14  C   UNL     1      -3.985  11.657  17.551  0.00  0.00    +0.000 A 
ATOM     15  C   UNL     1      -4.241  11.090  16.296  0.00  0.00    +0.000 A 
ATOM     16  C   UNL     1      -3.321  10.213  15.739  0.00  0.00    +0.000 A 
ATOM     17  F   UNL     1      -3.564   9.668  14.540  0.00  0.00    +0.000 F 
ATOM     18  C   UNL     1      -2.147   9.904  16.407  0.00  0.00    +0.000 A 
ATOM     19  C   UNL     1      -1.882  10.496  17.648  0.00  0.00    +0.000 A 
ENDBRANCH   2  13
BRANCH   1  22
ATOM     20  C   UNL     1       1.052   9.596  21.460  0.00  0.00    +0.000 C 
ATOM     21  C   UNL     1       0.992  11.015  20.826  0.00  0.00    +0.000 C 
ATOM     22  C   UNL     1      -0.488  10.735  20.503  0.00  0.00    +0.000 C 
ATOM     23  C   UNL     1      -0.477   9.767  21.717  0.00  0.00    +0.000 C 
BRANCH  20  30
ATOM     24  C   UNL     1       3.220   4.682  17.489  0.00  0.00    +0.000 C 
ATOM     25  C   UNL     1       2.680   4.884  18.841  0.00  0.00    +0.000 A 
ATOM     26  C   UNL     1       2.332   4.082  19.902  0.00  0.00    +0.000 A 
ATOM     27  N   UNL     1       1.904   4.858  20.957  0.00  0.00    +0.000 NA
ATOM     28  C   UNL     1       1.955   6.083  20.480  0.00  0.00    +0.000 A 
ATOM     29  N   UNL     1       1.598   7.216  21.150  0.00  0.00    +0.000 N 
ATOM     30  C   UNL     1       1.477   8.431  20.515  0.00  0.00    +0.000 C 
ATOM     31  O   UNL     1       1.658   8.613  19.308  0.00  0.00    +0.000 OA
ATOM     32  O   UNL     1       2.433   6.171  19.208  0.00  0.00    +0.000 OA
ATOM     33  H   UNL     1       1.344   7.086  22.116  0.00  0.00    +0.000 HD
ENDBRANCH  20  30
ENDBRANCH   1  22
TORSDOF 3
ENDMDL
MODEL 4
REMARK VINA RESULT:      -8.7      3.504      6.997
REMARK  Name = 
REMARK  4 active torsions:
REMARK  status: ('A' for Active; 'I' for Inactive)
REMARK    1  A    between atoms: C_1  and  C_2
REMARK    2  A    between atoms: C_7  and  C_9
REMARK    3  A    between atoms: C_11  and  C_12
REMARK    4  A    between atoms: C_13  and  C_14
REMARK                            x       y       z     vdW  Elec       q    Type
REMARK                         _______ _______ _______ _____ _____    ______ ____
ROOT
ATOM      1  C   UNL     1       2.660   7.249  18.702  0.00  0.00    +0.000 A 
ATOM      2  C   UNL     1       1.929   6.580  19.688  0.00  0.00    +0.000 A 
ATOM      3  N   UNL     1       1.136   7.546  20.276  0.00  0.00    +0.000 N 
ATOM      4  C   UNL     1       1.321   8.775  19.694  0.00  0.00    +0.000 A 
ATOM      5  C   UNL     1       0.709   9.996  19.984  0.00  0.00    +0.000 A 
ATOM      6  F   UNL     1      -0.185  10.095  20.975  0.00  0.00    +0.000 F 
ATOM      7  C   UNL     1       1.034  11.113  19.228  0.00  0.00    +0.000 A 
ATOM      8  C   UNL     1       1.944  10.984  18.195  0.00  0.00    +0.000 A 
ATOM      9  F   UNL     1       2.248  12.057  17.451  0.00  0.00    +0.000 F 
ATOM     10  C   UNL     1       2.554   9.763  17.897  0.00  0.00    +0.000 A 
ATOM     11  C   UNL     1       2.259   8.622  18.675  0.00  0.00    +0.000 A 
ATOM     12  H   UNL     1       0.472   7.375  21.018  0.00  0.00    +0.000 HD
ENDROOT
BRANCH   2  13
ATOM     13  C   UNL     1       1.866   5.177  20.146  0.00  0.00    +0.000 A 
ATOM     14  C   UNL     1       2.419   4.803  21.386  0.00  0.00    +0.000 A 
ATOM     15  C   UNL     1       2.326   3.486  21.853  0.00  0.00    +0.000 A 
ATOM     16  C   UNL     1       1.699   2.524  21.074  0.00  0.00    +0.000 A 
ATOM     17  F   UNL     1       1.610   1.264  21.518  0.00  0.00    +0.000 F 
ATOM     18  C   UNL     1       1.154   2.859  19.845  0.00  0.00    +0.000 A 
ATOM     19  C   UNL     1       1.223   4.182  19.395  0.00  0.00    +0.000 A 
ENDBRANCH   2  13
BRANCH   1  22
ATOM     20  C   UNL     1       5.676   5.887  17.429  0.00  0.00    +0.000 C 
ATOM     21  C   UNL     1       4.982   7.277  17.345  0.00  0.00    +0.000 C 
ATOM     22  C   UNL     1       3.683   6.582  17.795  0.00  0.00    +0.000 C 
ATOM     23  C   UNL     1       4.592   5.535  18.494  0.00  0.00    +0.000 C 
BRANCH  20  30
ATOM     24  C   UNL     1       5.423   2.442  11.713  0.00  0.00    +0.000 C 
ATOM     25  C   UNL     1       6.214   3.500  12.358  0.00  0.00    +0.000 A 
ATOM     26  C   UNL     1       7.333   4.234  12.045  0.00  0.00    +0.000 A 
ATOM     27  N   UNL     1       7.598   5.137  13.051  0.00  0.00    +0.000 NA
ATOM     28  C   UNL     1       6.673   4.879  13.950  0.00  0.00    +0.000 A 
ATOM     29  N   UNL     1       6.534   5.503  15.155  0.00  0.00    +0.000 N 
ATOM     30  C   UNL     1       5.679   5.033  16.125  0.00  0.00    +0.000 C 
ATOM     31  O   UNL     1       4.982   4.021  16.015  0.00  0.00    +0.000 OA
ATOM     32  O   UNL     1       5.791   3.908  13.586  0.00  0.00    +0.000 OA
ATOM     33  H   UNL     1       7.163   6.274  15.318  0.00  0.00    +0.000 HD
ENDBRANCH  20  30
ENDBRANCH   1  22
TORSDOF 3
ENDMDL
MODEL 5
REMARK VINA RESULT:      -8.6      2.984      4.791
REMARK  Name = 
REMARK  4 active torsions:
REMARK  status: ('A' for Active; 'I' for Inactive)
REMARK    1  A    between atoms: C_1  and  C_2
REMARK    2  A    between atoms: C_7  and  C_9
REMARK    3  A    between atoms: C_11  and  C_12
REMARK    4  A    between atoms: C_13  and  C_14
REMARK                            x       y       z     vdW  Elec       q    Type
REMARK                         _______ _______ _______ _____ _____    ______ ____
ROOT
ATOM      1  C   UNL     1       5.016   4.796  17.661  0.00  0.00    +0.000 A 
ATOM      2  C   UNL     1       4.898   4.113  16.447  0.00  0.00    +0.000 A 
ATOM      3  N   UNL     1       3.862   3.217  16.628  0.00  0.00    +0.000 N 
ATOM      4  C   UNL     1       3.316   3.323  17.883  0.00  0.00    +0.000 A 
ATOM      5  C   UNL     1       2.256   2.615  18.453  0.00  0.00    +0.000 A 
ATOM      6  F   UNL     1       1.629   1.653  17.765  0.00  0.00    +0.000 F 
ATOM      7  C   UNL     1       1.853   2.922  19.744  0.00  0.00    +0.000 A 
ATOM      8  C   UNL     1       2.501   3.935  20.428  0.00  0.00    +0.000 A 
ATOM      9  F   UNL     1       2.103   4.246  21.670  0.00  0.00    +0.000 F 
ATOM     10  C   UNL     1       3.558   4.649  19.859  0.00  0.00    +0.000 A 
ATOM     11  C   UNL     1       4.003   4.330  18.558  0.00  0.00    +0.000 A 
ATOM     12  H   UNL     1       3.515   2.585  15.921  0.00  0.00    +0.000 HD
ENDROOT
BRANCH   2  13
ATOM     13  C   UNL     1       5.608   4.186  15.154  0.00  0.00    +0.000 A 
ATOM     14  C   UNL     1       5.108   3.513  14.022  0.00  0.00    +0.000 A 
ATOM     15  C   UNL     1       5.746   3.611  12.780  0.00  0.00    +0.000 A 
ATOM     16  C   UNL     1       6.905   4.365  12.661  0.00  0.00    +0.000 A 
ATOM     17  F   UNL     1       7.518   4.459  11.474  0.00  0.00    +0.000 F 
ATOM     18  C   UNL     1       7.428   5.031  13.758  0.00  0.00    +0.000 A 
ATOM     19  C   UNL     1       6.771   4.954  14.992  0.00  0.00    +0.000 A 
ENDBRANCH   2  13
BRANCH   1  22
ATOM     20  C   UNL     1       7.994   6.479  18.592  0.00  0.00    +0.000 C 
ATOM     21  C   UNL     1       6.672   6.110  19.324  0.00  0.00    +0.000 C 
ATOM     22  C   UNL     1       6.045   5.882  17.935  0.00  0.00    +0.000 C 
ATOM     23  C   UNL     1       7.481   5.563  17.439  0.00  0.00    +0.000 C 
BRANCH  20  30
ATOM     24  C   UNL     1       8.564  13.006  17.297  0.00  0.00    +0.000 C 
ATOM     25  C   UNL     1       9.061  11.997  18.242  0.00  0.00    +0.000 A 
ATOM     26  C   UNL     1       9.945  11.971  19.294  0.00  0.00    +0.000 A 
ATOM     27  N   UNL     1       9.981  10.710  19.847  0.00  0.00    +0.000 NA
ATOM     28  C   UNL     1       9.168  10.014  19.082  0.00  0.00    +0.000 A 
ATOM     29  N   UNL     1       8.889   8.685  19.214  0.00  0.00    +0.000 N 
ATOM     30  C   UNL     1       8.201   7.986  18.250  0.00  0.00    +0.000 C 
ATOM     31  O   UNL     1       7.790   8.469  17.191  0.00  0.00    +0.000 OA
ATOM     32  O   UNL     1       8.564  10.738  18.099  0.00  0.00    +0.000 OA
ATOM     33  H   UNL     1       9.298   8.235  20.018  0.00  0.00    +0.000 HD
ENDBRANCH  20  30
ENDBRANCH   1  22
TORSDOF 3
ENDMDL
MODEL 6
REMARK VINA RESULT:      -8.3      3.765      6.767
REMARK  Name = 
REMARK  4 active torsions:
REMARK  status: ('A' for Active; 'I' for Inactive)
REMARK    1  A    between atoms: C_1  and  C_2
REMARK    2  A    between atoms: C_7  and  C_9
REMARK    3  A    between atoms: C_11  and  C_12
REMARK    4  A    between atoms: C_13  and  C_14
REMARK                            x       y       z     vdW  Elec       q    Type
REMARK                         _______ _______ _______ _____ _____    ______ ____
ROOT
ATOM      1  C   UNL     1       2.566   7.246  18.971  0.00  0.00    +0.000 A 
ATOM      2  C   UNL     1       1.816   6.603  19.959  0.00  0.00    +0.000 A 
ATOM      3  N   UNL     1       0.996   7.579  20.491  0.00  0.00    +0.000 N 
ATOM      4  C   UNL     1       1.181   8.788  19.870  0.00  0.00    +0.000 A 
ATOM      5  C   UNL     1       0.547  10.010  20.099  0.00  0.00    +0.000 A 
ATOM      6  F   UNL     1      -0.376  10.132  21.061  0.00  0.00    +0.000 F 
ATOM      7  C   UNL     1       0.879  11.104  19.313  0.00  0.00    +0.000 A 
ATOM      8  C   UNL     1       1.818  10.950  18.310  0.00  0.00    +0.000 A 
ATOM      9  F   UNL     1       2.130  12.000  17.537  0.00  0.00    +0.000 F 
ATOM     10  C   UNL     1       2.452   9.727  18.073  0.00  0.00    +0.000 A 
ATOM     11  C   UNL     1       2.150   8.611  18.883  0.00  0.00    +0.000 A 
ATOM     12  H   UNL     1       0.314   7.425  21.220  0.00  0.00    +0.000 HD
ENDROOT
BRANCH   2  13
ATOM     13  C   UNL     1       1.758   5.216  20.466  0.00  0.00    +0.000 A 
ATOM     14  C   UNL     1       2.639   4.785  21.477  0.00  0.00    +0.000 A 
ATOM     15  C   UNL     1       2.564   3.487  21.998  0.00  0.00    +0.000 A 
ATOM     16  C   UNL     1       1.622   2.600  21.497  0.00  0.00    +0.000 A 
ATOM     17  F   UNL     1       1.550   1.358  21.993  0.00  0.00    +0.000 F 
ATOM     18  C   UNL     1       0.748   2.991  20.496  0.00  0.00    +0.000 A 
ATOM     19  C   UNL     1       0.806   4.298  19.998  0.00  0.00    +0.000 A 
ENDBRANCH   2  13
BRANCH   1  22
ATOM     20  C   UNL     1       4.669   4.792  17.511  0.00  0.00    +0.000 C 
ATOM     21  C   UNL     1       4.799   5.766  18.717  0.00  0.00    +0.000 C 
ATOM     22  C   UNL     1       3.622   6.560  18.117  0.00  0.00    +0.000 C 
ATOM     23  C   UNL     1       3.171   5.225  17.466  0.00  0.00    +0.000 C 
BRANCH  20  30
ATOM     24  C   UNL     1       8.646   6.052  12.295  0.00  0.00    +0.000 C 
ATOM     25  C   UNL     1       7.617   5.094  12.723  0.00  0.00    +0.000 A 
ATOM     26  C   UNL     1       6.973   4.014  12.168  0.00  0.00    +0.000 A 
ATOM     27  N   UNL     1       6.104   3.463  13.084  0.00  0.00    +0.000 NA
ATOM     28  C   UNL     1       6.213   4.256  14.128  0.00  0.00    +0.000 A 
ATOM     29  N   UNL     1       5.520   4.136  15.297  0.00  0.00    +0.000 N 
ATOM     30  C   UNL     1       5.531   5.124  16.255  0.00  0.00    +0.000 C 
ATOM     31  O   UNL     1       6.138   6.194  16.153  0.00  0.00    +0.000 OA
ATOM     32  O   UNL     1       7.126   5.256  13.982  0.00  0.00    +0.000 OA
ATOM     33  H   UNL     1       4.933   3.321  15.371  0.00  0.00    +0.000 HD
ENDBRANCH  20  30
ENDBRANCH   1  22
TORSDOF 3
ENDMDL
MODEL 7
REMARK VINA RESULT:      -8.2      5.572      9.767
REMARK  Name = 
REMARK  4 active torsions:
REMARK  status: ('A' for Active; 'I' for Inactive)
REMARK    1  A    between atoms: C_1  and  C_2
REMARK    2  A    between atoms: C_7  and  C_9
REMARK    3  A    between atoms: C_11  and  C_12
REMARK    4  A    between atoms: C_13  and  C_14
REMARK                            x       y       z     vdW  Elec       q    Type
REMARK                         _______ _______ _______ _____ _____    ______ ____
ROOT
ATOM      1  C   UNL     1      -1.659  11.819  20.721  0.00  0.00    +0.000 A 
ATOM      2  C   UNL     1      -2.524  12.075  19.654  0.00  0.00    +0.000 A 
ATOM      3  N   UNL     1      -3.206  13.225  20.001  0.00  0.00    +0.000 N 
ATOM      4  C   UNL     1      -2.796  13.708  21.218  0.00  0.00    +0.000 A 
ATOM      5  C   UNL     1      -3.221  14.841  21.913  0.00  0.00    +0.000 A 
ATOM      6  F   UNL     1      -4.186  15.626  21.416  0.00  0.00    +0.000 F 
ATOM      7  C   UNL     1      -2.630  15.153  23.128  0.00  0.00    +0.000 A 
ATOM      8  C   UNL     1      -1.620  14.342  23.612  0.00  0.00    +0.000 A 
ATOM      9  F   UNL     1      -1.033  14.649  24.778  0.00  0.00    +0.000 F 
ATOM     10  C   UNL     1      -1.186  13.210  22.917  0.00  0.00    +0.000 A 
ATOM     11  C   UNL     1      -1.798  12.859  21.694  0.00  0.00    +0.000 A 
ATOM     12  H   UNL     1      -3.896  13.683  19.423  0.00  0.00    +0.000 HD
ENDROOT
BRANCH   2  13
ATOM     13  C   UNL     1      -2.792  11.404  18.365  0.00  0.00    +0.000 A 
ATOM     14  C   UNL     1      -3.988  11.652  17.664  0.00  0.00    +0.000 A 
ATOM     15  C   UNL     1      -4.235  11.058  16.420  0.00  0.00    +0.000 A 
ATOM     16  C   UNL     1      -3.299  10.191  15.876  0.00  0.00    +0.000 A 
ATOM     17  F   UNL     1      -3.534   9.620  14.687  0.00  0.00    +0.000 F 
ATOM     18  C   UNL     1      -2.117   9.918  16.545  0.00  0.00    +0.000 A 
ATOM     19  C   UNL     1      -1.861  10.537  17.775  0.00  0.00    +0.000 A 
ENDBRANCH   2  13
BRANCH   1  22
ATOM     20  C   UNL     1       1.139   9.760  21.429  0.00  0.00    +0.000 C 
ATOM     21  C   UNL     1       0.733  10.685  20.247  0.00  0.00    +0.000 C 
ATOM     22  C   UNL     1      -0.708  10.633  20.787  0.00  0.00    +0.000 C 
ATOM     23  C   UNL     1      -0.079  10.376  22.183  0.00  0.00    +0.000 C 
BRANCH  20  30
ATOM     24  C   UNL     1       0.754   3.256  19.957  0.00  0.00    +0.000 C 
ATOM     25  C   UNL     1       1.704   4.375  19.882  0.00  0.00    +0.000 A 
ATOM     26  C   UNL     1       3.011   4.544  19.491  0.00  0.00    +0.000 A 
ATOM     27  N   UNL     1       3.369   5.869  19.609  0.00  0.00    +0.000 NA
ATOM     28  C   UNL     1       2.294   6.435  20.114  0.00  0.00    +0.000 A 
ATOM     29  N   UNL     1       2.165   7.754  20.439  0.00  0.00    +0.000 N 
ATOM     30  C   UNL     1       1.091   8.225  21.158  0.00  0.00    +0.000 C 
ATOM     31  O   UNL     1       0.169   7.523  21.583  0.00  0.00    +0.000 OA
ATOM     32  O   UNL     1       1.242   5.589  20.289  0.00  0.00    +0.000 OA
ATOM     33  H   UNL     1       2.949   8.338  20.197  0.00  0.00    +0.000 HD
ENDBRANCH  20  30
ENDBRANCH   1  22
TORSDOF 3
ENDMDL
MODEL 8
REMARK VINA RESULT:      -8.2      5.209      8.487
REMARK  Name = 
REMARK  4 active torsions:
REMARK  status: ('A' for Active; 'I' for Inactive)
REMARK    1  A    between atoms: C_1  and  C_2
REMARK    2  A    between atoms: C_7  and  C_9
REMARK    3  A    between atoms: C_11  and  C_12
REMARK    4  A    between atoms: C_13  and  C_14
REMARK                            x       y       z     vdW  Elec       q    Type
REMARK                         _______ _______ _______ _____ _____    ______ ____
ROOT
ATOM      1  C   UNL     1      -1.635  10.787  18.703  0.00  0.00    +0.000 A 
ATOM      2  C   UNL     1      -2.182  11.810  19.482  0.00  0.00    +0.000 A 
ATOM      3  N   UNL     1      -3.254  12.292  18.755  0.00  0.00    +0.000 N 
ATOM      4  C   UNL     1      -3.414  11.608  17.576  0.00  0.00    +0.000 A 
ATOM      5  C   UNL     1      -4.373  11.774  16.576  0.00  0.00    +0.000 A 
ATOM      6  F   UNL     1      -5.304  12.731  16.674  0.00  0.00    +0.000 F 
ATOM      7  C   UNL     1      -4.357  10.931  15.474  0.00  0.00    +0.000 A 
ATOM      8  C   UNL     1      -3.401   9.934  15.405  0.00  0.00    +0.000 A 
ATOM      9  F   UNL     1      -3.392   9.106  14.350  0.00  0.00    +0.000 F 
ATOM     10  C   UNL     1      -2.442   9.761  16.406  0.00  0.00    +0.000 A 
ATOM     11  C   UNL     1      -2.423  10.629  17.519  0.00  0.00    +0.000 A 
ATOM     12  H   UNL     1      -3.873  13.030  19.060  0.00  0.00    +0.000 HD
ENDROOT
BRANCH   2  13
ATOM     13  C   UNL     1      -1.849  12.389  20.799  0.00  0.00    +0.000 A 
ATOM     14  C   UNL     1      -0.730  13.231  20.950  0.00  0.00    +0.000 A 
ATOM     15  C   UNL     1      -0.429  13.823  22.183  0.00  0.00    +0.000 A 
ATOM     16  C   UNL     1      -1.230  13.559  23.284  0.00  0.00    +0.000 A 
ATOM     17  F   UNL     1      -0.944  14.123  24.465  0.00  0.00    +0.000 F 
ATOM     18  C   UNL     1      -2.333  12.727  23.171  0.00  0.00    +0.000 A 
ATOM     19  C   UNL     1      -2.647  12.161  21.930  0.00  0.00    +0.000 A 
ENDBRANCH   2  13
BRANCH   1  22
ATOM     20  C   UNL     1       1.103   9.458  20.522  0.00  0.00    +0.000 C 
ATOM     21  C   UNL     1       0.933  10.604  19.484  0.00  0.00    +0.000 C 
ATOM     22  C   UNL     1      -0.417   9.967  19.101  0.00  0.00    +0.000 C 
ATOM     23  C   UNL     1      -0.455   9.398  20.544  0.00  0.00    +0.000 C 
BRANCH  20  30
ATOM     24  C   UNL     1       4.573   4.084  18.600  0.00  0.00    +0.000 C 
ATOM     25  C   UNL     1       3.539   4.471  19.570  0.00  0.00    +0.000 A 
ATOM     26  C   UNL     1       2.777   3.830  20.517  0.00  0.00    +0.000 A 
ATOM     27  N   UNL     1       1.978   4.742  21.172  0.00  0.00    +0.000 NA
ATOM     28  C   UNL     1       2.245   5.879  20.565  0.00  0.00    +0.000 A 
ATOM     29  N   UNL     1       1.674   7.086  20.844  0.00  0.00    +0.000 N 
ATOM     30  C   UNL     1       1.846   8.179  20.027  0.00  0.00    +0.000 C 
ATOM     31  O   UNL     1       2.501   8.178  18.981  0.00  0.00    +0.000 OA
ATOM     32  O   UNL     1       3.195   5.788  19.595  0.00  0.00    +0.000 OA
ATOM     33  H   UNL     1       1.050   7.097  21.635  0.00  0.00    +0.000 HD
ENDBRANCH  20  30
ENDBRANCH   1  22
TORSDOF 3
ENDMDL
MODEL 9
REMARK VINA RESULT:      -8.1      5.007     10.275
REMARK  Name = 
REMARK  4 active torsions:
REMARK  status: ('A' for Active; 'I' for Inactive)
REMARK    1  A    between atoms: C_1  and  C_2
REMARK    2  A    between atoms: C_7  and  C_9
REMARK    3  A    between atoms: C_11  and  C_12
REMARK    4  A    between atoms: C_13  and  C_14
REMARK                            x       y       z     vdW  Elec       q    Type
REMARK                         _______ _______ _______ _____ _____    ______ ____
ROOT
ATOM      1  C   UNL     1       9.110  13.505  19.859  0.00  0.00    +0.000 A 
ATOM      2  C   UNL     1       8.720  13.864  21.152  0.00  0.00    +0.000 A 
ATOM      3  N   UNL     1       9.038  15.203  21.274  0.00  0.00    +0.000 N 
ATOM      4  C   UNL     1       9.586  15.699  20.117  0.00  0.00    +0.000 A 
ATOM      5  C   UNL     1      10.025  16.992  19.827  0.00  0.00    +0.000 A 
ATOM      6  F   UNL     1       9.973  17.957  20.754  0.00  0.00    +0.000 F 
ATOM      7  C   UNL     1      10.518  17.272  18.560  0.00  0.00    +0.000 A 
ATOM      8  C   UNL     1      10.543  16.266  17.612  0.00  0.00    +0.000 A 
ATOM      9  F   UNL     1      11.001  16.536  16.381  0.00  0.00    +0.000 F 
ATOM     10  C   UNL     1      10.098  14.972  17.896  0.00  0.00    +0.000 A 
ATOM     11  C   UNL     1       9.623  14.661  19.189  0.00  0.00    +0.000 A 
ATOM     12  H   UNL     1       8.861  15.766  22.093  0.00  0.00    +0.000 HD
ENDROOT
BRANCH   2  13
ATOM     13  C   UNL     1       8.092  13.138  22.274  0.00  0.00    +0.000 A 
ATOM     14  C   UNL     1       6.690  13.090  22.402  0.00  0.00    +0.000 A 
ATOM     15  C   UNL     1       6.081  12.367  23.435  0.00  0.00    +0.000 A 
ATOM     16  C   UNL     1       6.869  11.703  24.366  0.00  0.00    +0.000 A 
ATOM     17  F   UNL     1       6.289  11.012  25.355  0.00  0.00    +0.000 F 
ATOM     18  C   UNL     1       8.251  11.739  24.273  0.00  0.00    +0.000 A 
ATOM     19  C   UNL     1       8.855  12.439  23.222  0.00  0.00    +0.000 A 
ENDBRANCH   2  13
BRANCH   1  22
ATOM     20  C   UNL     1       9.700  10.115  19.003  0.00  0.00    +0.000 C 
ATOM     21  C   UNL     1       9.999  11.483  18.324  0.00  0.00    +0.000 C 
ATOM     22  C   UNL     1       8.961  12.107  19.277  0.00  0.00    +0.000 C 
ATOM     23  C   UNL     1       9.300  10.952  20.257  0.00  0.00    +0.000 C 
BRANCH  20  30
ATOM     24  C   UNL     1       5.121   6.339  15.940  0.00  0.00    +0.000 C 
ATOM     25  C   UNL     1       6.126   6.248  17.008  0.00  0.00    +0.000 A 
ATOM     26  C   UNL     1       6.534   5.293  17.909  0.00  0.00    +0.000 A 
ATOM     27  N   UNL     1       7.580   5.778  18.664  0.00  0.00    +0.000 NA
ATOM     28  C   UNL     1       7.725   7.013  18.235  0.00  0.00    +0.000 A 
ATOM     29  N   UNL     1       8.631   7.919  18.703  0.00  0.00    +0.000 N 
ATOM     30  C   UNL     1       8.578   9.249  18.354  0.00  0.00    +0.000 C 
ATOM     31  O   UNL     1       7.724   9.747  17.615  0.00  0.00    +0.000 OA
ATOM     32  O   UNL     1       6.887   7.357  17.219  0.00  0.00    +0.000 OA
ATOM     33  H   UNL     1       9.281   7.567  19.388  0.00  0.00    +0.000 HD
ENDBRANCH  20  30
ENDBRANCH   1  22
TORSDOF 3
ENDMDL
