MODEL 1
REMARK VINA RESULT:      -8.7      0.000      0.000
REMARK  Name = 
REMARK  4 active torsions:
REMARK  status: ('A' for Active; 'I' for Inactive)
REMARK    1  A    between atoms: C_1  and  C_2
REMARK    2  A    between atoms: C_9  and  C_10
REMARK    3  A    between atoms: C_10  and  C_11
REMARK    4  A    between atoms: C_19  and  C_20
REMARK                            x       y       z     vdW  Elec       q    Type
REMARK                         _______ _______ _______ _____ _____    ______ ____
ROOT
ATOM      1  C   UNL     1       2.202   7.731  19.125  0.00  0.00    +0.000 A 
ATOM      2  C   UNL     1       1.909   7.490  20.470  0.00  0.00    +0.000 A 
ATOM      3  C   UNL     1       1.135   8.375  21.221  0.00  0.00    +0.000 A 
ATOM      4  C   UNL     1       0.624   9.529  20.599  0.00  0.00    +0.000 A 
ATOM      5  C   UNL     1       0.831   9.753  19.235  0.00  0.00    +0.000 A 
ATOM      6  C   UNL     1       0.118  10.928  18.898  0.00  0.00    +0.000 A 
ATOM      7  C   UNL     1      -0.459  11.415  20.049  0.00  0.00    +0.000 A 
ATOM      8  N   UNL     1      -0.109  10.608  21.123  0.00  0.00    +0.000 N 
ATOM      9  C   UNL     1      -0.395  10.812  22.495  0.00  0.00    +0.000 C 
ATOM     10  C   UNL     1      -1.219  12.006  22.881  0.00  0.00    +0.000 C 
ATOM     11  O   UNL     1       0.050  10.039  23.342  0.00  0.00    +0.000 OA
ATOM     12  C   UNL     1       1.633   8.852  18.495  0.00  0.00    +0.000 A 
ENDROOT
BRANCH   1  13
ATOM     13  C   UNL     1       3.145   6.798  18.392  0.00  0.00    +0.000 C 
BRANCH  13  22
ATOM     14  C   UNL     1       6.910   7.254  17.419  0.00  0.00    +0.000 C 
ATOM     15  C   UNL     1       6.239   6.094  16.726  0.00  0.00    +0.000 C 
ATOM     16  O   UNL     1       6.421   5.938  15.516  0.00  0.00    +0.000 OA
ATOM     17  N   UNL     1       5.474   5.216  17.484  0.00  0.00    +0.000 N 
ATOM     18  C   UNL     1       5.024   3.973  16.841  0.00  0.00    +0.000 C 
ATOM     19  C   UNL     1       3.554   3.630  17.075  0.00  0.00    +0.000 C 
ATOM     20  O   UNL     1       3.348   3.292  18.444  0.00  0.00    +0.000 OA
ATOM     21  C   UNL     1       2.873   4.363  19.253  0.00  0.00    +0.000 C 
ATOM     22  C   UNL     1       3.727   5.649  19.255  0.00  0.00    +0.000 C 
ATOM     23  C   UNL     1       5.206   5.353  18.924  0.00  0.00    +0.000 C 
ENDBRANCH  13  22
ENDBRANCH   1  13
TORSDOF 2
ENDMDL
MODEL 2
REMARK VINA RESULT:      -8.6      1.450      2.026
REMARK  Name = 
REMARK  4 active torsions:
REMARK  status: ('A' for Active; 'I' for Inactive)
REMARK    1  A    between atoms: C_1  and  C_2
REMARK    2  A    between atoms: C_9  and  C_10
REMARK    3  A    between atoms: C_10  and  C_11
REMARK    4  A    between atoms: C_19  and  C_20
REMARK                            x       y       z     vdW  Elec       q    Type
REMARK                         _______ _______ _______ _____ _____    ______ ____
ROOT
ATOM      1  C   UNL     1       2.643   7.733  18.513  0.00  0.00    +0.000 A 
ATOM      2  C   UNL     1       2.247   8.819  17.730  0.00  0.00    +0.000 A 
ATOM      3  C   UNL     1       1.327   9.761  18.194  0.00  0.00    +0.000 A 
ATOM      4  C   UNL     1       0.802   9.617  19.491  0.00  0.00    +0.000 A 
ATOM      5  C   UNL     1       1.243   8.587  20.327  0.00  0.00    +0.000 A 
ATOM      6  C   UNL     1       0.609   8.772  21.578  0.00  0.00    +0.000 A 
ATOM      7  C   UNL     1      -0.227   9.861  21.469  0.00  0.00    +0.000 A 
ATOM      8  N   UNL     1      -0.176  10.360  20.175  0.00  0.00    +0.000 N 
ATOM      9  C   UNL     1      -0.958  11.397  19.610  0.00  0.00    +0.000 C 
ATOM     10  C   UNL     1      -1.940  12.110  20.492  0.00  0.00    +0.000 C 
ATOM     11  O   UNL     1      -0.845  11.678  18.418  0.00  0.00    +0.000 OA
ATOM     12  C   UNL     1       2.164   7.633  19.831  0.00  0.00    +0.000 A 
ENDROOT
BRANCH   1  13
ATOM     13  C   UNL     1       3.552   6.677  17.915  0.00  0.00    +0.000 C 
BRANCH  13  22
ATOM     14  C   UNL     1       7.398   7.366  17.665  0.00  0.00    +0.000 C 
ATOM     15  C   UNL     1       6.947   6.151  16.893  0.00  0.00    +0.000 C 
ATOM     16  O   UNL     1       7.367   5.984  15.745  0.00  0.00    +0.000 OA
ATOM     17  N   UNL     1       6.106   5.239  17.519  0.00  0.00    +0.000 N 
ATOM     18  C   UNL     1       5.867   3.956  16.841  0.00  0.00    +0.000 C 
ATOM     19  C   UNL     1       4.403   3.520  16.801  0.00  0.00    +0.000 C 
ATOM     20  O   UNL     1       3.958   3.195  18.115  0.00  0.00    +0.000 OA
ATOM     21  C   UNL     1       3.271   4.247  18.785  0.00  0.00    +0.000 C 
ATOM     22  C   UNL     1       4.028   5.586  18.909  0.00  0.00    +0.000 C 
ATOM     23  C   UNL     1       5.558   5.384  18.876  0.00  0.00    +0.000 C 
ENDBRANCH  13  22
ENDBRANCH   1  13
TORSDOF 2
ENDMDL
MODEL 3
REMARK VINA RESULT:      -8.2      2.027      3.614
REMARK  Name = 
REMARK  4 active torsions:
REMARK  status: ('A' for Active; 'I' for Inactive)
REMARK    1  A    between atoms: C_1  and  C_2
REMARK    2  A    between atoms: C_9  and  C_10
REMARK    3  A    between atoms: C_10  and  C_11
REMARK    4  A    between atoms: C_19  and  C_20
REMARK                            x       y       z     vdW  Elec       q    Type
REMARK                         _______ _______ _______ _____ _____    ______ ____
ROOT
ATOM      1  C   UNL     1       2.080   7.691  19.769  0.00  0.00    +0.000 A 
ATOM      2  C   UNL     1       1.818   8.489  18.653  0.00  0.00    +0.000 A 
ATOM      3  C   UNL     1       0.948   9.579  18.719  0.00  0.00    +0.000 A 
ATOM      4  C   UNL     1       0.335   9.887  19.947  0.00  0.00    +0.000 A 
ATOM      5  C   UNL     1       0.643   9.157  21.098  0.00  0.00    +0.000 A 
ATOM      6  C   UNL     1      -0.050   9.767  22.170  0.00  0.00    +0.000 A 
ATOM      7  C   UNL     1      -0.790  10.807  21.655  0.00  0.00    +0.000 A 
ATOM      8  N   UNL     1      -0.621  10.862  20.278  0.00  0.00    +0.000 N 
ATOM      9  C   UNL     1      -1.284  11.704  19.353  0.00  0.00    +0.000 C 
ATOM     10  C   UNL     1      -2.260  12.715  19.881  0.00  0.00    +0.000 C 
ATOM     11  O   UNL     1      -1.077  11.582  18.147  0.00  0.00    +0.000 OA
ATOM     12  C   UNL     1       1.515   8.045  21.007  0.00  0.00    +0.000 A 
ENDROOT
BRANCH   1  13
ATOM     13  C   UNL     1       2.938   6.452  19.611  0.00  0.00    +0.000 C 
BRANCH  13  22
ATOM     14  C   UNL     1       1.134   3.257  20.975  0.00  0.00    +0.000 C 
ATOM     15  C   UNL     1       2.592   3.041  20.658  0.00  0.00    +0.000 C 
ATOM     16  O   UNL     1       3.295   2.431  21.467  0.00  0.00    +0.000 OA
ATOM     17  N   UNL     1       3.085   3.502  19.442  0.00  0.00    +0.000 N 
ATOM     18  C   UNL     1       4.438   3.082  19.052  0.00  0.00    +0.000 C 
ATOM     19  C   UNL     1       5.325   4.207  18.517  0.00  0.00    +0.000 C 
ATOM     20  O   UNL     1       4.830   4.656  17.258  0.00  0.00    +0.000 OA
ATOM     21  C   UNL     1       3.997   5.809  17.328  0.00  0.00    +0.000 C 
ATOM     22  C   UNL     1       2.770   5.710  18.259  0.00  0.00    +0.000 C 
ATOM     23  C   UNL     1       2.307   4.249  18.441  0.00  0.00    +0.000 C 
ENDBRANCH  13  22
ENDBRANCH   1  13
TORSDOF 2
ENDMDL
MODEL 4
REMARK VINA RESULT:      -8.2      1.029      1.066
REMARK  Name = 
REMARK  4 active torsions:
REMARK  status: ('A' for Active; 'I' for Inactive)
REMARK    1  A    between atoms: C_1  and  C_2
REMARK    2  A    between atoms: C_9  and  C_10
REMARK    3  A    between atoms: C_10  and  C_11
REMARK    4  A    between atoms: C_19  and  C_20
REMARK                            x       y       z     vdW  Elec       q    Type
REMARK                         _______ _______ _______ _____ _____    ______ ____
ROOT
ATOM      1  C   UNL     1       2.103   7.522  19.493  0.00  0.00    +0.000 A 
ATOM      2  C   UNL     1       1.647   7.436  20.811  0.00  0.00    +0.000 A 
ATOM      3  C   UNL     1       0.924   8.472  21.404  0.00  0.00    +0.000 A 
ATOM      4  C   UNL     1       0.634   9.621  20.647  0.00  0.00    +0.000 A 
ATOM      5  C   UNL     1       1.005   9.699  19.302  0.00  0.00    +0.000 A 
ATOM      6  C   UNL     1       0.490  10.918  18.802  0.00  0.00    +0.000 A 
ATOM      7  C   UNL     1      -0.131  11.570  19.843  0.00  0.00    +0.000 A 
ATOM      8  N   UNL     1      -0.000  10.823  21.005  0.00  0.00    +0.000 N 
ATOM      9  C   UNL     1      -0.394  11.179  22.318  0.00  0.00    +0.000 C 
ATOM     10  C   UNL     1      -1.089  12.494  22.522  0.00  0.00    +0.000 C 
ATOM     11  O   UNL     1      -0.142  10.434  23.264  0.00  0.00    +0.000 OA
ATOM     12  C   UNL     1       1.753   8.645  18.723  0.00  0.00    +0.000 A 
ENDROOT
BRANCH   1  13
ATOM     13  C   UNL     1       2.985   6.420  18.939  0.00  0.00    +0.000 C 
BRANCH  13  22
ATOM     14  C   UNL     1       6.796   5.528  18.981  0.00  0.00    +0.000 C 
ATOM     15  C   UNL     1       6.007   4.769  17.943  0.00  0.00    +0.000 C 
ATOM     16  O   UNL     1       6.464   4.668  16.803  0.00  0.00    +0.000 OA
ATOM     17  N   UNL     1       4.808   4.175  18.321  0.00  0.00    +0.000 N 
ATOM     18  C   UNL     1       4.174   3.253  17.367  0.00  0.00    +0.000 C 
ATOM     19  C   UNL     1       2.672   3.463  17.181  0.00  0.00    +0.000 C 
ATOM     20  O   UNL     1       1.981   3.102  18.374  0.00  0.00    +0.000 OA
ATOM     21  C   UNL     1       1.681   4.194  19.237  0.00  0.00    +0.000 C 
ATOM     22  C   UNL     1       2.876   5.063  19.682  0.00  0.00    +0.000 C 
ATOM     23  C   UNL     1       4.200   4.269  19.657  0.00  0.00    +0.000 C 
ENDBRANCH  13  22
ENDBRANCH   1  13
TORSDOF 2
ENDMDL
MODEL 5
REMARK VINA RESULT:      -8.2      1.644      2.195
REMARK  Name = 
REMARK  4 active torsions:
REMARK  status: ('A' for Active; 'I' for Inactive)
REMARK    1  A    between atoms: C_1  and  C_2
REMARK    2  A    between atoms: C_9  and  C_10
REMARK    3  A    between atoms: C_10  and  C_11
REMARK    4  A    between atoms: C_19  and  C_20
REMARK                            x       y       z     vdW  Elec       q    Type
REMARK                         _______ _______ _______ _____ _____    ______ ____
ROOT
ATOM      1  C   UNL     1       2.260   7.754  18.857  0.00  0.00    +0.000 A 
ATOM      2  C   UNL     1       1.851   8.669  17.884  0.00  0.00    +0.000 A 
ATOM      3  C   UNL     1       0.973   9.712  18.183  0.00  0.00    +0.000 A 
ATOM      4  C   UNL     1       0.504   9.851  19.502  0.00  0.00    +0.000 A 
ATOM      5  C   UNL     1       0.961   9.000  20.512  0.00  0.00    +0.000 A 
ATOM      6  C   UNL     1       0.388   9.455  21.723  0.00  0.00    +0.000 A 
ATOM      7  C   UNL     1      -0.429  10.522  21.427  0.00  0.00    +0.000 A 
ATOM      8  N   UNL     1      -0.426  10.746  20.057  0.00  0.00    +0.000 N 
ATOM      9  C   UNL     1      -1.211  11.669  19.324  0.00  0.00    +0.000 C 
ATOM     10  C   UNL     1      -2.137  12.576  20.081  0.00  0.00    +0.000 C 
ATOM     11  O   UNL     1      -1.146  11.698  18.097  0.00  0.00    +0.000 OA
ATOM     12  C   UNL     1       1.839   7.938  20.186  0.00  0.00    +0.000 A 
ENDROOT
BRANCH   1  13
ATOM     13  C   UNL     1       3.119   6.572  18.451  0.00  0.00    +0.000 C 
BRANCH  13  22
ATOM     14  C   UNL     1       6.926   5.664  18.419  0.00  0.00    +0.000 C 
ATOM     15  C   UNL     1       6.078   4.752  17.569  0.00  0.00    +0.000 C 
ATOM     16  O   UNL     1       6.468   4.458  16.436  0.00  0.00    +0.000 OA
ATOM     17  N   UNL     1       4.904   4.239  18.110  0.00  0.00    +0.000 N 
ATOM     18  C   UNL     1       4.216   3.178  17.360  0.00  0.00    +0.000 C 
ATOM     19  C   UNL     1       2.705   3.368  17.229  0.00  0.00    +0.000 C 
ATOM     20  O   UNL     1       2.085   3.216  18.503  0.00  0.00    +0.000 OA
ATOM     21  C   UNL     1       1.835   4.439  19.188  0.00  0.00    +0.000 C 
ATOM     22  C   UNL     1       3.054   5.358  19.414  0.00  0.00    +0.000 C 
ATOM     23  C   UNL     1       4.375   4.559  19.444  0.00  0.00    +0.000 C 
ENDBRANCH  13  22
ENDBRANCH   1  13
TORSDOF 2
ENDMDL
MODEL 6
REMARK VINA RESULT:      -8.1      1.461      2.935
REMARK  Name = 
REMARK  4 active torsions:
REMARK  status: ('A' for Active; 'I' for Inactive)
REMARK    1  A    between atoms: C_1  and  C_2
REMARK    2  A    between atoms: C_9  and  C_10
REMARK    3  A    between atoms: C_10  and  C_11
REMARK    4  A    between atoms: C_19  and  C_20
REMARK                            x       y       z     vdW  Elec       q    Type
REMARK                         _______ _______ _______ _____ _____    ______ ____
ROOT
ATOM      1  C   UNL     1       2.142   7.699  19.789  0.00  0.00    +0.000 A 
ATOM      2  C   UNL     1       1.695   7.684  21.113  0.00  0.00    +0.000 A 
ATOM      3  C   UNL     1       0.848   8.676  21.610  0.00  0.00    +0.000 A 
ATOM      4  C   UNL     1       0.422   9.703  20.749  0.00  0.00    +0.000 A 
ATOM      5  C   UNL     1       0.787   9.697  19.400  0.00  0.00    +0.000 A 
ATOM      6  C   UNL     1       0.128  10.791  18.790  0.00  0.00    +0.000 A 
ATOM      7  C   UNL     1      -0.573  11.458  19.769  0.00  0.00    +0.000 A 
ATOM      8  N   UNL     1      -0.356  10.847  20.997  0.00  0.00    +0.000 N 
ATOM      9  C   UNL     1      -0.795  11.276  22.272  0.00  0.00    +0.000 C 
ATOM     10  C   UNL     1      -1.648  12.509  22.356  0.00  0.00    +0.000 C 
ATOM     11  O   UNL     1      -0.458  10.661  23.282  0.00  0.00    +0.000 OA
ATOM     12  C   UNL     1       1.661   8.692  18.918  0.00  0.00    +0.000 A 
ENDROOT
BRANCH   1  13
ATOM     13  C   UNL     1       3.155   6.666  19.336  0.00  0.00    +0.000 C 
BRANCH  13  22
ATOM     14  C   UNL     1       0.819   3.665  20.266  0.00  0.00    +0.000 C 
ATOM     15  C   UNL     1       2.239   3.257  19.960  0.00  0.00    +0.000 C 
ATOM     16  O   UNL     1       2.803   2.454  20.708  0.00  0.00    +0.000 OA
ATOM     17  N   UNL     1       2.848   3.769  18.821  0.00  0.00    +0.000 N 
ATOM     18  C   UNL     1       4.136   3.186  18.416  0.00  0.00    +0.000 C 
ATOM     19  C   UNL     1       5.208   4.208  18.041  0.00  0.00    +0.000 C 
ATOM     20  O   UNL     1       4.844   4.872  16.833  0.00  0.00    +0.000 OA
ATOM     21  C   UNL     1       4.198   6.127  17.020  0.00  0.00    +0.000 C 
ATOM     22  C   UNL     1       2.931   6.120  17.902  0.00  0.00    +0.000 C 
ATOM     23  C   UNL     1       2.240   4.739  17.898  0.00  0.00    +0.000 C 
ENDBRANCH  13  22
ENDBRANCH   1  13
TORSDOF 2
ENDMDL
MODEL 7
REMARK VINA RESULT:      -7.9      1.233      2.680
REMARK  Name = 
REMARK  4 active torsions:
REMARK  status: ('A' for Active; 'I' for Inactive)
REMARK    1  A    between atoms: C_1  and  C_2
REMARK    2  A    between atoms: C_9  and  C_10
REMARK    3  A    between atoms: C_10  and  C_11
REMARK    4  A    between atoms: C_19  and  C_20
REMARK                            x       y       z     vdW  Elec       q    Type
REMARK                         _______ _______ _______ _____ _____    ______ ____
ROOT
ATOM      1  C   UNL     1       2.020   7.499  19.869  0.00  0.00    +0.000 A 
ATOM      2  C   UNL     1       1.482   7.574  21.156  0.00  0.00    +0.000 A 
ATOM      3  C   UNL     1       0.752   8.686  21.581  0.00  0.00    +0.000 A 
ATOM      4  C   UNL     1       0.540   9.746  20.681  0.00  0.00    +0.000 A 
ATOM      5  C   UNL     1       0.995   9.660  19.362  0.00  0.00    +0.000 A 
ATOM      6  C   UNL     1       0.544  10.824  18.695  0.00  0.00    +0.000 A 
ATOM      7  C   UNL     1      -0.122  11.604  19.613  0.00  0.00    +0.000 A 
ATOM      8  N   UNL     1      -0.082  10.993  20.859  0.00  0.00    +0.000 N 
ATOM      9  C   UNL     1      -0.546  11.506  22.095  0.00  0.00    +0.000 C 
ATOM     10  C   UNL     1      -1.217  12.848  22.103  0.00  0.00    +0.000 C 
ATOM     11  O   UNL     1      -0.373  10.869  23.133  0.00  0.00    +0.000 OA
ATOM     12  C   UNL     1       1.748   8.532  18.955  0.00  0.00    +0.000 A 
ENDROOT
BRANCH   1  13
ATOM     13  C   UNL     1       2.904   6.324  19.502  0.00  0.00    +0.000 C 
BRANCH  13  22
ATOM     14  C   UNL     1       2.606   2.420  19.475  0.00  0.00    +0.000 C 
ATOM     15  C   UNL     1       4.024   2.922  19.361  0.00  0.00    +0.000 C 
ATOM     16  O   UNL     1       4.901   2.392  20.048  0.00  0.00    +0.000 OA
ATOM     17  N   UNL     1       4.300   3.937  18.452  0.00  0.00    +0.000 N 
ATOM     18  C   UNL     1       5.713   4.249  18.188  0.00  0.00    +0.000 C 
ATOM     19  C   UNL     1       6.046   5.740  18.189  0.00  0.00    +0.000 C 
ATOM     20  O   UNL     1       5.436   6.374  17.068  0.00  0.00    +0.000 OA
ATOM     21  C   UNL     1       4.189   7.001  17.349  0.00  0.00    +0.000 C 
ATOM     22  C   UNL     1       3.100   6.107  17.978  0.00  0.00    +0.000 C 
ATOM     23  C   UNL     1       3.302   4.620  17.615  0.00  0.00    +0.000 C 
ENDBRANCH  13  22
ENDBRANCH   1  13
TORSDOF 2
ENDMDL
MODEL 8
REMARK VINA RESULT:      -7.8      1.727      3.284
REMARK  Name = 
REMARK  4 active torsions:
REMARK  status: ('A' for Active; 'I' for Inactive)
REMARK    1  A    between atoms: C_1  and  C_2
REMARK    2  A    between atoms: C_9  and  C_10
REMARK    3  A    between atoms: C_10  and  C_11
REMARK    4  A    between atoms: C_19  and  C_20
REMARK                            x       y       z     vdW  Elec       q    Type
REMARK                         _______ _______ _______ _____ _____    ______ ____
ROOT
ATOM      1  C   UNL     1       2.137   7.553  19.594  0.00  0.00    +0.000 A 
ATOM      2  C   UNL     1       1.886   8.453  18.556  0.00  0.00    +0.000 A 
ATOM      3  C   UNL     1       1.052   9.559  18.730  0.00  0.00    +0.000 A 
ATOM      4  C   UNL     1       0.468   9.779  19.991  0.00  0.00    +0.000 A 
ATOM      5  C   UNL     1       0.768   8.942  21.070  0.00  0.00    +0.000 A 
ATOM      6  C   UNL     1       0.111   9.479  22.202  0.00  0.00    +0.000 A 
ATOM      7  C   UNL     1      -0.602  10.582  21.791  0.00  0.00    +0.000 A 
ATOM      8  N   UNL     1      -0.451  10.750  20.421  0.00  0.00    +0.000 N 
ATOM      9  C   UNL     1      -1.100  11.690  19.583  0.00  0.00    +0.000 C 
ATOM     10  C   UNL     1      -2.034  12.682  20.212  0.00  0.00    +0.000 C 
ATOM     11  O   UNL     1      -0.915  11.666  18.367  0.00  0.00    +0.000 OA
ATOM     12  C   UNL     1       1.602   7.816  20.868  0.00  0.00    +0.000 A 
ENDROOT
BRANCH   1  13
ATOM     13  C   UNL     1       2.953   6.306  19.316  0.00  0.00    +0.000 C 
BRANCH  13  22
ATOM     14  C   UNL     1       2.664   2.402  19.323  0.00  0.00    +0.000 C 
ATOM     15  C   UNL     1       4.086   2.906  19.330  0.00  0.00    +0.000 C 
ATOM     16  O   UNL     1       4.898   2.389  20.102  0.00  0.00    +0.000 OA
ATOM     17  N   UNL     1       4.442   3.907  18.434  0.00  0.00    +0.000 N 
ATOM     18  C   UNL     1       5.872   4.220  18.295  0.00  0.00    +0.000 C 
ATOM     19  C   UNL     1       6.201   5.712  18.303  0.00  0.00    +0.000 C 
ATOM     20  O   UNL     1       5.695   6.327  17.121  0.00  0.00    +0.000 OA
ATOM     21  C   UNL     1       4.426   6.954  17.278  0.00  0.00    +0.000 C 
ATOM     22  C   UNL     1       3.286   6.066  17.820  0.00  0.00    +0.000 C 
ATOM     23  C   UNL     1       3.523   4.574  17.500  0.00  0.00    +0.000 C 
ENDBRANCH  13  22
ENDBRANCH   1  13
TORSDOF 2
ENDMDL
MODEL 9
REMARK VINA RESULT:      -7.5      2.586      7.689
REMARK  Name = 
REMARK  4 active torsions:
REMARK  status: ('A' for Active; 'I' for Inactive)
REMARK    1  A    between atoms: C_1  and  C_2
REMARK    2  A    between atoms: C_9  and  C_10
REMARK    3  A    between atoms: C_10  and  C_11
REMARK    4  A    between atoms: C_19  and  C_20
REMARK                            x       y       z     vdW  Elec       q    Type
REMARK                         _______ _______ _______ _____ _____    ______ ____
ROOT
ATOM      1  C   UNL     1       1.853   8.625  18.733  0.00  0.00    +0.000 A 
ATOM      2  C   UNL     1       1.616   7.923  19.917  0.00  0.00    +0.000 A 
ATOM      3  C   UNL     1       2.162   6.657  20.139  0.00  0.00    +0.000 A 
ATOM      4  C   UNL     1       2.984   6.087  19.150  0.00  0.00    +0.000 A 
ATOM      5  C   UNL     1       3.304   6.802  17.993  0.00  0.00    +0.000 A 
ATOM      6  C   UNL     1       4.214   6.007  17.256  0.00  0.00    +0.000 A 
ATOM      7  C   UNL     1       4.389   4.825  17.941  0.00  0.00    +0.000 A 
ATOM      8  N   UNL     1       3.593   4.823  19.078  0.00  0.00    +0.000 N 
ATOM      9  C   UNL     1       3.389   3.763  19.995  0.00  0.00    +0.000 C 
ATOM     10  C   UNL     1       4.145   2.483  19.786  0.00  0.00    +0.000 C 
ATOM     11  O   UNL     1       2.589   3.891  20.921  0.00  0.00    +0.000 OA
ATOM     12  C   UNL     1       2.727   8.077  17.778  0.00  0.00    +0.000 A 
ENDROOT
BRANCH   1  13
ATOM     13  C   UNL     1       1.139   9.942  18.496  0.00  0.00    +0.000 C 
BRANCH  13  22
ATOM     14  C   UNL     1      -2.676   9.649  17.668  0.00  0.00    +0.000 C 
ATOM     15  C   UNL     1      -2.109  11.029  17.441  0.00  0.00    +0.000 C 
ATOM     16  O   UNL     1      -2.398  11.629  16.403  0.00  0.00    +0.000 OA
ATOM     17  N   UNL     1      -1.314  11.593  18.431  0.00  0.00    +0.000 N 
ATOM     18  C   UNL     1      -0.965  13.015  18.296  0.00  0.00    +0.000 C 
ATOM     19  C   UNL     1       0.507  13.337  18.551  0.00  0.00    +0.000 C 
ATOM     20  O   UNL     1       0.817  13.133  19.927  0.00  0.00    +0.000 OA
ATOM     21  C   UNL     1       1.396  11.866  20.220  0.00  0.00    +0.000 C 
ATOM     22  C   UNL     1       0.592  10.626  19.775  0.00  0.00    +0.000 C 
ATOM     23  C   UNL     1      -0.919  10.929  19.682  0.00  0.00    +0.000 C 
ENDBRANCH  13  22
ENDBRANCH   1  13
TORSDOF 2
ENDMDL
