MODEL 1
REMARK VINA RESULT:      -8.1      0.000      0.000
REMARK  Name = 
REMARK  5 active torsions:
REMARK  status: ('A' for Active; 'I' for Inactive)
REMARK    1  A    between atoms: C_4  and  C_5
REMARK    2  A    between atoms: C_9  and  C_10
REMARK    3  A    between atoms: C_15  and  C_16
REMARK    4  A    between atoms: C_16  and  O_17
REMARK    5  A    between atoms: C_20  and  N_21
REMARK                            x       y       z     vdW  Elec       q    Type
REMARK                         _______ _______ _______ _____ _____    ______ ____
ROOT
ATOM      1  C   UNL     1       2.130   6.471  19.954  0.00  0.00    +0.000 A 
ATOM      2  C   UNL     1       1.646   5.350  20.625  0.00  0.00    +0.000 A 
ATOM      3  C   UNL     1       2.267   4.123  20.437  0.00  0.00    +0.000 A 
ATOM      4  C   UNL     1       3.373   4.021  19.585  0.00  0.00    +0.000 A 
ATOM      5  C   UNL     1       3.819   5.101  18.800  0.00  0.00    +0.000 A 
ATOM      6  C   UNL     1       3.162   6.331  19.013  0.00  0.00    +0.000 A 
ENDROOT
BRANCH   1  10
ATOM      7  O   UNL     1       0.144   9.381  23.126  0.00  0.00    +0.000 OA
ATOM      8  C   UNL     1       0.637   9.272  22.004  0.00  0.00    +0.000 A 
ATOM      9  C   UNL     1       1.173   7.992  21.547  0.00  0.00    +0.000 A 
ATOM     10  C   UNL     1       1.637   7.810  20.308  0.00  0.00    +0.000 A 
ATOM     11  S   UNL     1       1.676   8.956  19.044  0.00  0.00    +0.000 S 
ATOM     12  C   UNL     1       1.196  10.442  19.851  0.00  0.00    +0.000 A 
ATOM     13  C   UNL     1       0.743  10.440  21.117  0.00  0.00    +0.000 A 
BRANCH  12  14
ATOM     14  N   UNL     1       1.305  11.672  19.180  0.00  0.00    +0.000 N 
ATOM     15  C   UNL     1       2.374  11.940  18.194  0.00  0.00    +0.000 C 
ATOM     16  C   UNL     1       2.758  13.423  18.274  0.00  0.00    +0.000 C 
ATOM     17  O   UNL     1       1.625  14.272  18.027  0.00  0.00    +0.000 OA
ATOM     18  C   UNL     1       0.582  14.011  18.983  0.00  0.00    +0.000 C 
ATOM     19  C   UNL     1       0.135  12.543  18.943  0.00  0.00    +0.000 C 
ENDBRANCH  12  14
ENDBRANCH   1  10
BRANCH   5  20
ATOM     20  C   UNL     1       4.946   5.002  17.822  0.00  0.00    +0.000 A 
ATOM     21  C   UNL     1       4.639   4.702  16.469  0.00  0.00    +0.000 A 
ATOM     22  C   UNL     1       5.618   4.549  15.484  0.00  0.00    +0.000 A 
ATOM     23  C   UNL     1       6.948   4.734  15.809  0.00  0.00    +0.000 A 
ATOM     24  C   UNL     1       7.294   5.053  17.118  0.00  0.00    +0.000 A 
ATOM     25  C   UNL     1       6.325   5.157  18.145  0.00  0.00    +0.000 A 
BRANCH  25  26
ATOM     26  C   UNL     1       6.825   5.485  19.537  0.00  0.00    +0.000 C 
BRANCH  26  27
ATOM     27  O   UNL     1       8.245   5.455  19.627  0.00  0.00    +0.000 OA
ATOM     28  H   UNL     1       8.547   4.855  18.923  0.00  0.00    +0.000 HD
ENDBRANCH  26  27
ENDBRANCH  25  26
ENDBRANCH   5  20
TORSDOF 5
ENDMDL
MODEL 2
REMARK VINA RESULT:      -8.0      2.219      3.698
REMARK  Name = 
REMARK  5 active torsions:
REMARK  status: ('A' for Active; 'I' for Inactive)
REMARK    1  A    between atoms: C_4  and  C_5
REMARK    2  A    between atoms: C_9  and  C_10
REMARK    3  A    between atoms: C_15  and  C_16
REMARK    4  A    between atoms: C_16  and  O_17
REMARK    5  A    between atoms: C_20  and  N_21
REMARK                            x       y       z     vdW  Elec       q    Type
REMARK                         _______ _______ _______ _____ _____    ______ ____
ROOT
ATOM      1  C   UNL     1       1.619   8.764  19.555  0.00  0.00    +0.000 A 
ATOM      2  C   UNL     1       2.116   9.060  18.288  0.00  0.00    +0.000 A 
ATOM      3  C   UNL     1       2.662   8.044  17.516  0.00  0.00    +0.000 A 
ATOM      4  C   UNL     1       2.702   6.734  18.009  0.00  0.00    +0.000 A 
ATOM      5  C   UNL     1       2.319   6.415  19.325  0.00  0.00    +0.000 A 
ATOM      6  C   UNL     1       1.775   7.472  20.083  0.00  0.00    +0.000 A 
ENDROOT
BRANCH   1  10
ATOM      7  O   UNL     1      -0.521  10.135  23.557  0.00  0.00    +0.000 OA
ATOM      8  C   UNL     1      -0.221  10.434  22.402  0.00  0.00    +0.000 A 
ATOM      9  C   UNL     1       0.566   9.520  21.576  0.00  0.00    +0.000 A 
ATOM     10  C   UNL     1       0.839   9.768  20.293  0.00  0.00    +0.000 A 
ATOM     11  S   UNL     1       0.332  11.114  19.372  0.00  0.00    +0.000 S 
ATOM     12  C   UNL     1      -0.400  12.159  20.582  0.00  0.00    +0.000 A 
ATOM     13  C   UNL     1      -0.605  11.738  21.842  0.00  0.00    +0.000 A 
BRANCH  12  14
ATOM     14  N   UNL     1      -0.761  13.474  20.247  0.00  0.00    +0.000 N 
ATOM     15  C   UNL     1      -0.374  14.095  18.961  0.00  0.00    +0.000 C 
ATOM     16  C   UNL     1      -0.140  15.594  19.187  0.00  0.00    +0.000 C 
ATOM     17  O   UNL     1      -1.312  16.234  19.720  0.00  0.00    +0.000 OA
ATOM     18  C   UNL     1      -1.692  15.629  20.969  0.00  0.00    +0.000 C 
ATOM     19  C   UNL     1      -1.962  14.127  20.810  0.00  0.00    +0.000 C 
ENDBRANCH  12  14
ENDBRANCH   1  10
BRANCH   5  20
ATOM     20  C   UNL     1       2.427   5.041  19.906  0.00  0.00    +0.000 A 
ATOM     21  C   UNL     1       1.294   4.498  20.567  0.00  0.00    +0.000 A 
ATOM     22  C   UNL     1       1.299   3.242  21.178  0.00  0.00    +0.000 A 
ATOM     23  C   UNL     1       2.434   2.457  21.112  0.00  0.00    +0.000 A 
ATOM     24  C   UNL     1       3.562   2.938  20.454  0.00  0.00    +0.000 A 
ATOM     25  C   UNL     1       3.598   4.231  19.878  0.00  0.00    +0.000 A 
BRANCH  25  26
ATOM     26  C   UNL     1       4.890   4.653  19.209  0.00  0.00    +0.000 C 
BRANCH  26  27
ATOM     27  O   UNL     1       5.732   3.547  18.901  0.00  0.00    +0.000 OA
ATOM     28  H   UNL     1       6.214   3.793  18.093  0.00  0.00    +0.000 HD
ENDBRANCH  26  27
ENDBRANCH  25  26
ENDBRANCH   5  20
TORSDOF 5
ENDMDL
MODEL 3
REMARK VINA RESULT:      -7.9      2.535      3.860
REMARK  Name = 
REMARK  5 active torsions:
REMARK  status: ('A' for Active; 'I' for Inactive)
REMARK    1  A    between atoms: C_4  and  C_5
REMARK    2  A    between atoms: C_9  and  C_10
REMARK    3  A    between atoms: C_15  and  C_16
REMARK    4  A    between atoms: C_16  and  O_17
REMARK    5  A    between atoms: C_20  and  N_21
REMARK                            x       y       z     vdW  Elec       q    Type
REMARK                         _______ _______ _______ _____ _____    ______ ____
ROOT
ATOM      1  C   UNL     1       1.561   8.658  19.750  0.00  0.00    +0.000 A 
ATOM      2  C   UNL     1       1.856   9.227  18.514  0.00  0.00    +0.000 A 
ATOM      3  C   UNL     1       2.451   8.449  17.530  0.00  0.00    +0.000 A 
ATOM      4  C   UNL     1       2.741   7.103  17.783  0.00  0.00    +0.000 A 
ATOM      5  C   UNL     1       2.567   6.522  19.052  0.00  0.00    +0.000 A 
ATOM      6  C   UNL     1       1.966   7.343  20.029  0.00  0.00    +0.000 A 
ENDROOT
BRANCH   1  10
ATOM      7  O   UNL     1       0.332   9.506  24.250  0.00  0.00    +0.000 OA
ATOM      8  C   UNL     1       0.166   9.808  23.069  0.00  0.00    +0.000 A 
ATOM      9  C   UNL     1       0.943   9.156  22.017  0.00  0.00    +0.000 A 
ATOM     10  C   UNL     1       0.734   9.391  20.719  0.00  0.00    +0.000 A 
ATOM     11  S   UNL     1      -0.444  10.422  20.036  0.00  0.00    +0.000 S 
ATOM     12  C   UNL     1      -1.106  11.243  21.443  0.00  0.00    +0.000 A 
ATOM     13  C   UNL     1      -0.783  10.866  22.693  0.00  0.00    +0.000 A 
BRANCH  12  14
ATOM     14  N   UNL     1      -1.973  12.335  21.275  0.00  0.00    +0.000 N 
ATOM     15  C   UNL     1      -1.750  13.631  21.953  0.00  0.00    +0.000 C 
ATOM     16  C   UNL     1      -3.112  14.258  22.278  0.00  0.00    +0.000 C 
ATOM     17  O   UNL     1      -3.901  14.443  21.090  0.00  0.00    +0.000 OA
ATOM     18  C   UNL     1      -4.116  13.184  20.428  0.00  0.00    +0.000 C 
ATOM     19  C   UNL     1      -2.790  12.508  20.055  0.00  0.00    +0.000 C 
ENDBRANCH  12  14
ENDBRANCH   1  10
BRANCH   5  20
ATOM     20  C   UNL     1       2.943   5.111  19.374  0.00  0.00    +0.000 A 
ATOM     21  C   UNL     1       1.918   4.214  19.773  0.00  0.00    +0.000 A 
ATOM     22  C   UNL     1       2.166   2.887  20.133  0.00  0.00    +0.000 A 
ATOM     23  C   UNL     1       3.454   2.392  20.064  0.00  0.00    +0.000 A 
ATOM     24  C   UNL     1       4.488   3.228  19.656  0.00  0.00    +0.000 A 
ATOM     25  C   UNL     1       4.270   4.591  19.342  0.00  0.00    +0.000 A 
BRANCH  25  26
ATOM     26  C   UNL     1       5.478   5.408  18.933  0.00  0.00    +0.000 C 
BRANCH  26  27
ATOM     27  O   UNL     1       6.598   5.189  19.784  0.00  0.00    +0.000 OA
ATOM     28  H   UNL     1       6.388   5.634  20.624  0.00  0.00    +0.000 HD
ENDBRANCH  26  27
ENDBRANCH  25  26
ENDBRANCH   5  20
TORSDOF 5
ENDMDL
MODEL 4
REMARK VINA RESULT:      -7.8      1.902      3.369
REMARK  Name = 
REMARK  5 active torsions:
REMARK  status: ('A' for Active; 'I' for Inactive)
REMARK    1  A    between atoms: C_4  and  C_5
REMARK    2  A    between atoms: C_9  and  C_10
REMARK    3  A    between atoms: C_15  and  C_16
REMARK    4  A    between atoms: C_16  and  O_17
REMARK    5  A    between atoms: C_20  and  N_21
REMARK                            x       y       z     vdW  Elec       q    Type
REMARK                         _______ _______ _______ _____ _____    ______ ____
ROOT
ATOM      1  C   UNL     1       2.786   6.338  18.445  0.00  0.00    +0.000 A 
ATOM      2  C   UNL     1       2.480   5.283  19.300  0.00  0.00    +0.000 A 
ATOM      3  C   UNL     1       3.126   4.065  19.139  0.00  0.00    +0.000 A 
ATOM      4  C   UNL     1       4.081   3.908  18.128  0.00  0.00    +0.000 A 
ATOM      5  C   UNL     1       4.334   4.909  17.171  0.00  0.00    +0.000 A 
ATOM      6  C   UNL     1       3.657   6.131  17.363  0.00  0.00    +0.000 A 
ENDROOT
BRANCH   1  10
ATOM      7  O   UNL     1       2.368  10.891  17.190  0.00  0.00    +0.000 OA
ATOM      8  C   UNL     1       2.078  10.025  18.015  0.00  0.00    +0.000 A 
ATOM      9  C   UNL     1       2.506   8.641  17.824  0.00  0.00    +0.000 A 
ATOM     10  C   UNL     1       2.288   7.690  18.736  0.00  0.00    +0.000 A 
ATOM     11  S   UNL     1       1.532   7.874  20.256  0.00  0.00    +0.000 S 
ATOM     12  C   UNL     1       0.923   9.523  20.190  0.00  0.00    +0.000 A 
ATOM     13  C   UNL     1       1.252  10.353  19.186  0.00  0.00    +0.000 A 
BRANCH  12  14
ATOM     14  N   UNL     1       0.052   9.989  21.188  0.00  0.00    +0.000 N 
ATOM     15  C   UNL     1      -0.831  11.158  20.981  0.00  0.00    +0.000 C 
ATOM     16  C   UNL     1      -0.986  11.902  22.314  0.00  0.00    +0.000 C 
ATOM     17  O   UNL     1      -1.521  11.044  23.335  0.00  0.00    +0.000 OA
ATOM     18  C   UNL     1      -0.664   9.905  23.536  0.00  0.00    +0.000 C 
ATOM     19  C   UNL     1      -0.482   9.101  22.242  0.00  0.00    +0.000 C 
ENDBRANCH  12  14
ENDBRANCH   1  10
BRANCH   5  20
ATOM     20  C   UNL     1       5.289   4.741  16.032  0.00  0.00    +0.000 A 
ATOM     21  C   UNL     1       4.775   4.321  14.778  0.00  0.00    +0.000 A 
ATOM     22  C   UNL     1       5.584   4.097  13.662  0.00  0.00    +0.000 A 
ATOM     23  C   UNL     1       6.944   4.328  13.748  0.00  0.00    +0.000 A 
ATOM     24  C   UNL     1       7.489   4.764  14.951  0.00  0.00    +0.000 A 
ATOM     25  C   UNL     1       6.698   4.942  16.111  0.00  0.00    +0.000 A 
BRANCH  25  26
ATOM     26  C   UNL     1       7.408   5.397  17.369  0.00  0.00    +0.000 C 
BRANCH  26  27
ATOM     27  O   UNL     1       7.671   4.322  18.265  0.00  0.00    +0.000 OA
ATOM     28  H   UNL     1       8.460   4.581  18.772  0.00  0.00    +0.000 HD
ENDBRANCH  26  27
ENDBRANCH  25  26
ENDBRANCH   5  20
TORSDOF 5
ENDMDL
MODEL 5
REMARK VINA RESULT:      -7.7      1.773      2.966
REMARK  Name = 
REMARK  5 active torsions:
REMARK  status: ('A' for Active; 'I' for Inactive)
REMARK    1  A    between atoms: C_4  and  C_5
REMARK    2  A    between atoms: C_9  and  C_10
REMARK    3  A    between atoms: C_15  and  C_16
REMARK    4  A    between atoms: C_16  and  O_17
REMARK    5  A    between atoms: C_20  and  N_21
REMARK                            x       y       z     vdW  Elec       q    Type
REMARK                         _______ _______ _______ _____ _____    ______ ____
ROOT
ATOM      1  C   UNL     1       2.278   6.960  19.532  0.00  0.00    +0.000 A 
ATOM      2  C   UNL     1       1.745   6.052  20.443  0.00  0.00    +0.000 A 
ATOM      3  C   UNL     1       2.298   4.784  20.544  0.00  0.00    +0.000 A 
ATOM      4  C   UNL     1       3.388   4.429  19.741  0.00  0.00    +0.000 A 
ATOM      5  C   UNL     1       3.881   5.272  18.728  0.00  0.00    +0.000 A 
ATOM      6  C   UNL     1       3.292   6.551  18.650  0.00  0.00    +0.000 A 
ENDROOT
BRANCH   1  10
ATOM      7  O   UNL     1       1.999  11.186  17.400  0.00  0.00    +0.000 OA
ATOM      8  C   UNL     1       1.718  10.521  18.396  0.00  0.00    +0.000 A 
ATOM      9  C   UNL     1       2.070   9.104  18.470  0.00  0.00    +0.000 A 
ATOM     10  C   UNL     1       1.861   8.369  19.565  0.00  0.00    +0.000 A 
ATOM     11  S   UNL     1       1.203   8.897  21.050  0.00  0.00    +0.000 S 
ATOM     12  C   UNL     1       0.668  10.530  20.680  0.00  0.00    +0.000 A 
ATOM     13  C   UNL     1       0.977  11.123  19.514  0.00  0.00    +0.000 A 
BRANCH  12  14
ATOM     14  N   UNL     1      -0.121  11.236  21.603  0.00  0.00    +0.000 N 
ATOM     15  C   UNL     1      -0.585  10.629  22.870  0.00  0.00    +0.000 C 
ATOM     16  C   UNL     1      -1.967  11.201  23.214  0.00  0.00    +0.000 C 
ATOM     17  O   UNL     1      -1.928  12.634  23.329  0.00  0.00    +0.000 OA
ATOM     18  C   UNL     1      -1.473  13.225  22.099  0.00  0.00    +0.000 C 
ATOM     19  C   UNL     1      -0.083  12.710  21.704  0.00  0.00    +0.000 C 
ENDBRANCH  12  14
ENDBRANCH   1  10
BRANCH   5  20
ATOM     20  C   UNL     1       4.991   4.890  17.801  0.00  0.00    +0.000 A 
ATOM     21  C   UNL     1       4.653   4.364  16.527  0.00  0.00    +0.000 A 
ATOM     22  C   UNL     1       5.610   3.940  15.602  0.00  0.00    +0.000 A 
ATOM     23  C   UNL     1       6.952   4.068  15.902  0.00  0.00    +0.000 A 
ATOM     24  C   UNL     1       7.331   4.601  17.130  0.00  0.00    +0.000 A 
ATOM     25  C   UNL     1       6.379   4.983  18.106  0.00  0.00    +0.000 A 
BRANCH  25  26
ATOM     26  C   UNL     1       6.913   5.528  19.415  0.00  0.00    +0.000 C 
BRANCH  26  27
ATOM     27  O   UNL     1       8.185   6.149  19.269  0.00  0.00    +0.000 OA
ATOM     28  H   UNL     1       8.196   6.532  18.375  0.00  0.00    +0.000 HD
ENDBRANCH  26  27
ENDBRANCH  25  26
ENDBRANCH   5  20
TORSDOF 5
ENDMDL
MODEL 6
REMARK VINA RESULT:      -7.7      1.771      2.901
REMARK  Name = 
REMARK  5 active torsions:
REMARK  status: ('A' for Active; 'I' for Inactive)
REMARK    1  A    between atoms: C_4  and  C_5
REMARK    2  A    between atoms: C_9  and  C_10
REMARK    3  A    between atoms: C_15  and  C_16
REMARK    4  A    between atoms: C_16  and  O_17
REMARK    5  A    between atoms: C_20  and  N_21
REMARK                            x       y       z     vdW  Elec       q    Type
REMARK                         _______ _______ _______ _____ _____    ______ ____
ROOT
ATOM      1  C   UNL     1       2.314   7.006  19.365  0.00  0.00    +0.000 A 
ATOM      2  C   UNL     1       1.824   6.135  20.335  0.00  0.00    +0.000 A 
ATOM      3  C   UNL     1       2.414   4.888  20.492  0.00  0.00    +0.000 A 
ATOM      4  C   UNL     1       3.496   4.520  19.684  0.00  0.00    +0.000 A 
ATOM      5  C   UNL     1       3.944   5.320  18.617  0.00  0.00    +0.000 A 
ATOM      6  C   UNL     1       3.319   6.577  18.484  0.00  0.00    +0.000 A 
ENDROOT
BRANCH   1  10
ATOM      7  O   UNL     1       2.389  11.276  17.307  0.00  0.00    +0.000 OA
ATOM      8  C   UNL     1       1.915  10.580  18.204  0.00  0.00    +0.000 A 
ATOM      9  C   UNL     1       2.283   9.171  18.326  0.00  0.00    +0.000 A 
ATOM     10  C   UNL     1       1.859   8.403  19.334  0.00  0.00    +0.000 A 
ATOM     11  S   UNL     1       0.876   8.878  20.647  0.00  0.00    +0.000 S 
ATOM     12  C   UNL     1       0.389  10.507  20.200  0.00  0.00    +0.000 A 
ATOM     13  C   UNL     1       0.929  11.136  19.142  0.00  0.00    +0.000 A 
BRANCH  12  14
ATOM     14  N   UNL     1      -0.604  11.170  20.940  0.00  0.00    +0.000 N 
ATOM     15  C   UNL     1      -1.795  11.771  20.300  0.00  0.00    +0.000 C 
ATOM     16  C   UNL     1      -2.196  13.027  21.086  0.00  0.00    +0.000 C 
ATOM     17  O   UNL     1      -2.468  12.719  22.463  0.00  0.00    +0.000 OA
ATOM     18  C   UNL     1      -1.312  12.132  23.086  0.00  0.00    +0.000 C 
ATOM     19  C   UNL     1      -0.867  10.855  22.360  0.00  0.00    +0.000 C 
ENDBRANCH  12  14
ENDBRANCH   1  10
BRANCH   5  20
ATOM     20  C   UNL     1       5.044   4.917  17.687  0.00  0.00    +0.000 A 
ATOM     21  C   UNL     1       4.693   4.348  16.435  0.00  0.00    +0.000 A 
ATOM     22  C   UNL     1       5.641   3.902  15.510  0.00  0.00    +0.000 A 
ATOM     23  C   UNL     1       6.986   4.051  15.787  0.00  0.00    +0.000 A 
ATOM     24  C   UNL     1       7.377   4.626  16.992  0.00  0.00    +0.000 A 
ATOM     25  C   UNL     1       6.436   5.032  17.969  0.00  0.00    +0.000 A 
BRANCH  25  26
ATOM     26  C   UNL     1       6.983   5.623  19.252  0.00  0.00    +0.000 C 
BRANCH  26  27
ATOM     27  O   UNL     1       8.249   5.078  19.607  0.00  0.00    +0.000 OA
ATOM     28  H   UNL     1       8.822   5.838  19.807  0.00  0.00    +0.000 HD
ENDBRANCH  26  27
ENDBRANCH  25  26
ENDBRANCH   5  20
TORSDOF 5
ENDMDL
MODEL 7
REMARK VINA RESULT:      -7.7      3.097      4.283
REMARK  Name = 
REMARK  5 active torsions:
REMARK  status: ('A' for Active; 'I' for Inactive)
REMARK    1  A    between atoms: C_4  and  C_5
REMARK    2  A    between atoms: C_9  and  C_10
REMARK    3  A    between atoms: C_15  and  C_16
REMARK    4  A    between atoms: C_16  and  O_17
REMARK    5  A    between atoms: C_20  and  N_21
REMARK                            x       y       z     vdW  Elec       q    Type
REMARK                         _______ _______ _______ _____ _____    ______ ____
ROOT
ATOM      1  C   UNL     1       1.541   8.672  19.722  0.00  0.00    +0.000 A 
ATOM      2  C   UNL     1       1.690   9.193  18.440  0.00  0.00    +0.000 A 
ATOM      3  C   UNL     1       2.272   8.413  17.450  0.00  0.00    +0.000 A 
ATOM      4  C   UNL     1       2.695   7.112  17.743  0.00  0.00    +0.000 A 
ATOM      5  C   UNL     1       2.671   6.590  19.049  0.00  0.00    +0.000 A 
ATOM      6  C   UNL     1       2.079   7.411  20.031  0.00  0.00    +0.000 A 
ENDROOT
BRANCH   1  10
ATOM      7  O   UNL     1       0.375   9.421  24.256  0.00  0.00    +0.000 OA
ATOM      8  C   UNL     1       0.196   9.751  23.085  0.00  0.00    +0.000 A 
ATOM      9  C   UNL     1       0.956   9.119  22.008  0.00  0.00    +0.000 A 
ATOM     10  C   UNL     1       0.732   9.387  20.719  0.00  0.00    +0.000 A 
ATOM     11  S   UNL     1      -0.447  10.441  20.075  0.00  0.00    +0.000 S 
ATOM     12  C   UNL     1      -1.085  11.233  21.510  0.00  0.00    +0.000 A 
ATOM     13  C   UNL     1      -0.749  10.825  22.746  0.00  0.00    +0.000 A 
BRANCH  12  14
ATOM     14  N   UNL     1      -1.947  12.335  21.379  0.00  0.00    +0.000 N 
ATOM     15  C   UNL     1      -1.692  13.621  22.063  0.00  0.00    +0.000 C 
ATOM     16  C   UNL     1      -3.038  14.258  22.434  0.00  0.00    +0.000 C 
ATOM     17  O   UNL     1      -3.860  14.462  21.273  0.00  0.00    +0.000 OA
ATOM     18  C   UNL     1      -4.106  13.212  20.604  0.00  0.00    +0.000 C 
ATOM     19  C   UNL     1      -2.798  12.528  20.185  0.00  0.00    +0.000 C 
ENDBRANCH  12  14
ENDBRANCH   1  10
BRANCH   5  20
ATOM     20  C   UNL     1       3.191   5.234  19.408  0.00  0.00    +0.000 A 
ATOM     21  C   UNL     1       4.545   4.931  19.109  0.00  0.00    +0.000 A 
ATOM     22  C   UNL     1       5.119   3.683  19.366  0.00  0.00    +0.000 A 
ATOM     23  C   UNL     1       4.366   2.699  19.977  0.00  0.00    +0.000 A 
ATOM     24  C   UNL     1       3.041   2.959  20.310  0.00  0.00    +0.000 A 
ATOM     25  C   UNL     1       2.421   4.195  20.008  0.00  0.00    +0.000 A 
BRANCH  25  26
ATOM     26  C   UNL     1       0.966   4.354  20.398  0.00  0.00    +0.000 C 
BRANCH  26  27
ATOM     27  O   UNL     1       0.221   3.153  20.222  0.00  0.00    +0.000 OA
ATOM     28  H   UNL     1       0.338   2.642  21.041  0.00  0.00    +0.000 HD
ENDBRANCH  26  27
ENDBRANCH  25  26
ENDBRANCH   5  20
TORSDOF 5
ENDMDL
MODEL 8
REMARK VINA RESULT:      -7.7      1.588      1.841
REMARK  Name = 
REMARK  5 active torsions:
REMARK  status: ('A' for Active; 'I' for Inactive)
REMARK    1  A    between atoms: C_4  and  C_5
REMARK    2  A    between atoms: C_9  and  C_10
REMARK    3  A    between atoms: C_15  and  C_16
REMARK    4  A    between atoms: C_16  and  O_17
REMARK    5  A    between atoms: C_20  and  N_21
REMARK                            x       y       z     vdW  Elec       q    Type
REMARK                         _______ _______ _______ _____ _____    ______ ____
ROOT
ATOM      1  C   UNL     1       1.702   7.121  20.240  0.00  0.00    +0.000 A 
ATOM      2  C   UNL     1       1.410   6.053  21.086  0.00  0.00    +0.000 A 
ATOM      3  C   UNL     1       2.008   4.822  20.859  0.00  0.00    +0.000 A 
ATOM      4  C   UNL     1       2.902   4.663  19.794  0.00  0.00    +0.000 A 
ATOM      5  C   UNL     1       3.134   5.679  18.849  0.00  0.00    +0.000 A 
ATOM      6  C   UNL     1       2.506   6.915  19.107  0.00  0.00    +0.000 A 
ENDROOT
BRANCH   1  10
ATOM      7  O   UNL     1      -0.085  10.135  23.433  0.00  0.00    +0.000 OA
ATOM      8  C   UNL     1       0.365   9.995  22.297  0.00  0.00    +0.000 A 
ATOM      9  C   UNL     1       0.847   8.693  21.842  0.00  0.00    +0.000 A 
ATOM     10  C   UNL     1       1.263   8.479  20.590  0.00  0.00    +0.000 A 
ATOM     11  S   UNL     1       1.292   9.605  19.307  0.00  0.00    +0.000 S 
ATOM     12  C   UNL     1       0.883  11.117  20.108  0.00  0.00    +0.000 A 
ATOM     13  C   UNL     1       0.475  11.146  21.388  0.00  0.00    +0.000 A 
BRANCH  12  14
ATOM     14  N   UNL     1       1.006  12.333  19.415  0.00  0.00    +0.000 N 
ATOM     15  C   UNL     1       2.218  12.682  18.642  0.00  0.00    +0.000 C 
ATOM     16  C   UNL     1       2.437  14.198  18.726  0.00  0.00    +0.000 C 
ATOM     17  O   UNL     1       1.299  14.921  18.227  0.00  0.00    +0.000 OA
ATOM     18  C   UNL     1       0.118  14.580  18.975  0.00  0.00    +0.000 C 
ATOM     19  C   UNL     1      -0.172  13.075  18.917  0.00  0.00    +0.000 C 
ENDBRANCH  12  14
ENDBRANCH   1  10
BRANCH   5  20
ATOM     20  C   UNL     1       4.020   5.513  17.656  0.00  0.00    +0.000 A 
ATOM     21  C   UNL     1       4.753   6.638  17.199  0.00  0.00    +0.000 A 
ATOM     22  C   UNL     1       5.578   6.602  16.072  0.00  0.00    +0.000 A 
ATOM     23  C   UNL     1       5.736   5.416  15.381  0.00  0.00    +0.000 A 
ATOM     24  C   UNL     1       5.056   4.280  15.807  0.00  0.00    +0.000 A 
ATOM     25  C   UNL     1       4.170   4.307  16.911  0.00  0.00    +0.000 A 
BRANCH  25  26
ATOM     26  C   UNL     1       3.467   3.013  17.266  0.00  0.00    +0.000 C 
BRANCH  26  27
ATOM     27  O   UNL     1       4.341   2.068  17.875  0.00  0.00    +0.000 OA
ATOM     28  H   UNL     1       4.018   1.191  17.604  0.00  0.00    +0.000 HD
ENDBRANCH  26  27
ENDBRANCH  25  26
ENDBRANCH   5  20
TORSDOF 5
ENDMDL
MODEL 9
REMARK VINA RESULT:      -7.7      2.628      3.769
REMARK  Name = 
REMARK  5 active torsions:
REMARK  status: ('A' for Active; 'I' for Inactive)
REMARK    1  A    between atoms: C_4  and  C_5
REMARK    2  A    between atoms: C_9  and  C_10
REMARK    3  A    between atoms: C_15  and  C_16
REMARK    4  A    between atoms: C_16  and  O_17
REMARK    5  A    between atoms: C_20  and  N_21
REMARK                            x       y       z     vdW  Elec       q    Type
REMARK                         _______ _______ _______ _____ _____    ______ ____
ROOT
ATOM      1  C   UNL     1       1.058   9.195  19.294  0.00  0.00    +0.000 A 
ATOM      2  C   UNL     1       0.776   8.719  20.572  0.00  0.00    +0.000 A 
ATOM      3  C   UNL     1       1.388   7.554  21.016  0.00  0.00    +0.000 A 
ATOM      4  C   UNL     1       2.284   6.874  20.183  0.00  0.00    +0.000 A 
ATOM      5  C   UNL     1       2.507   7.255  18.847  0.00  0.00    +0.000 A 
ATOM      6  C   UNL     1       1.865   8.439  18.429  0.00  0.00    +0.000 A 
ENDROOT
BRANCH   1  10
ATOM      7  O   UNL     1      -2.446  12.062  17.889  0.00  0.00    +0.000 OA
ATOM      8  C   UNL     1      -1.259  11.972  18.197  0.00  0.00    +0.000 A 
ATOM      9  C   UNL     1      -0.697  10.694  18.630  0.00  0.00    +0.000 A 
ATOM     10  C   UNL     1       0.603  10.533  18.890  0.00  0.00    +0.000 A 
ATOM     11  S   UNL     1       1.834  11.708  18.753  0.00  0.00    +0.000 S 
ATOM     12  C   UNL     1       0.931  13.183  18.434  0.00  0.00    +0.000 A 
ATOM     13  C   UNL     1      -0.390  13.158  18.187  0.00  0.00    +0.000 A 
BRANCH  12  14
ATOM     14  N   UNL     1       1.585  14.425  18.461  0.00  0.00    +0.000 N 
ATOM     15  C   UNL     1       1.023  15.597  19.168  0.00  0.00    +0.000 C 
ATOM     16  C   UNL     1       1.409  16.869  18.401  0.00  0.00    +0.000 C 
ATOM     17  O   UNL     1       2.836  16.994  18.278  0.00  0.00    +0.000 OA
ATOM     18  C   UNL     1       3.385  15.854  17.593  0.00  0.00    +0.000 C 
ATOM     19  C   UNL     1       3.052  14.544  18.321  0.00  0.00    +0.000 C 
ENDBRANCH  12  14
ENDBRANCH   1  10
BRANCH   5  20
ATOM     20  C   UNL     1       3.396   6.502  17.910  0.00  0.00    +0.000 A 
ATOM     21  C   UNL     1       4.433   7.210  17.249  0.00  0.00    +0.000 A 
ATOM     22  C   UNL     1       5.293   6.612  16.325  0.00  0.00    +0.000 A 
ATOM     23  C   UNL     1       5.175   5.261  16.060  0.00  0.00    +0.000 A 
ATOM     24  C   UNL     1       4.189   4.521  16.702  0.00  0.00    +0.000 A 
ATOM     25  C   UNL     1       3.269   5.117  17.598  0.00  0.00    +0.000 A 
BRANCH  25  26
ATOM     26  C   UNL     1       2.223   4.213  18.219  0.00  0.00    +0.000 C 
BRANCH  26  27
ATOM     27  O   UNL     1       1.058   4.092  17.410  0.00  0.00    +0.000 OA
ATOM     28  H   UNL     1       1.375   3.972  16.498  0.00  0.00    +0.000 HD
ENDBRANCH  26  27
ENDBRANCH  25  26
ENDBRANCH   5  20
TORSDOF 5
ENDMDL
