MODEL 1
REMARK VINA RESULT:      -6.8      0.000      0.000
REMARK  Name = 
REMARK  12 active torsions:
REMARK  status: ('A' for Active; 'I' for Inactive)
REMARK    1  A    between atoms: C_1  and  C_2
REMARK    2  A    between atoms: C_2  and  C_3
REMARK    3  A    between atoms: C_3  and  N_4
REMARK    4  A    between atoms: C_8  and  C_9
REMARK    5  A    between atoms: N_11  and  C_12
REMARK    6  A    between atoms: C_12  and  C_13
REMARK    7  A    between atoms: C_13  and  C_14
REMARK    8  A    between atoms: C_14  and  C_15
REMARK    9  A    between atoms: C_15  and  C_16
REMARK   10  A    between atoms: C_25  and  O_26
REMARK   11  A    between atoms: O_26  and  C_27
REMARK   12  A    between atoms: C_27  and  C_28
REMARK                            x       y       z     vdW  Elec       q    Type
REMARK                         _______ _______ _______ _____ _____    ______ ____
ROOT
ATOM      1  N   UNL     1       0.235   9.999  19.488  0.00  0.00    +0.000 N 
ATOM      2  N   UNL     1       1.123   9.829  18.482  0.00  0.00    +0.000 NA
ATOM      3  C   UNL     1       1.787   8.709  18.798  0.00  0.00    +0.000 A 
ATOM      4  C   UNL     1       2.828   8.069  18.096  0.00  0.00    +0.000 A 
ATOM      5  C   UNL     1       3.312   6.892  18.716  0.00  0.00    +0.000 A 
ATOM      6  C   UNL     1       2.794   6.403  19.955  0.00  0.00    +0.000 A 
ATOM      7  C   UNL     1       1.754   7.020  20.673  0.00  0.00    +0.000 A 
ATOM      8  C   UNL     1       1.281   8.179  20.047  0.00  0.00    +0.000 A 
ATOM      9  C   UNL     1       0.280   9.030  20.472  0.00  0.00    +0.000 A 
ENDROOT
BRANCH   5  10
ATOM     10  C   UNL     1       4.430   6.108  18.110  0.00  0.00    +0.000 C 
ATOM     11  O   UNL     1       5.284   5.601  18.825  0.00  0.00    +0.000 OA
ATOM     12  N   UNL     1       4.406   5.970  16.739  0.00  0.00    +0.000 N 
ATOM     13  H   UNL     1       3.581   6.247  16.228  0.00  0.00    +0.000 HD
BRANCH  12  14
ATOM     14  C   UNL     1       5.392   5.172  16.036  0.00  0.00    +0.000 C 
BRANCH  14  15
ATOM     15  C   UNL     1       5.033   3.685  15.996  0.00  0.00    +0.000 C 
BRANCH  15  16
ATOM     16  C   UNL     1       3.716   3.399  16.723  0.00  0.00    +0.000 C 
BRANCH  16  17
ATOM     17  C   UNL     1       3.883   2.391  17.864  0.00  0.00    +0.000 C 
BRANCH  17  18
ATOM     18  C   UNL     1       2.956   2.737  19.008  0.00  0.00    +0.000 A 
ATOM     19  C   UNL     1       3.405   2.665  20.334  0.00  0.00    +0.000 A 
ATOM     20  C   UNL     1       2.520   2.899  21.390  0.00  0.00    +0.000 A 
ATOM     21  C   UNL     1       1.188   3.211  21.133  0.00  0.00    +0.000 A 
ATOM     22  C   UNL     1       0.738   3.300  19.815  0.00  0.00    +0.000 A 
ATOM     23  C   UNL     1       1.617   3.059  18.758  0.00  0.00    +0.000 A 
ENDBRANCH  17  18
ENDBRANCH  16  17
ENDBRANCH  15  16
ENDBRANCH  14  15
ENDBRANCH  12  14
ENDBRANCH   5  10
BRANCH   1  24
ATOM     24  C   UNL     1      -0.684  11.127  19.419  0.00  0.00    +0.000 C 
BRANCH  24  26
ATOM     25  C   UNL     1      -0.345  13.429  18.446  0.00  0.00    +0.000 C 
ATOM     26  C   UNL     1       0.019  12.474  19.575  0.00  0.00    +0.000 C 
ENDBRANCH  24  26
ENDBRANCH   1  24
BRANCH   9  27
ATOM     27  O   UNL     1      -0.564   9.112  21.516  0.00  0.00    +0.000 OA
BRANCH  27  28
ATOM     28  C   UNL     1      -0.100   9.817  22.661  0.00  0.00    +0.000 C 
ATOM     29  C   UNL     1      -1.143  10.807  23.137  0.00  0.00    +0.000 C 
ENDBRANCH  27  28
ENDBRANCH   9  27
TORSDOF 10
ENDMDL
MODEL 2
REMARK VINA RESULT:      -6.8      0.953      1.424
REMARK  Name = 
REMARK  12 active torsions:
REMARK  status: ('A' for Active; 'I' for Inactive)
REMARK    1  A    between atoms: C_1  and  C_2
REMARK    2  A    between atoms: C_2  and  C_3
REMARK    3  A    between atoms: C_3  and  N_4
REMARK    4  A    between atoms: C_8  and  C_9
REMARK    5  A    between atoms: N_11  and  C_12
REMARK    6  A    between atoms: C_12  and  C_13
REMARK    7  A    between atoms: C_13  and  C_14
REMARK    8  A    between atoms: C_14  and  C_15
REMARK    9  A    between atoms: C_15  and  C_16
REMARK   10  A    between atoms: C_25  and  O_26
REMARK   11  A    between atoms: O_26  and  C_27
REMARK   12  A    between atoms: C_27  and  C_28
REMARK                            x       y       z     vdW  Elec       q    Type
REMARK                         _______ _______ _______ _____ _____    ______ ____
ROOT
ATOM      1  N   UNL     1       0.082  10.451  18.927  0.00  0.00    +0.000 N 
ATOM      2  N   UNL     1       0.992  10.005  18.031  0.00  0.00    +0.000 NA
ATOM      3  C   UNL     1       1.568   8.951  18.624  0.00  0.00    +0.000 A 
ATOM      4  C   UNL     1       2.588   8.110  18.137  0.00  0.00    +0.000 A 
ATOM      5  C   UNL     1       2.970   7.080  19.030  0.00  0.00    +0.000 A 
ATOM      6  C   UNL     1       2.378   6.917  20.320  0.00  0.00    +0.000 A 
ATOM      7  C   UNL     1       1.356   7.740  20.828  0.00  0.00    +0.000 A 
ATOM      8  C   UNL     1       0.984   8.750  19.934  0.00  0.00    +0.000 A 
ATOM      9  C   UNL     1       0.027   9.732  20.106  0.00  0.00    +0.000 A 
ENDROOT
BRANCH   5  10
ATOM     10  C   UNL     1       4.054   6.115  18.673  0.00  0.00    +0.000 C 
ATOM     11  O   UNL     1       4.588   5.441  19.543  0.00  0.00    +0.000 OA
ATOM     12  N   UNL     1       4.367   6.017  17.335  0.00  0.00    +0.000 N 
ATOM     13  H   UNL     1       3.766   6.455  16.652  0.00  0.00    +0.000 HD
BRANCH  12  14
ATOM     14  C   UNL     1       5.349   5.066  16.850  0.00  0.00    +0.000 C 
BRANCH  14  15
ATOM     15  C   UNL     1       4.712   3.821  16.227  0.00  0.00    +0.000 C 
BRANCH  15  16
ATOM     16  C   UNL     1       3.329   3.533  16.820  0.00  0.00    +0.000 C 
BRANCH  16  17
ATOM     17  C   UNL     1       3.328   2.304  17.734  0.00  0.00    +0.000 C 
BRANCH  17  18
ATOM     18  C   UNL     1       2.624   2.621  19.034  0.00  0.00    +0.000 A 
ATOM     19  C   UNL     1       1.349   3.206  19.028  0.00  0.00    +0.000 A 
ATOM     20  C   UNL     1       0.741   3.579  20.230  0.00  0.00    +0.000 A 
ATOM     21  C   UNL     1       1.393   3.367  21.442  0.00  0.00    +0.000 A 
ATOM     22  C   UNL     1       2.654   2.771  21.456  0.00  0.00    +0.000 A 
ATOM     23  C   UNL     1       3.268   2.404  20.258  0.00  0.00    +0.000 A 
ENDBRANCH  17  18
ENDBRANCH  16  17
ENDBRANCH  15  16
ENDBRANCH  14  15
ENDBRANCH  12  14
ENDBRANCH   5  10
BRANCH   1  24
ATOM     24  C   UNL     1      -0.756  11.584  18.560  0.00  0.00    +0.000 C 
BRANCH  24  26
ATOM     25  C   UNL     1      -3.276  11.678  18.597  0.00  0.00    +0.000 C 
ATOM     26  C   UNL     1      -2.047  11.164  17.859  0.00  0.00    +0.000 C 
ENDBRANCH  24  26
ENDBRANCH   1  24
BRANCH   9  27
ATOM     27  O   UNL     1      -0.845  10.097  21.061  0.00  0.00    +0.000 OA
BRANCH  27  28
ATOM     28  C   UNL     1      -0.297  10.656  22.250  0.00  0.00    +0.000 C 
ATOM     29  C   UNL     1      -0.614  12.134  22.340  0.00  0.00    +0.000 C 
ENDBRANCH  27  28
ENDBRANCH   9  27
TORSDOF 10
ENDMDL
MODEL 3
REMARK VINA RESULT:      -6.8      1.251      2.447
REMARK  Name = 
REMARK  12 active torsions:
REMARK  status: ('A' for Active; 'I' for Inactive)
REMARK    1  A    between atoms: C_1  and  C_2
REMARK    2  A    between atoms: C_2  and  C_3
REMARK    3  A    between atoms: C_3  and  N_4
REMARK    4  A    between atoms: C_8  and  C_9
REMARK    5  A    between atoms: N_11  and  C_12
REMARK    6  A    between atoms: C_12  and  C_13
REMARK    7  A    between atoms: C_13  and  C_14
REMARK    8  A    between atoms: C_14  and  C_15
REMARK    9  A    between atoms: C_15  and  C_16
REMARK   10  A    between atoms: C_25  and  O_26
REMARK   11  A    between atoms: O_26  and  C_27
REMARK   12  A    between atoms: C_27  and  C_28
REMARK                            x       y       z     vdW  Elec       q    Type
REMARK                         _______ _______ _______ _____ _____    ______ ____
ROOT
ATOM      1  N   UNL     1       0.095   8.891  21.262  0.00  0.00    +0.000 N 
ATOM      2  N   UNL     1       0.972   7.862  21.276  0.00  0.00    +0.000 NA
ATOM      3  C   UNL     1       1.603   7.932  20.097  0.00  0.00    +0.000 A 
ATOM      4  C   UNL     1       2.617   7.100  19.584  0.00  0.00    +0.000 A 
ATOM      5  C   UNL     1       3.067   7.457  18.290  0.00  0.00    +0.000 A 
ATOM      6  C   UNL     1       2.527   8.563  17.563  0.00  0.00    +0.000 A 
ATOM      7  C   UNL     1       1.517   9.412  18.053  0.00  0.00    +0.000 A 
ATOM      8  C   UNL     1       1.086   9.050  19.334  0.00  0.00    +0.000 A 
ATOM      9  C   UNL     1       0.114   9.653  20.109  0.00  0.00    +0.000 A 
ENDROOT
BRANCH   5  10
ATOM     10  C   UNL     1       4.124   6.662  17.596  0.00  0.00    +0.000 C 
ATOM     11  O   UNL     1       4.593   7.054  16.536  0.00  0.00    +0.000 OA
ATOM     12  N   UNL     1       4.545   5.516  18.235  0.00  0.00    +0.000 N 
ATOM     13  H   UNL     1       4.259   5.348  19.189  0.00  0.00    +0.000 HD
BRANCH  12  14
ATOM     14  C   UNL     1       5.615   4.696  17.703  0.00  0.00    +0.000 C 
BRANCH  14  15
ATOM     15  C   UNL     1       5.123   3.668  16.681  0.00  0.00    +0.000 C 
BRANCH  15  16
ATOM     16  C   UNL     1       3.611   3.448  16.779  0.00  0.00    +0.000 C 
BRANCH  16  17
ATOM     17  C   UNL     1       3.250   2.252  17.666  0.00  0.00    +0.000 C 
BRANCH  17  18
ATOM     18  C   UNL     1       2.647   2.730  18.968  0.00  0.00    +0.000 A 
ATOM     19  C   UNL     1       3.239   2.390  20.192  0.00  0.00    +0.000 A 
ATOM     20  C   UNL     1       2.629   2.758  21.395  0.00  0.00    +0.000 A 
ATOM     21  C   UNL     1       1.433   3.471  21.385  0.00  0.00    +0.000 A 
ATOM     22  C   UNL     1       0.847   3.827  20.170  0.00  0.00    +0.000 A 
ATOM     23  C   UNL     1       1.449   3.454  18.968  0.00  0.00    +0.000 A 
ENDBRANCH  17  18
ENDBRANCH  16  17
ENDBRANCH  15  16
ENDBRANCH  14  15
ENDBRANCH  12  14
ENDBRANCH   5  10
BRANCH   1  24
ATOM     24  C   UNL     1      -0.729   9.118  22.440  0.00  0.00    +0.000 C 
BRANCH  24  26
ATOM     25  C   UNL     1      -1.571  11.393  23.131  0.00  0.00    +0.000 C 
ATOM     26  C   UNL     1      -0.395  10.426  23.155  0.00  0.00    +0.000 C 
ENDBRANCH  24  26
ENDBRANCH   1  24
BRANCH   9  27
ATOM     27  O   UNL     1      -0.723  10.699  19.997  0.00  0.00    +0.000 OA
BRANCH  27  28
ATOM     28  C   UNL     1      -0.237  11.837  19.294  0.00  0.00    +0.000 C 
ATOM     29  C   UNL     1      -1.227  12.273  18.234  0.00  0.00    +0.000 C 
ENDBRANCH  27  28
ENDBRANCH   9  27
TORSDOF 10
ENDMDL
MODEL 4
REMARK VINA RESULT:      -6.7      1.689      2.763
REMARK  Name = 
REMARK  12 active torsions:
REMARK  status: ('A' for Active; 'I' for Inactive)
REMARK    1  A    between atoms: C_1  and  C_2
REMARK    2  A    between atoms: C_2  and  C_3
REMARK    3  A    between atoms: C_3  and  N_4
REMARK    4  A    between atoms: C_8  and  C_9
REMARK    5  A    between atoms: N_11  and  C_12
REMARK    6  A    between atoms: C_12  and  C_13
REMARK    7  A    between atoms: C_13  and  C_14
REMARK    8  A    between atoms: C_14  and  C_15
REMARK    9  A    between atoms: C_15  and  C_16
REMARK   10  A    between atoms: C_25  and  O_26
REMARK   11  A    between atoms: O_26  and  C_27
REMARK   12  A    between atoms: C_27  and  C_28
REMARK                            x       y       z     vdW  Elec       q    Type
REMARK                         _______ _______ _______ _____ _____    ______ ____
ROOT
ATOM      1  N   UNL     1      -0.603  10.925  20.584  0.00  0.00    +0.000 N 
ATOM      2  N   UNL     1       0.090   9.969  21.244  0.00  0.00    +0.000 NA
ATOM      3  C   UNL     1       0.769   9.318  20.291  0.00  0.00    +0.000 A 
ATOM      4  C   UNL     1       1.651   8.227  20.420  0.00  0.00    +0.000 A 
ATOM      5  C   UNL     1       2.203   7.774  19.198  0.00  0.00    +0.000 A 
ATOM      6  C   UNL     1       1.882   8.369  17.939  0.00  0.00    +0.000 A 
ATOM      7  C   UNL     1       1.009   9.461  17.782  0.00  0.00    +0.000 A 
ATOM      8  C   UNL     1       0.475   9.901  18.998  0.00  0.00    +0.000 A 
ATOM      9  C   UNL     1      -0.413  10.937  19.215  0.00  0.00    +0.000 A 
ENDROOT
BRANCH   5  10
ATOM     10  C   UNL     1       3.140   6.611  19.161  0.00  0.00    +0.000 C 
ATOM     11  O   UNL     1       3.127   5.781  20.060  0.00  0.00    +0.000 OA
ATOM     12  N   UNL     1       3.963   6.524  18.059  0.00  0.00    +0.000 N 
ATOM     13  H   UNL     1       3.795   7.128  17.267  0.00  0.00    +0.000 HD
BRANCH  12  14
ATOM     14  C   UNL     1       4.865   5.406  17.867  0.00  0.00    +0.000 C 
BRANCH  14  15
ATOM     15  C   UNL     1       4.518   4.567  16.635  0.00  0.00    +0.000 C 
BRANCH  15  16
ATOM     16  C   UNL     1       3.312   3.658  16.887  0.00  0.00    +0.000 C 
BRANCH  16  17
ATOM     17  C   UNL     1       3.641   2.495  17.829  0.00  0.00    +0.000 C 
BRANCH  17  18
ATOM     18  C   UNL     1       2.806   2.590  19.086  0.00  0.00    +0.000 A 
ATOM     19  C   UNL     1       1.443   2.911  19.013  0.00  0.00    +0.000 A 
ATOM     20  C   UNL     1       0.697   3.085  20.182  0.00  0.00    +0.000 A 
ATOM     21  C   UNL     1       1.300   2.934  21.428  0.00  0.00    +0.000 A 
ATOM     22  C   UNL     1       2.652   2.598  21.508  0.00  0.00    +0.000 A 
ATOM     23  C   UNL     1       3.402   2.431  20.343  0.00  0.00    +0.000 A 
ENDBRANCH  17  18
ENDBRANCH  16  17
ENDBRANCH  15  16
ENDBRANCH  14  15
ENDBRANCH  12  14
ENDBRANCH   5  10
BRANCH   1  24
ATOM     24  C   UNL     1      -1.422  11.847  21.356  0.00  0.00    +0.000 C 
BRANCH  24  26
ATOM     25  C   UNL     1      -1.505  14.290  21.979  0.00  0.00    +0.000 C 
ATOM     26  C   UNL     1      -0.633  13.045  21.881  0.00  0.00    +0.000 C 
ENDBRANCH  24  26
ENDBRANCH   1  24
BRANCH   9  27
ATOM     27  O   UNL     1      -1.060  11.849  18.468  0.00  0.00    +0.000 OA
BRANCH  27  28
ATOM     28  C   UNL     1      -2.378  11.515  18.048  0.00  0.00    +0.000 C 
ATOM     29  C   UNL     1      -2.349  10.823  16.701  0.00  0.00    +0.000 C 
ENDBRANCH  27  28
ENDBRANCH   9  27
TORSDOF 10
ENDMDL
MODEL 5
REMARK VINA RESULT:      -6.6      1.382      1.802
REMARK  Name = 
REMARK  12 active torsions:
REMARK  status: ('A' for Active; 'I' for Inactive)
REMARK    1  A    between atoms: C_1  and  C_2
REMARK    2  A    between atoms: C_2  and  C_3
REMARK    3  A    between atoms: C_3  and  N_4
REMARK    4  A    between atoms: C_8  and  C_9
REMARK    5  A    between atoms: N_11  and  C_12
REMARK    6  A    between atoms: C_12  and  C_13
REMARK    7  A    between atoms: C_13  and  C_14
REMARK    8  A    between atoms: C_14  and  C_15
REMARK    9  A    between atoms: C_15  and  C_16
REMARK   10  A    between atoms: C_25  and  O_26
REMARK   11  A    between atoms: O_26  and  C_27
REMARK   12  A    between atoms: C_27  and  C_28
REMARK                            x       y       z     vdW  Elec       q    Type
REMARK                         _______ _______ _______ _____ _____    ______ ____
ROOT
ATOM      1  N   UNL     1      -0.570  10.719  19.151  0.00  0.00    +0.000 N 
ATOM      2  N   UNL     1       0.199  10.452  18.071  0.00  0.00    +0.000 NA
ATOM      3  C   UNL     1       0.990   9.441  18.454  0.00  0.00    +0.000 A 
ATOM      4  C   UNL     1       1.987   8.770  17.719  0.00  0.00    +0.000 A 
ATOM      5  C   UNL     1       2.643   7.739  18.433  0.00  0.00    +0.000 A 
ATOM      6  C   UNL     1       2.327   7.416  19.789  0.00  0.00    +0.000 A 
ATOM      7  C   UNL     1       1.334   8.069  20.544  0.00  0.00    +0.000 A 
ATOM      8  C   UNL     1       0.690   9.081  19.824  0.00  0.00    +0.000 A 
ATOM      9  C   UNL     1      -0.320   9.921  20.252  0.00  0.00    +0.000 A 
ENDROOT
BRANCH   5  10
ATOM     10  C   UNL     1       3.740   6.944  17.803  0.00  0.00    +0.000 C 
ATOM     11  O   UNL     1       4.157   7.244  16.692  0.00  0.00    +0.000 OA
ATOM     12  N   UNL     1       4.256   5.910  18.554  0.00  0.00    +0.000 N 
ATOM     13  H   UNL     1       4.003   5.833  19.529  0.00  0.00    +0.000 HD
BRANCH  12  14
ATOM     14  C   UNL     1       5.371   5.110  18.087  0.00  0.00    +0.000 C 
BRANCH  14  15
ATOM     15  C   UNL     1       4.959   3.687  17.701  0.00  0.00    +0.000 C 
BRANCH  15  16
ATOM     16  C   UNL     1       3.643   3.668  16.918  0.00  0.00    +0.000 C 
BRANCH  16  17
ATOM     17  C   UNL     1       2.664   2.614  17.444  0.00  0.00    +0.000 C 
BRANCH  17  18
ATOM     18  C   UNL     1       2.301   2.908  18.882  0.00  0.00    +0.000 A 
ATOM     19  C   UNL     1       1.305   3.847  19.186  0.00  0.00    +0.000 A 
ATOM     20  C   UNL     1       1.036   4.181  20.517  0.00  0.00    +0.000 A 
ATOM     21  C   UNL     1       1.751   3.579  21.549  0.00  0.00    +0.000 A 
ATOM     22  C   UNL     1       2.733   2.633  21.254  0.00  0.00    +0.000 A 
ATOM     23  C   UNL     1       3.009   2.302  19.927  0.00  0.00    +0.000 A 
ENDBRANCH  17  18
ENDBRANCH  16  17
ENDBRANCH  15  16
ENDBRANCH  14  15
ENDBRANCH  12  14
ENDBRANCH   5  10
BRANCH   1  24
ATOM     24  C   UNL     1      -1.583  11.759  19.043  0.00  0.00    +0.000 C 
BRANCH  24  26
ATOM     25  C   UNL     1      -3.200  10.315  17.755  0.00  0.00    +0.000 C 
ATOM     26  C   UNL     1      -2.433  11.630  17.781  0.00  0.00    +0.000 C 
ENDBRANCH  24  26
ENDBRANCH   1  24
BRANCH   9  27
ATOM     27  O   UNL     1      -1.031  10.109  21.377  0.00  0.00    +0.000 OA
BRANCH  27  28
ATOM     28  C   UNL     1      -0.365  10.755  22.456  0.00  0.00    +0.000 C 
ATOM     29  C   UNL     1      -0.825  12.192  22.584  0.00  0.00    +0.000 C 
ENDBRANCH  27  28
ENDBRANCH   9  27
TORSDOF 10
ENDMDL
MODEL 6
REMARK VINA RESULT:      -6.6      1.013      1.110
REMARK  Name = 
REMARK  12 active torsions:
REMARK  status: ('A' for Active; 'I' for Inactive)
REMARK    1  A    between atoms: C_1  and  C_2
REMARK    2  A    between atoms: C_2  and  C_3
REMARK    3  A    between atoms: C_3  and  N_4
REMARK    4  A    between atoms: C_8  and  C_9
REMARK    5  A    between atoms: N_11  and  C_12
REMARK    6  A    between atoms: C_12  and  C_13
REMARK    7  A    between atoms: C_13  and  C_14
REMARK    8  A    between atoms: C_14  and  C_15
REMARK    9  A    between atoms: C_15  and  C_16
REMARK   10  A    between atoms: C_25  and  O_26
REMARK   11  A    between atoms: O_26  and  C_27
REMARK   12  A    between atoms: C_27  and  C_28
REMARK                            x       y       z     vdW  Elec       q    Type
REMARK                         _______ _______ _______ _____ _____    ______ ____
ROOT
ATOM      1  N   UNL     1      -0.081  10.518  19.352  0.00  0.00    +0.000 N 
ATOM      2  N   UNL     1       0.701  10.411  18.254  0.00  0.00    +0.000 NA
ATOM      3  C   UNL     1       1.443   9.316  18.466  0.00  0.00    +0.000 A 
ATOM      4  C   UNL     1       2.428   8.741  17.641  0.00  0.00    +0.000 A 
ATOM      5  C   UNL     1       3.027   7.573  18.173  0.00  0.00    +0.000 A 
ATOM      6  C   UNL     1       2.667   7.033  19.446  0.00  0.00    +0.000 A 
ATOM      7  C   UNL     1       1.684   7.586  20.288  0.00  0.00    +0.000 A 
ATOM      8  C   UNL     1       1.097   8.735  19.747  0.00  0.00    +0.000 A 
ATOM      9  C   UNL     1       0.111   9.530  20.299  0.00  0.00    +0.000 A 
ENDROOT
BRANCH   5  10
ATOM     10  C   UNL     1       4.106   6.855  17.430  0.00  0.00    +0.000 C 
ATOM     11  O   UNL     1       4.347   7.141  16.265  0.00  0.00    +0.000 OA
ATOM     12  N   UNL     1       4.810   5.907  18.141  0.00  0.00    +0.000 N 
ATOM     13  H   UNL     1       4.693   5.851  19.142  0.00  0.00    +0.000 HD
BRANCH  12  14
ATOM     14  C   UNL     1       5.928   5.192  17.557  0.00  0.00    +0.000 C 
BRANCH  14  15
ATOM     15  C   UNL     1       5.488   4.055  16.632  0.00  0.00    +0.000 C 
BRANCH  15  16
ATOM     16  C   UNL     1       4.648   3.011  17.375  0.00  0.00    +0.000 C 
BRANCH  16  17
ATOM     17  C   UNL     1       3.149   3.322  17.325  0.00  0.00    +0.000 C 
BRANCH  17  18
ATOM     18  C   UNL     1       2.569   3.325  18.722  0.00  0.00    +0.000 A 
ATOM     19  C   UNL     1       3.309   2.818  19.799  0.00  0.00    +0.000 A 
ATOM     20  C   UNL     1       2.736   2.741  21.072  0.00  0.00    +0.000 A 
ATOM     21  C   UNL     1       1.429   3.172  21.280  0.00  0.00    +0.000 A 
ATOM     22  C   UNL     1       0.692   3.692  20.215  0.00  0.00    +0.000 A 
ATOM     23  C   UNL     1       1.259   3.764  18.942  0.00  0.00    +0.000 A 
ENDBRANCH  17  18
ENDBRANCH  16  17
ENDBRANCH  15  16
ENDBRANCH  14  15
ENDBRANCH  12  14
ENDBRANCH   5  10
BRANCH   1  24
ATOM     24  C   UNL     1      -1.049  11.603  19.412  0.00  0.00    +0.000 C 
BRANCH  24  26
ATOM     25  C   UNL     1      -0.311  13.893  18.654  0.00  0.00    +0.000 C 
ATOM     26  C   UNL     1      -0.933  12.568  18.234  0.00  0.00    +0.000 C 
ENDBRANCH  24  26
ENDBRANCH   1  24
BRANCH   9  27
ATOM     27  O   UNL     1      -0.618   9.549  21.429  0.00  0.00    +0.000 OA
BRANCH  27  28
ATOM     28  C   UNL     1      -0.109  10.326  22.507  0.00  0.00    +0.000 C 
ATOM     29  C   UNL     1       0.166   9.452  23.712  0.00  0.00    +0.000 C 
ENDBRANCH  27  28
ENDBRANCH   9  27
TORSDOF 10
ENDMDL
MODEL 7
REMARK VINA RESULT:      -6.6      1.431      1.740
REMARK  Name = 
REMARK  12 active torsions:
REMARK  status: ('A' for Active; 'I' for Inactive)
REMARK    1  A    between atoms: C_1  and  C_2
REMARK    2  A    between atoms: C_2  and  C_3
REMARK    3  A    between atoms: C_3  and  N_4
REMARK    4  A    between atoms: C_8  and  C_9
REMARK    5  A    between atoms: N_11  and  C_12
REMARK    6  A    between atoms: C_12  and  C_13
REMARK    7  A    between atoms: C_13  and  C_14
REMARK    8  A    between atoms: C_14  and  C_15
REMARK    9  A    between atoms: C_15  and  C_16
REMARK   10  A    between atoms: C_25  and  O_26
REMARK   11  A    between atoms: O_26  and  C_27
REMARK   12  A    between atoms: C_27  and  C_28
REMARK                            x       y       z     vdW  Elec       q    Type
REMARK                         _______ _______ _______ _____ _____    ______ ____
ROOT
ATOM      1  N   UNL     1       0.403  11.554  20.134  0.00  0.00    +0.000 N 
ATOM      2  N   UNL     1       0.802  11.108  18.921  0.00  0.00    +0.000 NA
ATOM      3  C   UNL     1       1.245   9.863  19.143  0.00  0.00    +0.000 A 
ATOM      4  C   UNL     1       1.779   8.936  18.226  0.00  0.00    +0.000 A 
ATOM      5  C   UNL     1       2.155   7.698  18.799  0.00  0.00    +0.000 A 
ATOM      6  C   UNL     1       2.015   7.419  20.193  0.00  0.00    +0.000 A 
ATOM      7  C   UNL     1       1.483   8.324  21.130  0.00  0.00    +0.000 A 
ATOM      8  C   UNL     1       1.110   9.541  20.549  0.00  0.00    +0.000 A 
ATOM      9  C   UNL     1       0.564  10.649  21.167  0.00  0.00    +0.000 A 
ENDROOT
BRANCH   5  10
ATOM     10  C   UNL     1       2.757   6.615  17.964  0.00  0.00    +0.000 C 
ATOM     11  O   UNL     1       2.075   5.666  17.602  0.00  0.00    +0.000 OA
ATOM     12  N   UNL     1       4.080   6.778  17.613  0.00  0.00    +0.000 N 
ATOM     13  H   UNL     1       4.531   7.666  17.781  0.00  0.00    +0.000 HD
BRANCH  12  14
ATOM     14  C   UNL     1       4.760   5.836  16.746  0.00  0.00    +0.000 C 
BRANCH  14  15
ATOM     15  C   UNL     1       4.796   4.418  17.322  0.00  0.00    +0.000 C 
BRANCH  15  16
ATOM     16  C   UNL     1       5.259   4.409  18.782  0.00  0.00    +0.000 C 
BRANCH  16  17
ATOM     17  C   UNL     1       4.783   3.167  19.541  0.00  0.00    +0.000 C 
BRANCH  17  18
ATOM     18  C   UNL     1       3.273   3.150  19.622  0.00  0.00    +0.000 A 
ATOM     19  C   UNL     1       2.604   3.932  20.574  0.00  0.00    +0.000 A 
ATOM     20  C   UNL     1       1.215   3.846  20.704  0.00  0.00    +0.000 A 
ATOM     21  C   UNL     1       0.486   2.987  19.886  0.00  0.00    +0.000 A 
ATOM     22  C   UNL     1       1.144   2.218  18.926  0.00  0.00    +0.000 A 
ATOM     23  C   UNL     1       2.531   2.297  18.798  0.00  0.00    +0.000 A 
ENDBRANCH  17  18
ENDBRANCH  16  17
ENDBRANCH  15  16
ENDBRANCH  14  15
ENDBRANCH  12  14
ENDBRANCH   5  10
BRANCH   1  24
ATOM     24  C   UNL     1      -0.180  12.885  20.226  0.00  0.00    +0.000 C 
BRANCH  24  26
ATOM     25  C   UNL     1      -2.602  12.432  19.690  0.00  0.00    +0.000 C 
ATOM     26  C   UNL     1      -1.316  13.106  19.230  0.00  0.00    +0.000 C 
ENDBRANCH  24  26
ENDBRANCH   1  24
BRANCH   9  27
ATOM     27  O   UNL     1       0.197  11.000  22.412  0.00  0.00    +0.000 OA
BRANCH  27  28
ATOM     28  C   UNL     1      -1.058  10.511  22.872  0.00  0.00    +0.000 C 
ATOM     29  C   UNL     1      -1.991  11.659  23.195  0.00  0.00    +0.000 C 
ENDBRANCH  27  28
ENDBRANCH   9  27
TORSDOF 10
ENDMDL
MODEL 8
REMARK VINA RESULT:      -6.5      2.088      4.243
REMARK  Name = 
REMARK  12 active torsions:
REMARK  status: ('A' for Active; 'I' for Inactive)
REMARK    1  A    between atoms: C_1  and  C_2
REMARK    2  A    between atoms: C_2  and  C_3
REMARK    3  A    between atoms: C_3  and  N_4
REMARK    4  A    between atoms: C_8  and  C_9
REMARK    5  A    between atoms: N_11  and  C_12
REMARK    6  A    between atoms: C_12  and  C_13
REMARK    7  A    between atoms: C_13  and  C_14
REMARK    8  A    between atoms: C_14  and  C_15
REMARK    9  A    between atoms: C_15  and  C_16
REMARK   10  A    between atoms: C_25  and  O_26
REMARK   11  A    between atoms: O_26  and  C_27
REMARK   12  A    between atoms: C_27  and  C_28
REMARK                            x       y       z     vdW  Elec       q    Type
REMARK                         _______ _______ _______ _____ _____    ______ ____
ROOT
ATOM      1  N   UNL     1       0.242  10.630  20.815  0.00  0.00    +0.000 N 
ATOM      2  N   UNL     1       0.275   9.498  21.555  0.00  0.00    +0.000 NA
ATOM      3  C   UNL     1       0.959   8.620  20.809  0.00  0.00    +0.000 A 
ATOM      4  C   UNL     1       1.290   7.282  21.096  0.00  0.00    +0.000 A 
ATOM      5  C   UNL     1       2.027   6.631  20.078  0.00  0.00    +0.000 A 
ATOM      6  C   UNL     1       2.395   7.278  18.857  0.00  0.00    +0.000 A 
ATOM      7  C   UNL     1       2.081   8.614  18.547  0.00  0.00    +0.000 A 
ATOM      8  C   UNL     1       1.356   9.246  19.564  0.00  0.00    +0.000 A 
ATOM      9  C   UNL     1       0.881  10.543  19.593  0.00  0.00    +0.000 A 
ENDROOT
BRANCH   5  10
ATOM     10  C   UNL     1       2.438   5.201  20.219  0.00  0.00    +0.000 C 
ATOM     11  O   UNL     1       2.031   4.535  21.161  0.00  0.00    +0.000 OA
ATOM     12  N   UNL     1       3.248   4.697  19.224  0.00  0.00    +0.000 N 
ATOM     13  H   UNL     1       3.392   5.236  18.383  0.00  0.00    +0.000 HD
BRANCH  12  14
ATOM     14  C   UNL     1       3.656   3.306  19.206  0.00  0.00    +0.000 C 
BRANCH  14  15
ATOM     15  C   UNL     1       3.886   2.774  17.789  0.00  0.00    +0.000 C 
BRANCH  15  16
ATOM     16  C   UNL     1       3.895   3.901  16.753  0.00  0.00    +0.000 C 
BRANCH  16  17
ATOM     17  C   UNL     1       5.272   4.094  16.110  0.00  0.00    +0.000 C 
BRANCH  17  18
ATOM     18  C   UNL     1       6.089   5.082  16.911  0.00  0.00    +0.000 A 
ATOM     19  C   UNL     1       5.988   6.458  16.660  0.00  0.00    +0.000 A 
ATOM     20  C   UNL     1       6.811   7.359  17.342  0.00  0.00    +0.000 A 
ATOM     21  C   UNL     1       7.732   6.899  18.278  0.00  0.00    +0.000 A 
ATOM     22  C   UNL     1       7.827   5.532  18.544  0.00  0.00    +0.000 A 
ATOM     23  C   UNL     1       7.012   4.629  17.861  0.00  0.00    +0.000 A 
ENDBRANCH  17  18
ENDBRANCH  16  17
ENDBRANCH  15  16
ENDBRANCH  14  15
ENDBRANCH  12  14
ENDBRANCH   5  10
BRANCH   1  24
ATOM     24  C   UNL     1      -0.406  11.807  21.376  0.00  0.00    +0.000 C 
BRANCH  24  26
ATOM     25  C   UNL     1      -1.722  12.786  23.291  0.00  0.00    +0.000 C 
ATOM     26  C   UNL     1      -1.065  11.534  22.727  0.00  0.00    +0.000 C 
ENDBRANCH  24  26
ENDBRANCH   1  24
BRANCH   9  27
ATOM     27  O   UNL     1       0.902  11.616  18.783  0.00  0.00    +0.000 OA
BRANCH  27  28
ATOM     28  C   UNL     1       1.816  12.654  19.118  0.00  0.00    +0.000 C 
ATOM     29  C   UNL     1       2.672  13.018  17.923  0.00  0.00    +0.000 C 
ENDBRANCH  27  28
ENDBRANCH   9  27
TORSDOF 10
ENDMDL
MODEL 9
REMARK VINA RESULT:      -6.5      2.312      8.261
REMARK  Name = 
REMARK  12 active torsions:
REMARK  status: ('A' for Active; 'I' for Inactive)
REMARK    1  A    between atoms: C_1  and  C_2
REMARK    2  A    between atoms: C_2  and  C_3
REMARK    3  A    between atoms: C_3  and  N_4
REMARK    4  A    between atoms: C_8  and  C_9
REMARK    5  A    between atoms: N_11  and  C_12
REMARK    6  A    between atoms: C_12  and  C_13
REMARK    7  A    between atoms: C_13  and  C_14
REMARK    8  A    between atoms: C_14  and  C_15
REMARK    9  A    between atoms: C_15  and  C_16
REMARK   10  A    between atoms: C_25  and  O_26
REMARK   11  A    between atoms: O_26  and  C_27
REMARK   12  A    between atoms: C_27  and  C_28
REMARK                            x       y       z     vdW  Elec       q    Type
REMARK                         _______ _______ _______ _____ _____    ______ ____
ROOT
ATOM      1  N   UNL     1       2.666   4.875  19.585  0.00  0.00    +0.000 N 
ATOM      2  N   UNL     1       2.131   5.687  20.525  0.00  0.00    +0.000 NA
ATOM      3  C   UNL     1       2.040   6.885  19.931  0.00  0.00    +0.000 A 
ATOM      4  C   UNL     1       1.553   8.098  20.454  0.00  0.00    +0.000 A 
ATOM      5  C   UNL     1       1.602   9.186  19.549  0.00  0.00    +0.000 A 
ATOM      6  C   UNL     1       2.114   9.062  18.220  0.00  0.00    +0.000 A 
ATOM      7  C   UNL     1       2.603   7.862  17.672  0.00  0.00    +0.000 A 
ATOM      8  C   UNL     1       2.544   6.795  18.575  0.00  0.00    +0.000 A 
ATOM      9  C   UNL     1       2.942   5.487  18.377  0.00  0.00    +0.000 A 
ENDROOT
BRANCH   5  10
ATOM     10  C   UNL     1       1.141  10.548  19.956  0.00  0.00    +0.000 C 
ATOM     11  O   UNL     1       1.391  11.517  19.254  0.00  0.00    +0.000 OA
ATOM     12  N   UNL     1       0.408  10.621  21.120  0.00  0.00    +0.000 N 
ATOM     13  H   UNL     1       0.076   9.770  21.551  0.00  0.00    +0.000 HD
BRANCH  12  14
ATOM     14  C   UNL     1      -0.159  11.872  21.587  0.00  0.00    +0.000 C 
BRANCH  14  15
ATOM     15  C   UNL     1      -1.628  11.742  21.995  0.00  0.00    +0.000 C 
BRANCH  15  16
ATOM     16  C   UNL     1      -2.559  12.431  20.993  0.00  0.00    +0.000 C 
BRANCH  16  17
ATOM     17  C   UNL     1      -1.894  12.653  19.631  0.00  0.00    +0.000 C 
BRANCH  17  18
ATOM     18  C   UNL     1      -2.434  11.668  18.619  0.00  0.00    +0.000 A 
ATOM     19  C   UNL     1      -1.580  10.746  17.998  0.00  0.00    +0.000 A 
ATOM     20  C   UNL     1      -2.067   9.898  16.998  0.00  0.00    +0.000 A 
ATOM     21  C   UNL     1      -3.404   9.959  16.617  0.00  0.00    +0.000 A 
ATOM     22  C   UNL     1      -4.264  10.863  17.242  0.00  0.00    +0.000 A 
ATOM     23  C   UNL     1      -3.779  11.716  18.235  0.00  0.00    +0.000 A 
ENDBRANCH  17  18
ENDBRANCH  16  17
ENDBRANCH  15  16
ENDBRANCH  14  15
ENDBRANCH  12  14
ENDBRANCH   5  10
BRANCH   1  24
ATOM     24  C   UNL     1       2.857   3.469  19.911  0.00  0.00    +0.000 C 
BRANCH  24  26
ATOM     25  C   UNL     1       0.786   2.557  18.797  0.00  0.00    +0.000 C 
ATOM     26  C   UNL     1       1.539   2.722  20.110  0.00  0.00    +0.000 C 
ENDBRANCH  24  26
ENDBRANCH   1  24
BRANCH   9  27
ATOM     27  O   UNL     1       3.478   4.763  17.379  0.00  0.00    +0.000 OA
BRANCH  27  28
ATOM     28  C   UNL     1       4.876   4.912  17.159  0.00  0.00    +0.000 C 
ATOM     29  C   UNL     1       5.135   5.760  15.931  0.00  0.00    +0.000 C 
ENDBRANCH  27  28
ENDBRANCH   9  27
TORSDOF 10
ENDMDL
