MODEL 1
REMARK VINA RESULT:      -8.7      0.000      0.000
REMARK  Name = 
REMARK  5 active torsions:
REMARK  status: ('A' for Active; 'I' for Inactive)
REMARK    1  A    between atoms: C_1  and  C_2
REMARK    2  A    between atoms: C_6  and  N_7
REMARK    3  A    between atoms: C_8  and  C_10
REMARK    4  A    between atoms: C_10  and  N_11
REMARK    5  A    between atoms: C_25  and  C_26
REMARK                            x       y       z     vdW  Elec       q    Type
REMARK                         _______ _______ _______ _____ _____    ______ ____
ROOT
ATOM      1  N   UNL     1       4.993   5.895  18.193  0.00  0.00    +0.000 N 
ATOM      2  C   UNL     1       5.246   4.714  18.795  0.00  0.00    +0.000 C 
ATOM      3  O   UNL     1       6.343   4.199  18.942  0.00  0.00    +0.000 OA
ATOM      4  N   UNL     1       4.073   4.187  19.254  0.00  0.00    +0.000 N 
ATOM      5  C   UNL     1       2.921   5.019  18.973  0.00  0.00    +0.000 C 
ATOM      6  C   UNL     1       2.273   5.560  20.254  0.00  0.00    +0.000 C 
ATOM      7  C   UNL     1       1.129   4.747  20.853  0.00  0.00    +0.000 C 
ATOM      8  C   UNL     1       1.512   3.378  21.402  0.00  0.00    +0.000 C 
ATOM      9  C   UNL     1       1.624   2.194  20.438  0.00  0.00    +0.000 C 
ATOM     10  C   UNL     1       0.927   2.299  19.085  0.00  0.00    +0.000 C 
ATOM     11  C   UNL     1       1.786   2.880  17.963  0.00  0.00    +0.000 C 
ATOM     12  C   UNL     1       1.962   4.400  17.939  0.00  0.00    +0.000 C 
ATOM     13  C   UNL     1       3.662   6.196  18.268  0.00  0.00    +0.000 C 
ATOM     14  O   UNL     1       3.124   7.196  17.818  0.00  0.00    +0.000 OA
ATOM     15  H   UNL     1       4.069   3.290  19.718  0.00  0.00    +0.000 HD
ENDROOT
BRANCH   1  16
ATOM     16  C   UNL     1       5.997   6.691  17.529  0.00  0.00    +0.000 C 
BRANCH  16  18
ATOM     17  N   UNL     1       6.748   5.428  15.567  0.00  0.00    +0.000 N 
ATOM     18  C   UNL     1       5.962   6.486  16.018  0.00  0.00    +0.000 C 
ATOM     19  O   UNL     1       5.211   7.184  15.339  0.00  0.00    +0.000 OA
ATOM     20  H   UNL     1       7.246   4.912  16.285  0.00  0.00    +0.000 HD
BRANCH  17  26
ATOM     21  C   UNL     1       5.496   2.459  11.681  0.00  0.00    +0.000 C 
ATOM     22  C   UNL     1       6.322   3.542  12.332  0.00  0.00    +0.000 A 
ATOM     23  C   UNL     1       7.320   4.148  11.559  0.00  0.00    +0.000 A 
ATOM     24  C   UNL     1       8.098   5.162  12.092  0.00  0.00    +0.000 A 
ATOM     25  C   UNL     1       7.893   5.575  13.403  0.00  0.00    +0.000 A 
ATOM     26  C   UNL     1       6.916   4.991  14.223  0.00  0.00    +0.000 A 
ATOM     27  C   UNL     1       6.108   3.955  13.682  0.00  0.00    +0.000 A 
ATOM     28  C   UNL     1       5.021   3.247  14.457  0.00  0.00    +0.000 C 
ENDBRANCH  17  26
ENDBRANCH  16  18
ENDBRANCH   1  16
TORSDOF 3
ENDMDL
MODEL 2
REMARK VINA RESULT:      -7.9      4.361      6.737
REMARK  Name = 
REMARK  5 active torsions:
REMARK  status: ('A' for Active; 'I' for Inactive)
REMARK    1  A    between atoms: C_1  and  C_2
REMARK    2  A    between atoms: C_6  and  N_7
REMARK    3  A    between atoms: C_8  and  C_10
REMARK    4  A    between atoms: C_10  and  N_11
REMARK    5  A    between atoms: C_25  and  C_26
REMARK                            x       y       z     vdW  Elec       q    Type
REMARK                         _______ _______ _______ _____ _____    ______ ____
ROOT
ATOM      1  N   UNL     1       6.957   6.622  18.029  0.00  0.00    +0.000 N 
ATOM      2  C   UNL     1       6.711   5.841  19.101  0.00  0.00    +0.000 C 
ATOM      3  O   UNL     1       7.461   5.652  20.046  0.00  0.00    +0.000 OA
ATOM      4  N   UNL     1       5.458   5.309  18.987  0.00  0.00    +0.000 N 
ATOM      5  C   UNL     1       4.768   5.719  17.782  0.00  0.00    +0.000 C 
ATOM      6  C   UNL     1       3.530   6.570  18.088  0.00  0.00    +0.000 C 
ATOM      7  C   UNL     1       2.195   5.840  18.211  0.00  0.00    +0.000 C 
ATOM      8  C   UNL     1       2.070   4.895  19.399  0.00  0.00    +0.000 C 
ATOM      9  C   UNL     1       2.642   3.479  19.288  0.00  0.00    +0.000 C 
ATOM     10  C   UNL     1       2.897   2.913  17.894  0.00  0.00    +0.000 C 
ATOM     11  C   UNL     1       4.297   3.176  17.341  0.00  0.00    +0.000 C 
ATOM     12  C   UNL     1       4.568   4.572  16.774  0.00  0.00    +0.000 C 
ATOM     13  C   UNL     1       5.871   6.657  17.201  0.00  0.00    +0.000 C 
ATOM     14  O   UNL     1       5.785   7.276  16.152  0.00  0.00    +0.000 OA
ATOM     15  H   UNL     1       5.111   4.678  19.695  0.00  0.00    +0.000 HD
ENDROOT
BRANCH   1  16
ATOM     16  C   UNL     1       8.217   7.285  17.789  0.00  0.00    +0.000 C 
BRANCH  16  18
ATOM     17  N   UNL     1       9.151   9.101  19.145  0.00  0.00    +0.000 N 
ATOM     18  C   UNL     1       8.169   8.746  18.222  0.00  0.00    +0.000 C 
ATOM     19  O   UNL     1       7.357   9.499  17.689  0.00  0.00    +0.000 OA
ATOM     20  H   UNL     1       9.786   8.359  19.420  0.00  0.00    +0.000 HD
BRANCH  17  26
ATOM     21  C   UNL     1      10.963  13.809  18.971  0.00  0.00    +0.000 C 
ATOM     22  C   UNL     1      10.252  12.668  19.658  0.00  0.00    +0.000 A 
ATOM     23  C   UNL     1       9.776  12.891  20.956  0.00  0.00    +0.000 A 
ATOM     24  C   UNL     1       9.097  11.891  21.632  0.00  0.00    +0.000 A 
ATOM     25  C   UNL     1       8.894  10.658  21.023  0.00  0.00    +0.000 A 
ATOM     26  C   UNL     1       9.361  10.381  19.730  0.00  0.00    +0.000 A 
ATOM     27  C   UNL     1      10.054  11.404  19.026  0.00  0.00    +0.000 A 
ATOM     28  C   UNL     1      10.605  11.236  17.629  0.00  0.00    +0.000 C 
ENDBRANCH  17  26
ENDBRANCH  16  18
ENDBRANCH   1  16
TORSDOF 3
ENDMDL
MODEL 3
REMARK VINA RESULT:      -7.4      5.301      8.349
REMARK  Name = 
REMARK  5 active torsions:
REMARK  status: ('A' for Active; 'I' for Inactive)
REMARK    1  A    between atoms: C_1  and  C_2
REMARK    2  A    between atoms: C_6  and  N_7
REMARK    3  A    between atoms: C_8  and  C_10
REMARK    4  A    between atoms: C_10  and  N_11
REMARK    5  A    between atoms: C_25  and  C_26
REMARK                            x       y       z     vdW  Elec       q    Type
REMARK                         _______ _______ _______ _____ _____    ______ ____
ROOT
ATOM      1  N   UNL     1       1.997   8.389  19.249  0.00  0.00    +0.000 N 
ATOM      2  C   UNL     1       2.446   8.189  17.992  0.00  0.00    +0.000 C 
ATOM      3  O   UNL     1       2.501   9.023  17.103  0.00  0.00    +0.000 OA
ATOM      4  N   UNL     1       2.871   6.897  17.872  0.00  0.00    +0.000 N 
ATOM      5  C   UNL     1       2.722   6.127  19.089  0.00  0.00    +0.000 C 
ATOM      6  C   UNL     1       4.076   5.695  19.667  0.00  0.00    +0.000 C 
ATOM      7  C   UNL     1       4.604   4.323  19.254  0.00  0.00    +0.000 C 
ATOM      8  C   UNL     1       4.974   4.178  17.783  0.00  0.00    +0.000 C 
ATOM      9  C   UNL     1       3.872   3.873  16.765  0.00  0.00    +0.000 C 
ATOM     10  C   UNL     1       2.561   3.285  17.278  0.00  0.00    +0.000 C 
ATOM     11  C   UNL     1       1.494   4.316  17.642  0.00  0.00    +0.000 C 
ATOM     12  C   UNL     1       1.648   5.028  18.988  0.00  0.00    +0.000 C 
ATOM     13  C   UNL     1       2.144   7.256  19.997  0.00  0.00    +0.000 C 
ATOM     14  O   UNL     1       1.831   7.122  21.171  0.00  0.00    +0.000 OA
ATOM     15  H   UNL     1       3.223   6.561  16.986  0.00  0.00    +0.000 HD
ENDROOT
BRANCH   1  16
ATOM     16  C   UNL     1       1.407   9.625  19.705  0.00  0.00    +0.000 C 
BRANCH  16  18
ATOM     17  N   UNL     1      -0.415  10.332  18.224  0.00  0.00    +0.000 N 
ATOM     18  C   UNL     1      -0.088   9.671  19.407  0.00  0.00    +0.000 C 
ATOM     19  O   UNL     1      -0.863   9.077  20.153  0.00  0.00    +0.000 OA
ATOM     20  H   UNL     1       0.369  10.700  17.694  0.00  0.00    +0.000 HD
BRANCH  17  26
ATOM     21  C   UNL     1      -4.993  12.452  18.358  0.00  0.00    +0.000 C 
ATOM     22  C   UNL     1      -3.948  11.552  17.747  0.00  0.00    +0.000 A 
ATOM     23  C   UNL     1      -4.288  10.872  16.570  0.00  0.00    +0.000 A 
ATOM     24  C   UNL     1      -3.366  10.047  15.948  0.00  0.00    +0.000 A 
ATOM     25  C   UNL     1      -2.099   9.887  16.498  0.00  0.00    +0.000 A 
ATOM     26  C   UNL     1      -1.714  10.535  17.681  0.00  0.00    +0.000 A 
ATOM     27  C   UNL     1      -2.653  11.389  18.322  0.00  0.00    +0.000 A 
ATOM     28  C   UNL     1      -2.363  12.147  19.597  0.00  0.00    +0.000 C 
ENDBRANCH  17  26
ENDBRANCH  16  18
ENDBRANCH   1  16
TORSDOF 3
ENDMDL
MODEL 4
REMARK VINA RESULT:      -7.4      0.910      2.193
REMARK  Name = 
REMARK  5 active torsions:
REMARK  status: ('A' for Active; 'I' for Inactive)
REMARK    1  A    between atoms: C_1  and  C_2
REMARK    2  A    between atoms: C_6  and  N_7
REMARK    3  A    between atoms: C_8  and  C_10
REMARK    4  A    between atoms: C_10  and  N_11
REMARK    5  A    between atoms: C_25  and  C_26
REMARK                            x       y       z     vdW  Elec       q    Type
REMARK                         _______ _______ _______ _____ _____    ______ ____
ROOT
ATOM      1  N   UNL     1       4.542   5.789  18.026  0.00  0.00    +0.000 N 
ATOM      2  C   UNL     1       3.251   6.130  18.218  0.00  0.00    +0.000 C 
ATOM      3  O   UNL     1       2.731   7.192  17.913  0.00  0.00    +0.000 OA
ATOM      4  N   UNL     1       2.591   5.077  18.785  0.00  0.00    +0.000 N 
ATOM      5  C   UNL     1       3.438   3.925  19.015  0.00  0.00    +0.000 C 
ATOM      6  C   UNL     1       3.017   2.721  18.163  0.00  0.00    +0.000 C 
ATOM      7  C   UNL     1       2.049   1.724  18.796  0.00  0.00    +0.000 C 
ATOM      8  C   UNL     1       0.648   2.254  19.073  0.00  0.00    +0.000 C 
ATOM      9  C   UNL     1       0.395   3.055  20.354  0.00  0.00    +0.000 C 
ATOM     10  C   UNL     1       1.392   2.913  21.500  0.00  0.00    +0.000 C 
ATOM     11  C   UNL     1       2.540   3.920  21.480  0.00  0.00    +0.000 C 
ATOM     12  C   UNL     1       3.690   3.643  20.508  0.00  0.00    +0.000 C 
ATOM     13  C   UNL     1       4.761   4.500  18.424  0.00  0.00    +0.000 C 
ATOM     14  O   UNL     1       5.826   3.903  18.375  0.00  0.00    +0.000 OA
ATOM     15  H   UNL     1       1.612   5.161  19.020  0.00  0.00    +0.000 HD
ENDROOT
BRANCH   1  16
ATOM     16  C   UNL     1       5.544   6.691  17.512  0.00  0.00    +0.000 C 
BRANCH  16  18
ATOM     17  N   UNL     1       6.453   5.428  15.616  0.00  0.00    +0.000 N 
ATOM     18  C   UNL     1       5.707   6.540  16.003  0.00  0.00    +0.000 C 
ATOM     19  O   UNL     1       5.125   7.328  15.259  0.00  0.00    +0.000 OA
ATOM     20  H   UNL     1       6.796   4.844  16.372  0.00  0.00    +0.000 HD
BRANCH  17  26
ATOM     21  C   UNL     1       5.720   2.482  11.584  0.00  0.00    +0.000 C 
ATOM     22  C   UNL     1       6.430   3.585  12.330  0.00  0.00    +0.000 A 
ATOM     23  C   UNL     1       7.473   4.245  11.668  0.00  0.00    +0.000 A 
ATOM     24  C   UNL     1       8.152   5.280  12.291  0.00  0.00    +0.000 A 
ATOM     25  C   UNL     1       7.800   5.661  13.580  0.00  0.00    +0.000 A 
ATOM     26  C   UNL     1       6.772   5.023  14.290  0.00  0.00    +0.000 A 
ATOM     27  C   UNL     1       6.067   3.964  13.656  0.00  0.00    +0.000 A 
ATOM     28  C   UNL     1       4.939   3.199  14.309  0.00  0.00    +0.000 C 
ENDBRANCH  17  26
ENDBRANCH  16  18
ENDBRANCH   1  16
TORSDOF 3
ENDMDL
MODEL 5
REMARK VINA RESULT:      -7.3      3.730      5.922
REMARK  Name = 
REMARK  5 active torsions:
REMARK  status: ('A' for Active; 'I' for Inactive)
REMARK    1  A    between atoms: C_1  and  C_2
REMARK    2  A    between atoms: C_6  and  N_7
REMARK    3  A    between atoms: C_8  and  C_10
REMARK    4  A    between atoms: C_10  and  N_11
REMARK    5  A    between atoms: C_25  and  C_26
REMARK                            x       y       z     vdW  Elec       q    Type
REMARK                         _______ _______ _______ _____ _____    ______ ____
ROOT
ATOM      1  N   UNL     1       5.989   6.183  17.618  0.00  0.00    +0.000 N 
ATOM      2  C   UNL     1       6.254   4.965  18.135  0.00  0.00    +0.000 C 
ATOM      3  O   UNL     1       7.346   4.422  18.181  0.00  0.00    +0.000 OA
ATOM      4  N   UNL     1       5.101   4.435  18.640  0.00  0.00    +0.000 N 
ATOM      5  C   UNL     1       3.952   5.302  18.481  0.00  0.00    +0.000 C 
ATOM      6  C   UNL     1       3.401   5.781  19.830  0.00  0.00    +0.000 C 
ATOM      7  C   UNL     1       2.279   4.956  20.456  0.00  0.00    +0.000 C 
ATOM      8  C   UNL     1       2.666   3.551  20.901  0.00  0.00    +0.000 C 
ATOM      9  C   UNL     1       2.690   2.422  19.867  0.00  0.00    +0.000 C 
ATOM     10  C   UNL     1       1.909   2.618  18.570  0.00  0.00    +0.000 C 
ATOM     11  C   UNL     1       2.708   3.246  17.429  0.00  0.00    +0.000 C 
ATOM     12  C   UNL     1       2.915   4.761  17.479  0.00  0.00    +0.000 C 
ATOM     13  C   UNL     1       4.673   6.504  17.796  0.00  0.00    +0.000 C 
ATOM     14  O   UNL     1       4.129   7.538  17.439  0.00  0.00    +0.000 OA
ATOM     15  H   UNL     1       5.107   3.512  19.052  0.00  0.00    +0.000 HD
ENDROOT
BRANCH   1  16
ATOM     16  C   UNL     1       6.966   6.997  16.936  0.00  0.00    +0.000 C 
BRANCH  16  18
ATOM     17  N   UNL     1       7.859   9.161  17.664  0.00  0.00    +0.000 N 
ATOM     18  C   UNL     1       7.815   7.793  17.922  0.00  0.00    +0.000 C 
ATOM     19  O   UNL     1       8.313   7.212  18.884  0.00  0.00    +0.000 OA
ATOM     20  H   UNL     1       7.322   9.476  16.861  0.00  0.00    +0.000 HD
BRANCH  17  26
ATOM     21  C   UNL     1       9.154  13.967  18.505  0.00  0.00    +0.000 C 
ATOM     22  C   UNL     1       9.204  12.490  18.810  0.00  0.00    +0.000 A 
ATOM     23  C   UNL     1       9.995  12.078  19.890  0.00  0.00    +0.000 A 
ATOM     24  C   UNL     1      10.067  10.739  20.234  0.00  0.00    +0.000 A 
ATOM     25  C   UNL     1       9.355   9.797  19.500  0.00  0.00    +0.000 A 
ATOM     26  C   UNL     1       8.558  10.156  18.403  0.00  0.00    +0.000 A 
ATOM     27  C   UNL     1       8.474  11.529  18.047  0.00  0.00    +0.000 A 
ATOM     28  C   UNL     1       7.651  12.048  16.890  0.00  0.00    +0.000 C 
ENDBRANCH  17  26
ENDBRANCH  16  18
ENDBRANCH   1  16
TORSDOF 3
ENDMDL
MODEL 6
REMARK VINA RESULT:      -7.3      5.440      8.473
REMARK  Name = 
REMARK  5 active torsions:
REMARK  status: ('A' for Active; 'I' for Inactive)
REMARK    1  A    between atoms: C_1  and  C_2
REMARK    2  A    between atoms: C_6  and  N_7
REMARK    3  A    between atoms: C_8  and  C_10
REMARK    4  A    between atoms: C_10  and  N_11
REMARK    5  A    between atoms: C_25  and  C_26
REMARK                            x       y       z     vdW  Elec       q    Type
REMARK                         _______ _______ _______ _____ _____    ______ ____
ROOT
ATOM      1  N   UNL     1       1.833   8.445  19.341  0.00  0.00    +0.000 N 
ATOM      2  C   UNL     1       1.905   7.604  20.394  0.00  0.00    +0.000 C 
ATOM      3  O   UNL     1       1.544   7.843  21.535  0.00  0.00    +0.000 OA
ATOM      4  N   UNL     1       2.421   6.410  19.977  0.00  0.00    +0.000 N 
ATOM      5  C   UNL     1       2.738   6.383  18.564  0.00  0.00    +0.000 C 
ATOM      6  C   UNL     1       1.864   5.384  17.796  0.00  0.00    +0.000 C 
ATOM      7  C   UNL     1       2.417   3.973  17.611  0.00  0.00    +0.000 C 
ATOM      8  C   UNL     1       2.562   3.152  18.887  0.00  0.00    +0.000 C 
ATOM      9  C   UNL     1       3.807   3.344  19.758  0.00  0.00    +0.000 C 
ATOM     10  C   UNL     1       5.040   3.980  19.123  0.00  0.00    +0.000 C 
ATOM     11  C   UNL     1       5.112   5.501  19.246  0.00  0.00    +0.000 C 
ATOM     12  C   UNL     1       4.250   6.318  18.281  0.00  0.00    +0.000 C 
ATOM     13  C   UNL     1       2.262   7.824  18.202  0.00  0.00    +0.000 C 
ATOM     14  O   UNL     1       2.315   8.321  17.087  0.00  0.00    +0.000 OA
ATOM     15  H   UNL     1       2.566   5.663  20.641  0.00  0.00    +0.000 HD
ENDROOT
BRANCH   1  16
ATOM     16  C   UNL     1       1.402   9.819  19.436  0.00  0.00    +0.000 C 
BRANCH  16  18
ATOM     17  N   UNL     1      -0.523  10.481  18.070  0.00  0.00    +0.000 N 
ATOM     18  C   UNL     1      -0.111   9.939  19.286  0.00  0.00    +0.000 C 
ATOM     19  O   UNL     1      -0.836   9.493  20.173  0.00  0.00    +0.000 OA
ATOM     20  H   UNL     1       0.220  10.728  17.423  0.00  0.00    +0.000 HD
BRANCH  17  26
ATOM     21  C   UNL     1      -5.062  12.609  18.656  0.00  0.00    +0.000 C 
ATOM     22  C   UNL     1      -4.074  11.735  17.924  0.00  0.00    +0.000 A 
ATOM     23  C   UNL     1      -4.508  11.113  16.746  0.00  0.00    +0.000 A 
ATOM     24  C   UNL     1      -3.642  10.315  16.017  0.00  0.00    +0.000 A 
ATOM     25  C   UNL     1      -2.338  10.124  16.460  0.00  0.00    +0.000 A 
ATOM     26  C   UNL     1      -1.859  10.714  17.638  0.00  0.00    +0.000 A 
ATOM     27  C   UNL     1      -2.739  11.540  18.389  0.00  0.00    +0.000 A 
ATOM     28  C   UNL     1      -2.347  12.236  19.673  0.00  0.00    +0.000 C 
ENDBRANCH  17  26
ENDBRANCH  16  18
ENDBRANCH   1  16
TORSDOF 3
ENDMDL
MODEL 7
REMARK VINA RESULT:      -6.9      5.526      9.468
REMARK  Name = 
REMARK  5 active torsions:
REMARK  status: ('A' for Active; 'I' for Inactive)
REMARK    1  A    between atoms: C_1  and  C_2
REMARK    2  A    between atoms: C_6  and  N_7
REMARK    3  A    between atoms: C_8  and  C_10
REMARK    4  A    between atoms: C_10  and  N_11
REMARK    5  A    between atoms: C_25  and  C_26
REMARK                            x       y       z     vdW  Elec       q    Type
REMARK                         _______ _______ _______ _____ _____    ______ ____
ROOT
ATOM      1  N   UNL     1       1.834   8.747  19.216  0.00  0.00    +0.000 N 
ATOM      2  C   UNL     1       1.766   7.980  20.324  0.00  0.00    +0.000 C 
ATOM      3  O   UNL     1       1.405   8.341  21.433  0.00  0.00    +0.000 OA
ATOM      4  N   UNL     1       2.135   6.703  20.007  0.00  0.00    +0.000 N 
ATOM      5  C   UNL     1       2.487   6.538  18.612  0.00  0.00    +0.000 C 
ATOM      6  C   UNL     1       1.515   5.606  17.878  0.00  0.00    +0.000 C 
ATOM      7  C   UNL     1       1.887   4.127  17.807  0.00  0.00    +0.000 C 
ATOM      8  C   UNL     1       1.887   3.386  19.138  0.00  0.00    +0.000 C 
ATOM      9  C   UNL     1       3.119   3.478  20.042  0.00  0.00    +0.000 C 
ATOM     10  C   UNL     1       4.442   3.907  19.413  0.00  0.00    +0.000 C 
ATOM     11  C   UNL     1       4.707   5.411  19.440  0.00  0.00    +0.000 C 
ATOM     12  C   UNL     1       3.987   6.262  18.391  0.00  0.00    +0.000 C 
ATOM     13  C   UNL     1       2.213   7.999  18.138  0.00  0.00    +0.000 C 
ATOM     14  O   UNL     1       2.362   8.406  16.996  0.00  0.00    +0.000 OA
ATOM     15  H   UNL     1       2.163   5.992  20.723  0.00  0.00    +0.000 HD
ENDROOT
BRANCH   1  16
ATOM     16  C   UNL     1       1.581  10.167  19.205  0.00  0.00    +0.000 C 
BRANCH  16  18
ATOM     17  N   UNL     1      -0.155  11.444  20.374  0.00  0.00    +0.000 N 
ATOM     18  C   UNL     1       0.101  10.471  19.410  0.00  0.00    +0.000 C 
ATOM     19  O   UNL     1      -0.726   9.922  18.685  0.00  0.00    +0.000 OA
ATOM     20  H   UNL     1       0.662  11.844  20.824  0.00  0.00    +0.000 HD
BRANCH  17  26
ATOM     21  C   UNL     1      -3.668  12.254  23.907  0.00  0.00    +0.000 C 
ATOM     22  C   UNL     1      -3.144  12.325  22.494  0.00  0.00    +0.000 A 
ATOM     23  C   UNL     1      -3.969  12.913  21.527  0.00  0.00    +0.000 A 
ATOM     24  C   UNL     1      -3.537  13.027  20.215  0.00  0.00    +0.000 A 
ATOM     25  C   UNL     1      -2.283  12.548  19.856  0.00  0.00    +0.000 A 
ATOM     26  C   UNL     1      -1.425  11.939  20.783  0.00  0.00    +0.000 A 
ATOM     27  C   UNL     1      -1.857  11.825  22.132  0.00  0.00    +0.000 A 
ATOM     28  C   UNL     1      -1.029  11.193  23.228  0.00  0.00    +0.000 C 
ENDBRANCH  17  26
ENDBRANCH  16  18
ENDBRANCH   1  16
TORSDOF 3
ENDMDL
MODEL 8
REMARK VINA RESULT:      -6.9      4.205      6.857
REMARK  Name = 
REMARK  5 active torsions:
REMARK  status: ('A' for Active; 'I' for Inactive)
REMARK    1  A    between atoms: C_1  and  C_2
REMARK    2  A    between atoms: C_6  and  N_7
REMARK    3  A    between atoms: C_8  and  C_10
REMARK    4  A    between atoms: C_10  and  N_11
REMARK    5  A    between atoms: C_25  and  C_26
REMARK                            x       y       z     vdW  Elec       q    Type
REMARK                         _______ _______ _______ _____ _____    ______ ____
ROOT
ATOM      1  N   UNL     1       6.914   6.431  17.817  0.00  0.00    +0.000 N 
ATOM      2  C   UNL     1       5.973   6.428  16.850  0.00  0.00    +0.000 C 
ATOM      3  O   UNL     1       6.068   6.940  15.746  0.00  0.00    +0.000 OA
ATOM      4  N   UNL     1       4.888   5.722  17.287  0.00  0.00    +0.000 N 
ATOM      5  C   UNL     1       5.048   5.193  18.625  0.00  0.00    +0.000 C 
ATOM      6  C   UNL     1       5.072   3.659  18.640  0.00  0.00    +0.000 C 
ATOM      7  C   UNL     1       3.743   2.943  18.871  0.00  0.00    +0.000 C 
ATOM      8  C   UNL     1       2.711   3.103  17.761  0.00  0.00    +0.000 C 
ATOM      9  C   UNL     1       1.836   4.359  17.733  0.00  0.00    +0.000 C 
ATOM     10  C   UNL     1       1.696   5.168  19.020  0.00  0.00    +0.000 C 
ATOM     11  C   UNL     1       2.729   6.281  19.192  0.00  0.00    +0.000 C 
ATOM     12  C   UNL     1       4.126   5.865  19.660  0.00  0.00    +0.000 C 
ATOM     13  C   UNL     1       6.496   5.705  18.896  0.00  0.00    +0.000 C 
ATOM     14  O   UNL     1       7.125   5.521  19.927  0.00  0.00    +0.000 OA
ATOM     15  H   UNL     1       4.073   5.631  16.697  0.00  0.00    +0.000 HD
ENDROOT
BRANCH   1  16
ATOM     16  C   UNL     1       8.163   7.148  17.720  0.00  0.00    +0.000 C 
BRANCH  16  18
ATOM     17  N   UNL     1       9.070   9.014  19.027  0.00  0.00    +0.000 N 
ATOM     18  C   UNL     1       8.022   8.583  18.216  0.00  0.00    +0.000 C 
ATOM     19  O   UNL     1       7.077   9.261  17.818  0.00  0.00    +0.000 OA
ATOM     20  H   UNL     1       9.807   8.335  19.191  0.00  0.00    +0.000 HD
BRANCH  17  26
ATOM     21  C   UNL     1      10.580  13.828  18.901  0.00  0.00    +0.000 C 
ATOM     22  C   UNL     1       9.966  12.631  19.585  0.00  0.00    +0.000 A 
ATOM     23  C   UNL     1       9.522  12.795  20.903  0.00  0.00    +0.000 A 
ATOM     24  C   UNL     1       8.931  11.741  21.579  0.00  0.00    +0.000 A 
ATOM     25  C   UNL     1       8.784  10.511  20.948  0.00  0.00    +0.000 A 
ATOM     26  C   UNL     1       9.222  10.292  19.633  0.00  0.00    +0.000 A 
ATOM     27  C   UNL     1       9.824  11.371  18.931  0.00  0.00    +0.000 A 
ATOM     28  C   UNL     1      10.335  11.267  17.512  0.00  0.00    +0.000 C 
ENDBRANCH  17  26
ENDBRANCH  16  18
ENDBRANCH   1  16
TORSDOF 3
ENDMDL
MODEL 9
REMARK VINA RESULT:      -6.9      2.656      7.471
REMARK  Name = 
REMARK  5 active torsions:
REMARK  status: ('A' for Active; 'I' for Inactive)
REMARK    1  A    between atoms: C_1  and  C_2
REMARK    2  A    between atoms: C_6  and  N_7
REMARK    3  A    between atoms: C_8  and  C_10
REMARK    4  A    between atoms: C_10  and  N_11
REMARK    5  A    between atoms: C_25  and  C_26
REMARK                            x       y       z     vdW  Elec       q    Type
REMARK                         _______ _______ _______ _____ _____    ______ ____
ROOT
ATOM      1  N   UNL     1       3.408   3.970  19.269  0.00  0.00    +0.000 N 
ATOM      2  C   UNL     1       4.695   3.569  19.323  0.00  0.00    +0.000 C 
ATOM      3  O   UNL     1       5.211   2.913  20.213  0.00  0.00    +0.000 OA
ATOM      4  N   UNL     1       5.339   3.987  18.193  0.00  0.00    +0.000 N 
ATOM      5  C   UNL     1       4.485   4.722  17.283  0.00  0.00    +0.000 C 
ATOM      6  C   UNL     1       4.285   3.982  15.955  0.00  0.00    +0.000 C 
ATOM      7  C   UNL     1       5.240   4.326  14.814  0.00  0.00    +0.000 C 
ATOM      8  C   UNL     1       6.694   3.928  15.033  0.00  0.00    +0.000 C 
ATOM      9  C   UNL     1       7.605   4.850  15.849  0.00  0.00    +0.000 C 
ATOM     10  C   UNL     1       7.184   6.306  16.022  0.00  0.00    +0.000 C 
ATOM     11  C   UNL     1       6.332   6.585  17.259  0.00  0.00    +0.000 C 
ATOM     12  C   UNL     1       4.849   6.215  17.178  0.00  0.00    +0.000 C 
ATOM     13  C   UNL     1       3.158   4.627  18.097  0.00  0.00    +0.000 C 
ATOM     14  O   UNL     1       2.088   5.107  17.755  0.00  0.00    +0.000 OA
ATOM     15  H   UNL     1       6.323   3.792  18.070  0.00  0.00    +0.000 HD
ENDROOT
BRANCH   1  16
ATOM     16  C   UNL     1       2.456   3.762  20.334  0.00  0.00    +0.000 C 
BRANCH  16  18
ATOM     17  N   UNL     1       2.142   6.188  20.500  0.00  0.00    +0.000 N 
ATOM     18  C   UNL     1       1.507   4.948  20.473  0.00  0.00    +0.000 C 
ATOM     19  O   UNL     1       0.295   4.744  20.468  0.00  0.00    +0.000 OA
ATOM     20  H   UNL     1       3.154   6.166  20.418  0.00  0.00    +0.000 HD
BRANCH  17  26
ATOM     21  C   UNL     1       1.055  10.765  18.673  0.00  0.00    +0.000 C 
ATOM     22  C   UNL     1       1.009   9.701  19.741  0.00  0.00    +0.000 A 
ATOM     23  C   UNL     1       0.321  10.000  20.923  0.00  0.00    +0.000 A 
ATOM     24  C   UNL     1       0.225   9.057  21.934  0.00  0.00    +0.000 A 
ATOM     25  C   UNL     1       0.820   7.811  21.777  0.00  0.00    +0.000 A 
ATOM     26  C   UNL     1       1.530   7.467  20.617  0.00  0.00    +0.000 A 
ATOM     27  C   UNL     1       1.628   8.426  19.573  0.00  0.00    +0.000 A 
ATOM     28  C   UNL     1       2.362   8.180  18.274  0.00  0.00    +0.000 C 
ENDBRANCH  17  26
ENDBRANCH  16  18
ENDBRANCH   1  16
TORSDOF 3
ENDMDL
