MODEL 1
REMARK VINA RESULT:      -9.0      0.000      0.000
REMARK  Name = 
REMARK  7 active torsions:
REMARK  status: ('A' for Active; 'I' for Inactive)
REMARK    1  A    between atoms: N_2  and  C_4
REMARK    2  A    between atoms: C_11  and  O_12
REMARK    3  A    between atoms: O_12  and  C_13
REMARK    4  A    between atoms: C_13  and  C_14
REMARK    5  A    between atoms: C_17  and  C_18
REMARK    6  A    between atoms: C_21  and  O_22
REMARK    7  A    between atoms: O_22  and  C_23
REMARK                            x       y       z     vdW  Elec       q    Type
REMARK                         _______ _______ _______ _____ _____    ______ ____
ROOT
ATOM      1  C   UNL     1       2.494   7.184  18.735  0.00  0.00    +0.000 A 
ATOM      2  C   UNL     1       2.063   8.375  18.166  0.00  0.00    +0.000 A 
ATOM      3  C   UNL     1       1.393   9.301  18.966  0.00  0.00    +0.000 A 
ATOM      4  C   UNL     1       1.150   9.037  20.322  0.00  0.00    +0.000 A 
ATOM      5  C   UNL     1       1.653   7.825  20.797  0.00  0.00    +0.000 A 
ATOM      6  N   UNL     1       2.307   6.903  20.047  0.00  0.00    +0.000 NA
ENDROOT
BRANCH   4   7
ATOM      7  C   UNL     1       0.380   9.965  21.173  0.00  0.00    +0.000 A 
ATOM      8  C   UNL     1       0.289  11.330  20.850  0.00  0.00    +0.000 A 
ATOM      9  C   UNL     1      -0.429  12.221  21.649  0.00  0.00    +0.000 A 
ATOM     10  C   UNL     1      -1.106  11.770  22.780  0.00  0.00    +0.000 A 
ATOM     11  C   UNL     1      -1.026  10.423  23.129  0.00  0.00    +0.000 A 
ATOM     12  C   UNL     1      -0.292   9.533  22.330  0.00  0.00    +0.000 A 
BRANCH  10  13
ATOM     13  O   UNL     1      -1.770  12.737  23.476  0.00  0.00    +0.000 OA
BRANCH  13  14
ATOM     14  C   UNL     1      -3.181  12.722  23.357  0.00  0.00    +0.000 C 
ATOM     15  F   UNL     1      -3.515  12.228  22.139  0.00  0.00    +0.000 F 
ATOM     16  F   UNL     1      -3.655  11.844  24.275  0.00  0.00    +0.000 F 
ENDBRANCH  13  14
ENDBRANCH  10  13
ENDBRANCH   4   7
BRANCH   1  17
ATOM     17  C   UNL     1       3.127   6.111  17.882  0.00  0.00    +0.000 C 
BRANCH  17  18
ATOM     18  O   UNL     1       3.270   4.891  18.618  0.00  0.00    +0.000 OA
BRANCH  18  26
ATOM     19  C   UNL     1       6.926   4.818  14.451  0.00  0.00    +0.000 A 
ATOM     20  C   UNL     1       5.617   4.400  14.624  0.00  0.00    +0.000 A 
ATOM     21  N   UNL     1       5.467   4.341  15.978  0.00  0.00    +0.000 N 
ATOM     22  C   UNL     1       6.655   4.670  16.557  0.00  0.00    +0.000 A 
ATOM     23  N   UNL     1       7.566   4.976  15.666  0.00  0.00    +0.000 NA
ATOM     24  O   UNL     1       6.875   4.565  17.857  0.00  0.00    +0.000 OA
ATOM     25  C   UNL     1       5.732   4.821  18.667  0.00  0.00    +0.000 C 
ATOM     26  C   UNL     1       4.428   4.122  18.234  0.00  0.00    +0.000 C 
ATOM     27  C   UNL     1       4.327   3.862  16.721  0.00  0.00    +0.000 C 
BRANCH  19  29
ATOM     28  O   UNL     1       8.550   5.842  13.206  0.00  0.00    +0.000 OA
ATOM     29  N   UNL     1       7.621   5.016  13.202  0.00  0.00    +0.000 N 
ATOM     30  O   UNL     1       7.250   4.362  12.216  0.00  0.00    +0.000 OA
ENDBRANCH  19  29
ENDBRANCH  18  26
ENDBRANCH  17  18
ENDBRANCH   1  17
TORSDOF 7
ENDMDL
MODEL 2
REMARK VINA RESULT:      -8.8      0.368      1.224
REMARK  Name = 
REMARK  7 active torsions:
REMARK  status: ('A' for Active; 'I' for Inactive)
REMARK    1  A    between atoms: N_2  and  C_4
REMARK    2  A    between atoms: C_11  and  O_12
REMARK    3  A    between atoms: O_12  and  C_13
REMARK    4  A    between atoms: C_13  and  C_14
REMARK    5  A    between atoms: C_17  and  C_18
REMARK    6  A    between atoms: C_21  and  O_22
REMARK    7  A    between atoms: O_22  and  C_23
REMARK                            x       y       z     vdW  Elec       q    Type
REMARK                         _______ _______ _______ _____ _____    ______ ____
ROOT
ATOM      1  C   UNL     1       2.456   7.330  18.678  0.00  0.00    +0.000 A 
ATOM      2  C   UNL     1       2.043   8.517  18.085  0.00  0.00    +0.000 A 
ATOM      3  C   UNL     1       1.360   9.455  18.860  0.00  0.00    +0.000 A 
ATOM      4  C   UNL     1       1.087   9.208  20.214  0.00  0.00    +0.000 A 
ATOM      5  C   UNL     1       1.575   8.000  20.713  0.00  0.00    +0.000 A 
ATOM      6  N   UNL     1       2.240   7.065  19.988  0.00  0.00    +0.000 NA
ENDROOT
BRANCH   4   7
ATOM      7  C   UNL     1       0.304  10.150  21.037  0.00  0.00    +0.000 A 
ATOM      8  C   UNL     1      -0.282   9.735  22.245  0.00  0.00    +0.000 A 
ATOM      9  C   UNL     1      -1.031  10.612  23.030  0.00  0.00    +0.000 A 
ATOM     10  C   UNL     1      -1.192  11.942  22.649  0.00  0.00    +0.000 A 
ATOM     11  C   UNL     1      -0.629  12.379  21.451  0.00  0.00    +0.000 A 
ATOM     12  C   UNL     1       0.113  11.490  20.658  0.00  0.00    +0.000 A 
BRANCH  10  13
ATOM     13  O   UNL     1      -1.945  12.697  23.499  0.00  0.00    +0.000 OA
BRANCH  13  14
ATOM     14  C   UNL     1      -3.278  12.259  23.693  0.00  0.00    +0.000 C 
ATOM     15  F   UNL     1      -3.897  13.100  24.559  0.00  0.00    +0.000 F 
ATOM     16  F   UNL     1      -3.922  12.382  22.506  0.00  0.00    +0.000 F 
ENDBRANCH  13  14
ENDBRANCH  10  13
ENDBRANCH   4   7
BRANCH   1  17
ATOM     17  C   UNL     1       3.102   6.245  17.850  0.00  0.00    +0.000 C 
BRANCH  17  18
ATOM     18  O   UNL     1       3.325   5.069  18.636  0.00  0.00    +0.000 OA
BRANCH  18  26
ATOM     19  C   UNL     1       6.969   4.938  14.460  0.00  0.00    +0.000 A 
ATOM     20  C   UNL     1       5.719   4.392  14.698  0.00  0.00    +0.000 A 
ATOM     21  N   UNL     1       5.575   4.475  16.051  0.00  0.00    +0.000 N 
ATOM     22  C   UNL     1       6.715   5.007  16.572  0.00  0.00    +0.000 A 
ATOM     23  N   UNL     1       7.585   5.312  15.640  0.00  0.00    +0.000 NA
ATOM     24  O   UNL     1       6.945   5.083  17.873  0.00  0.00    +0.000 OA
ATOM     25  C   UNL     1       5.778   5.296  18.661  0.00  0.00    +0.000 C 
ATOM     26  C   UNL     1       4.566   4.401  18.330  0.00  0.00    +0.000 C 
ATOM     27  C   UNL     1       4.499   3.956  16.859  0.00  0.00    +0.000 C 
BRANCH  19  29
ATOM     28  O   UNL     1       7.190   4.386  12.250  0.00  0.00    +0.000 OA
ATOM     29  N   UNL     1       7.638   5.068  13.188  0.00  0.00    +0.000 N 
ATOM     30  O   UNL     1       8.608   5.837  13.114  0.00  0.00    +0.000 OA
ENDBRANCH  19  29
ENDBRANCH  18  26
ENDBRANCH  17  18
ENDBRANCH   1  17
TORSDOF 7
ENDMDL
MODEL 3
REMARK VINA RESULT:      -8.6      1.022      1.022
REMARK  Name = 
REMARK  7 active torsions:
REMARK  status: ('A' for Active; 'I' for Inactive)
REMARK    1  A    between atoms: N_2  and  C_4
REMARK    2  A    between atoms: C_11  and  O_12
REMARK    3  A    between atoms: O_12  and  C_13
REMARK    4  A    between atoms: C_13  and  C_14
REMARK    5  A    between atoms: C_17  and  C_18
REMARK    6  A    between atoms: C_21  and  O_22
REMARK    7  A    between atoms: O_22  and  C_23
REMARK                            x       y       z     vdW  Elec       q    Type
REMARK                         _______ _______ _______ _____ _____    ______ ____
ROOT
ATOM      1  C   UNL     1       2.554   6.889  18.915  0.00  0.00    +0.000 A 
ATOM      2  C   UNL     1       2.261   8.122  18.346  0.00  0.00    +0.000 A 
ATOM      3  C   UNL     1       1.514   9.043  19.082  0.00  0.00    +0.000 A 
ATOM      4  C   UNL     1       1.058   8.733  20.371  0.00  0.00    +0.000 A 
ATOM      5  C   UNL     1       1.436   7.481  20.856  0.00  0.00    +0.000 A 
ATOM      6  N   UNL     1       2.159   6.561  20.168  0.00  0.00    +0.000 NA
ENDROOT
BRANCH   4   7
ATOM      7  C   UNL     1       0.205   9.659  21.142  0.00  0.00    +0.000 A 
ATOM      8  C   UNL     1      -0.370  10.786  20.530  0.00  0.00    +0.000 A 
ATOM      9  C   UNL     1      -1.173  11.674  21.248  0.00  0.00    +0.000 A 
ATOM     10  C   UNL     1      -1.452  11.447  22.593  0.00  0.00    +0.000 A 
ATOM     11  C   UNL     1      -0.887  10.342  23.228  0.00  0.00    +0.000 A 
ATOM     12  C   UNL     1      -0.070   9.459  22.506  0.00  0.00    +0.000 A 
BRANCH  10  13
ATOM     13  O   UNL     1      -2.247  12.386  23.181  0.00  0.00    +0.000 OA
BRANCH  13  14
ATOM     14  C   UNL     1      -1.851  13.733  22.990  0.00  0.00    +0.000 C 
ATOM     15  F   UNL     1      -2.816  14.549  23.483  0.00  0.00    +0.000 F 
ATOM     16  F   UNL     1      -0.744  13.941  23.744  0.00  0.00    +0.000 F 
ENDBRANCH  13  14
ENDBRANCH  10  13
ENDBRANCH   4   7
BRANCH   1  17
ATOM     17  C   UNL     1       3.266   5.826  18.114  0.00  0.00    +0.000 C 
BRANCH  17  18
ATOM     18  O   UNL     1       3.774   4.796  18.970  0.00  0.00    +0.000 OA
BRANCH  18  26
ATOM     19  C   UNL     1       6.908   4.821  14.398  0.00  0.00    +0.000 A 
ATOM     20  C   UNL     1       5.796   4.118  14.829  0.00  0.00    +0.000 A 
ATOM     21  N   UNL     1       5.791   4.306  16.180  0.00  0.00    +0.000 N 
ATOM     22  C   UNL     1       6.881   5.052  16.514  0.00  0.00    +0.000 A 
ATOM     23  N   UNL     1       7.582   5.394  15.461  0.00  0.00    +0.000 NA
ATOM     24  O   UNL     1       7.238   5.284  17.766  0.00  0.00    +0.000 OA
ATOM     25  C   UNL     1       6.146   5.392  18.675  0.00  0.00    +0.000 C 
ATOM     26  C   UNL     1       5.065   4.298  18.565  0.00  0.00    +0.000 C 
ATOM     27  C   UNL     1       4.909   3.710  17.152  0.00  0.00    +0.000 C 
BRANCH  19  29
ATOM     28  O   UNL     1       8.185   5.867  12.813  0.00  0.00    +0.000 OA
ATOM     29  N   UNL     1       7.403   4.929  13.047  0.00  0.00    +0.000 N 
ATOM     30  O   UNL     1       7.018   4.095  12.214  0.00  0.00    +0.000 OA
ENDBRANCH  19  29
ENDBRANCH  18  26
ENDBRANCH  17  18
ENDBRANCH   1  17
TORSDOF 7
ENDMDL
MODEL 4
REMARK VINA RESULT:      -8.5      0.723      1.355
REMARK  Name = 
REMARK  7 active torsions:
REMARK  status: ('A' for Active; 'I' for Inactive)
REMARK    1  A    between atoms: N_2  and  C_4
REMARK    2  A    between atoms: C_11  and  O_12
REMARK    3  A    between atoms: O_12  and  C_13
REMARK    4  A    between atoms: C_13  and  C_14
REMARK    5  A    between atoms: C_17  and  C_18
REMARK    6  A    between atoms: C_21  and  O_22
REMARK    7  A    between atoms: O_22  and  C_23
REMARK                            x       y       z     vdW  Elec       q    Type
REMARK                         _______ _______ _______ _____ _____    ______ ____
ROOT
ATOM      1  C   UNL     1       2.516   6.562  18.955  0.00  0.00    +0.000 A 
ATOM      2  C   UNL     1       1.943   6.225  20.175  0.00  0.00    +0.000 A 
ATOM      3  C   UNL     1       1.262   7.208  20.894  0.00  0.00    +0.000 A 
ATOM      4  C   UNL     1       1.159   8.517  20.402  0.00  0.00    +0.000 A 
ATOM      5  C   UNL     1       1.743   8.737  19.154  0.00  0.00    +0.000 A 
ATOM      6  N   UNL     1       2.414   7.806  18.430  0.00  0.00    +0.000 NA
ENDROOT
BRANCH   4   7
ATOM      7  C   UNL     1       0.508   9.593  21.175  0.00  0.00    +0.000 A 
ATOM      8  C   UNL     1      -0.166   9.310  22.375  0.00  0.00    +0.000 A 
ATOM      9  C   UNL     1      -0.793  10.316  23.113  0.00  0.00    +0.000 A 
ATOM     10  C   UNL     1      -0.737  11.642  22.691  0.00  0.00    +0.000 A 
ATOM     11  C   UNL     1      -0.082  11.950  21.500  0.00  0.00    +0.000 A 
ATOM     12  C   UNL     1       0.535  10.934  20.754  0.00  0.00    +0.000 A 
BRANCH  10  13
ATOM     13  O   UNL     1      -1.388  12.529  23.498  0.00  0.00    +0.000 OA
BRANCH  13  14
ATOM     14  C   UNL     1      -2.729  12.813  23.143  0.00  0.00    +0.000 C 
ATOM     15  F   UNL     1      -3.006  12.218  21.955  0.00  0.00    +0.000 F 
ATOM     16  F   UNL     1      -3.526  12.223  24.067  0.00  0.00    +0.000 F 
ENDBRANCH  13  14
ENDBRANCH  10  13
ENDBRANCH   4   7
BRANCH   1  17
ATOM     17  C   UNL     1       3.352   5.558  18.197  0.00  0.00    +0.000 C 
BRANCH  17  18
ATOM     18  O   UNL     1       3.983   4.638  19.094  0.00  0.00    +0.000 OA
BRANCH  18  26
ATOM     19  C   UNL     1       6.884   4.732  14.371  0.00  0.00    +0.000 A 
ATOM     20  C   UNL     1       5.806   4.011  14.853  0.00  0.00    +0.000 A 
ATOM     21  N   UNL     1       5.865   4.192  16.204  0.00  0.00    +0.000 N 
ATOM     22  C   UNL     1       6.960   4.951  16.487  0.00  0.00    +0.000 A 
ATOM     23  N   UNL     1       7.602   5.310  15.403  0.00  0.00    +0.000 NA
ATOM     24  O   UNL     1       7.375   5.182  17.722  0.00  0.00    +0.000 OA
ATOM     25  C   UNL     1       6.329   5.270  18.684  0.00  0.00    +0.000 C 
ATOM     26  C   UNL     1       5.259   4.160  18.622  0.00  0.00    +0.000 C 
ATOM     27  C   UNL     1       5.041   3.577  17.215  0.00  0.00    +0.000 C 
BRANCH  19  29
ATOM     28  O   UNL     1       8.120   5.763  12.744  0.00  0.00    +0.000 OA
ATOM     29  N   UNL     1       7.310   4.855  12.998  0.00  0.00    +0.000 N 
ATOM     30  O   UNL     1       6.842   4.061  12.168  0.00  0.00    +0.000 OA
ENDBRANCH  19  29
ENDBRANCH  18  26
ENDBRANCH  17  18
ENDBRANCH   1  17
TORSDOF 7
ENDMDL
MODEL 5
REMARK VINA RESULT:      -8.4      1.124      1.573
REMARK  Name = 
REMARK  7 active torsions:
REMARK  status: ('A' for Active; 'I' for Inactive)
REMARK    1  A    between atoms: N_2  and  C_4
REMARK    2  A    between atoms: C_11  and  O_12
REMARK    3  A    between atoms: O_12  and  C_13
REMARK    4  A    between atoms: C_13  and  C_14
REMARK    5  A    between atoms: C_17  and  C_18
REMARK    6  A    between atoms: C_21  and  O_22
REMARK    7  A    between atoms: O_22  and  C_23
REMARK                            x       y       z     vdW  Elec       q    Type
REMARK                         _______ _______ _______ _____ _____    ______ ____
ROOT
ATOM      1  C   UNL     1       2.371   7.574  18.803  0.00  0.00    +0.000 A 
ATOM      2  C   UNL     1       1.898   8.659  18.077  0.00  0.00    +0.000 A 
ATOM      3  C   UNL     1       1.094   9.602  18.720  0.00  0.00    +0.000 A 
ATOM      4  C   UNL     1       0.762   9.459  20.075  0.00  0.00    +0.000 A 
ATOM      5  C   UNL     1       1.317   8.351  20.715  0.00  0.00    +0.000 A 
ATOM      6  N   UNL     1       2.099   7.415  20.121  0.00  0.00    +0.000 NA
ENDROOT
BRANCH   4   7
ATOM      7  C   UNL     1      -0.144  10.401  20.760  0.00  0.00    +0.000 A 
ATOM      8  C   UNL     1      -0.194  10.461  22.163  0.00  0.00    +0.000 A 
ATOM      9  C   UNL     1      -1.051  11.342  22.824  0.00  0.00    +0.000 A 
ATOM     10  C   UNL     1      -1.864  12.214  22.104  0.00  0.00    +0.000 A 
ATOM     11  C   UNL     1      -1.842  12.169  20.711  0.00  0.00    +0.000 A 
ATOM     12  C   UNL     1      -0.988  11.274  20.050  0.00  0.00    +0.000 A 
BRANCH  10  13
ATOM     13  O   UNL     1      -2.656  13.022  22.865  0.00  0.00    +0.000 OA
BRANCH  13  14
ATOM     14  C   UNL     1      -2.109  14.288  23.191  0.00  0.00    +0.000 C 
ATOM     15  F   UNL     1      -1.563  14.226  24.431  0.00  0.00    +0.000 F 
ATOM     16  F   UNL     1      -1.089  14.522  22.329  0.00  0.00    +0.000 F 
ENDBRANCH  13  14
ENDBRANCH  10  13
ENDBRANCH   4   7
BRANCH   1  17
ATOM     17  C   UNL     1       3.153   6.477  18.121  0.00  0.00    +0.000 C 
BRANCH  17  18
ATOM     18  O   UNL     1       3.292   5.340  18.980  0.00  0.00    +0.000 OA
BRANCH  18  26
ATOM     19  C   UNL     1       6.822   4.852  14.733  0.00  0.00    +0.000 A 
ATOM     20  C   UNL     1       5.463   4.660  14.914  0.00  0.00    +0.000 A 
ATOM     21  N   UNL     1       5.323   4.556  16.267  0.00  0.00    +0.000 N 
ATOM     22  C   UNL     1       6.558   4.642  16.834  0.00  0.00    +0.000 A 
ATOM     23  N   UNL     1       7.497   4.831  15.940  0.00  0.00    +0.000 NA
ATOM     24  O   UNL     1       6.774   4.431  18.123  0.00  0.00    +0.000 OA
ATOM     25  C   UNL     1       5.704   4.839  18.969  0.00  0.00    +0.000 C 
ATOM     26  C   UNL     1       4.292   4.402  18.532  0.00  0.00    +0.000 C 
ATOM     27  C   UNL     1       4.127   4.244  17.010  0.00  0.00    +0.000 C 
BRANCH  19  29
ATOM     28  O   UNL     1       7.111   4.307  12.529  0.00  0.00    +0.000 OA
ATOM     29  N   UNL     1       7.525   4.992  13.480  0.00  0.00    +0.000 N 
ATOM     30  O   UNL     1       8.488   5.771  13.434  0.00  0.00    +0.000 OA
ENDBRANCH  19  29
ENDBRANCH  18  26
ENDBRANCH  17  18
ENDBRANCH   1  17
TORSDOF 7
ENDMDL
MODEL 6
REMARK VINA RESULT:      -8.4      1.346      1.848
REMARK  Name = 
REMARK  7 active torsions:
REMARK  status: ('A' for Active; 'I' for Inactive)
REMARK    1  A    between atoms: N_2  and  C_4
REMARK    2  A    between atoms: C_11  and  O_12
REMARK    3  A    between atoms: O_12  and  C_13
REMARK    4  A    between atoms: C_13  and  C_14
REMARK    5  A    between atoms: C_17  and  C_18
REMARK    6  A    between atoms: C_21  and  O_22
REMARK    7  A    between atoms: O_22  and  C_23
REMARK                            x       y       z     vdW  Elec       q    Type
REMARK                         _______ _______ _______ _____ _____    ______ ____
ROOT
ATOM      1  C   UNL     1       2.333   7.360  19.252  0.00  0.00    +0.000 A 
ATOM      2  C   UNL     1       1.878   7.175  20.552  0.00  0.00    +0.000 A 
ATOM      3  C   UNL     1       1.056   8.146  21.123  0.00  0.00    +0.000 A 
ATOM      4  C   UNL     1       0.694   9.296  20.406  0.00  0.00    +0.000 A 
ATOM      5  C   UNL     1       1.180   9.364  19.099  0.00  0.00    +0.000 A 
ATOM      6  N   UNL     1       1.983   8.440  18.514  0.00  0.00    +0.000 NA
ENDROOT
BRANCH   4   7
ATOM      7  C   UNL     1      -0.114  10.372  21.011  0.00  0.00    +0.000 A 
ATOM      8  C   UNL     1      -0.373  10.389  22.391  0.00  0.00    +0.000 A 
ATOM      9  C   UNL     1      -1.141  11.396  22.976  0.00  0.00    +0.000 A 
ATOM     10  C   UNL     1      -1.648  12.438  22.204  0.00  0.00    +0.000 A 
ATOM     11  C   UNL     1      -1.414  12.443  20.829  0.00  0.00    +0.000 A 
ATOM     12  C   UNL     1      -0.652  11.421  20.244  0.00  0.00    +0.000 A 
BRANCH  10  13
ATOM     13  O   UNL     1      -2.383  13.359  22.892  0.00  0.00    +0.000 OA
BRANCH  13  14
ATOM     14  C   UNL     1      -1.663  14.151  23.819  0.00  0.00    +0.000 C 
ATOM     15  F   UNL     1      -0.564  14.658  23.205  0.00  0.00    +0.000 F 
ATOM     16  F   UNL     1      -2.448  15.208  24.144  0.00  0.00    +0.000 F 
ENDBRANCH  13  14
ENDBRANCH  10  13
ENDBRANCH   4   7
BRANCH   1  17
ATOM     17  C   UNL     1       3.309   6.388  18.636  0.00  0.00    +0.000 C 
BRANCH  17  18
ATOM     18  O   UNL     1       3.882   5.536  19.634  0.00  0.00    +0.000 OA
BRANCH  18  26
ATOM     19  C   UNL     1       6.771   4.798  14.960  0.00  0.00    +0.000 A 
ATOM     20  C   UNL     1       5.452   4.623  15.345  0.00  0.00    +0.000 A 
ATOM     21  N   UNL     1       5.507   4.595  16.707  0.00  0.00    +0.000 N 
ATOM     22  C   UNL     1       6.810   4.706  17.087  0.00  0.00    +0.000 A 
ATOM     23  N   UNL     1       7.611   4.841  16.058  0.00  0.00    +0.000 NA
ATOM     24  O   UNL     1       7.209   4.566  18.340  0.00  0.00    +0.000 OA
ATOM     25  C   UNL     1       6.270   5.025  19.307  0.00  0.00    +0.000 C 
ATOM     26  C   UNL     1       4.810   4.571  19.101  0.00  0.00    +0.000 C 
ATOM     27  C   UNL     1       4.431   4.330  17.630  0.00  0.00    +0.000 C 
BRANCH  19  29
ATOM     28  O   UNL     1       6.804   4.069  12.792  0.00  0.00    +0.000 OA
ATOM     29  N   UNL     1       7.287   4.865  13.615  0.00  0.00    +0.000 N 
ATOM     30  O   UNL     1       8.172   5.698  13.369  0.00  0.00    +0.000 OA
ENDBRANCH  19  29
ENDBRANCH  18  26
ENDBRANCH  17  18
ENDBRANCH   1  17
TORSDOF 7
ENDMDL
MODEL 7
REMARK VINA RESULT:      -8.3      1.182      1.830
REMARK  Name = 
REMARK  7 active torsions:
REMARK  status: ('A' for Active; 'I' for Inactive)
REMARK    1  A    between atoms: N_2  and  C_4
REMARK    2  A    between atoms: C_11  and  O_12
REMARK    3  A    between atoms: O_12  and  C_13
REMARK    4  A    between atoms: C_13  and  C_14
REMARK    5  A    between atoms: C_17  and  C_18
REMARK    6  A    between atoms: C_21  and  O_22
REMARK    7  A    between atoms: O_22  and  C_23
REMARK                            x       y       z     vdW  Elec       q    Type
REMARK                         _______ _______ _______ _____ _____    ______ ____
ROOT
ATOM      1  C   UNL     1       2.663   7.399  18.754  0.00  0.00    +0.000 A 
ATOM      2  C   UNL     1       2.276   7.029  20.036  0.00  0.00    +0.000 A 
ATOM      3  C   UNL     1       1.434   7.877  20.756  0.00  0.00    +0.000 A 
ATOM      4  C   UNL     1       0.988   9.087  20.205  0.00  0.00    +0.000 A 
ATOM      5  C   UNL     1       1.412   9.344  18.900  0.00  0.00    +0.000 A 
ATOM      6  N   UNL     1       2.231   8.543  18.172  0.00  0.00    +0.000 NA
ENDROOT
BRANCH   4   7
ATOM      7  C   UNL     1       0.157  10.036  20.971  0.00  0.00    +0.000 A 
ATOM      8  C   UNL     1      -0.139   9.802  22.325  0.00  0.00    +0.000 A 
ATOM      9  C   UNL     1      -0.929  10.687  23.060  0.00  0.00    +0.000 A 
ATOM     10  C   UNL     1      -1.422  11.851  22.475  0.00  0.00    +0.000 A 
ATOM     11  C   UNL     1      -1.151  12.103  21.131  0.00  0.00    +0.000 A 
ATOM     12  C   UNL     1      -0.367  11.205  20.391  0.00  0.00    +0.000 A 
BRANCH  10  13
ATOM     13  O   UNL     1      -2.180  12.631  23.297  0.00  0.00    +0.000 OA
BRANCH  13  14
ATOM     14  C   UNL     1      -3.574  12.382  23.269  0.00  0.00    +0.000 C 
ATOM     15  F   UNL     1      -3.926  11.721  24.400  0.00  0.00    +0.000 F 
ATOM     16  F   UNL     1      -4.202  13.583  23.310  0.00  0.00    +0.000 F 
ENDBRANCH  13  14
ENDBRANCH  10  13
ENDBRANCH   4   7
BRANCH   1  17
ATOM     17  C   UNL     1       3.657   6.564  17.983  0.00  0.00    +0.000 C 
BRANCH  17  18
ATOM     18  O   UNL     1       4.482   5.802  18.871  0.00  0.00    +0.000 OA
BRANCH  18  26
ATOM     19  C   UNL     1       6.345   4.255  13.884  0.00  0.00    +0.000 A 
ATOM     20  C   UNL     1       5.621   3.652  14.898  0.00  0.00    +0.000 A 
ATOM     21  N   UNL     1       5.866   4.434  15.988  0.00  0.00    +0.000 N 
ATOM     22  C   UNL     1       6.731   5.421  15.622  0.00  0.00    +0.000 A 
ATOM     23  N   UNL     1       7.040   5.355  14.350  0.00  0.00    +0.000 NA
ATOM     24  O   UNL     1       7.276   6.257  16.490  0.00  0.00    +0.000 OA
ATOM     25  C   UNL     1       6.438   6.585  17.593  0.00  0.00    +0.000 C 
ATOM     26  C   UNL     1       5.736   5.398  18.284  0.00  0.00    +0.000 C 
ATOM     27  C   UNL     1       5.445   4.211  17.349  0.00  0.00    +0.000 C 
BRANCH  19  29
ATOM     28  O   UNL     1       5.581   3.048  12.096  0.00  0.00    +0.000 OA
ATOM     29  N   UNL     1       6.465   3.814  12.515  0.00  0.00    +0.000 N 
ATOM     30  O   UNL     1       7.434   4.216  11.854  0.00  0.00    +0.000 OA
ENDBRANCH  19  29
ENDBRANCH  18  26
ENDBRANCH  17  18
ENDBRANCH   1  17
TORSDOF 7
ENDMDL
MODEL 8
REMARK VINA RESULT:      -8.3      1.033      1.170
REMARK  Name = 
REMARK  7 active torsions:
REMARK  status: ('A' for Active; 'I' for Inactive)
REMARK    1  A    between atoms: N_2  and  C_4
REMARK    2  A    between atoms: C_11  and  O_12
REMARK    3  A    between atoms: O_12  and  C_13
REMARK    4  A    between atoms: C_13  and  C_14
REMARK    5  A    between atoms: C_17  and  C_18
REMARK    6  A    between atoms: C_21  and  O_22
REMARK    7  A    between atoms: O_22  and  C_23
REMARK                            x       y       z     vdW  Elec       q    Type
REMARK                         _______ _______ _______ _____ _____    ______ ____
ROOT
ATOM      1  C   UNL     1       2.079   7.291  19.532  0.00  0.00    +0.000 A 
ATOM      2  C   UNL     1       1.842   8.440  18.788  0.00  0.00    +0.000 A 
ATOM      3  C   UNL     1       1.066   9.456  19.345  0.00  0.00    +0.000 A 
ATOM      4  C   UNL     1       0.526   9.326  20.633  0.00  0.00    +0.000 A 
ATOM      5  C   UNL     1       0.853   8.146  21.303  0.00  0.00    +0.000 A 
ATOM      6  N   UNL     1       1.602   7.137  20.791  0.00  0.00    +0.000 NA
ENDROOT
BRANCH   4   7
ATOM      7  C   UNL     1      -0.357  10.353  21.218  0.00  0.00    +0.000 A 
ATOM      8  C   UNL     1      -0.983  11.313  20.404  0.00  0.00    +0.000 A 
ATOM      9  C   UNL     1      -1.815  12.294  20.944  0.00  0.00    +0.000 A 
ATOM     10  C   UNL     1      -2.074  12.329  22.312  0.00  0.00    +0.000 A 
ATOM     11  C   UNL     1      -1.460  11.394  23.144  0.00  0.00    +0.000 A 
ATOM     12  C   UNL     1      -0.614  10.417  22.599  0.00  0.00    +0.000 A 
BRANCH  10  13
ATOM     13  O   UNL     1      -2.902  13.335  22.714  0.00  0.00    +0.000 OA
BRANCH  13  14
ATOM     14  C   UNL     1      -4.274  13.001  22.812  0.00  0.00    +0.000 C 
ATOM     15  F   UNL     1      -4.520  12.504  24.050  0.00  0.00    +0.000 F 
ATOM     16  F   UNL     1      -4.980  14.155  22.711  0.00  0.00    +0.000 F 
ENDBRANCH  13  14
ENDBRANCH  10  13
ENDBRANCH   4   7
BRANCH   1  17
ATOM     17  C   UNL     1       2.822   6.125  18.927  0.00  0.00    +0.000 C 
BRANCH  17  18
ATOM     18  O   UNL     1       4.092   5.942  19.564  0.00  0.00    +0.000 OA
BRANCH  18  26
ATOM     19  C   UNL     1       6.885   4.903  14.890  0.00  0.00    +0.000 A 
ATOM     20  C   UNL     1       5.551   4.926  15.258  0.00  0.00    +0.000 A 
ATOM     21  N   UNL     1       5.583   4.848  16.619  0.00  0.00    +0.000 N 
ATOM     22  C   UNL     1       6.883   4.740  17.012  0.00  0.00    +0.000 A 
ATOM     23  N   UNL     1       7.708   4.779  15.994  0.00  0.00    +0.000 NA
ATOM     24  O   UNL     1       7.239   4.499  18.263  0.00  0.00    +0.000 OA
ATOM     25  C   UNL     1       6.373   5.071  19.238  0.00  0.00    +0.000 C 
ATOM     26  C   UNL     1       4.863   4.859  19.006  0.00  0.00    +0.000 C 
ATOM     27  C   UNL     1       4.468   4.727  17.525  0.00  0.00    +0.000 C 
BRANCH  19  29
ATOM     28  O   UNL     1       8.364   5.712  13.343  0.00  0.00    +0.000 OA
ATOM     29  N   UNL     1       7.422   4.929  13.550  0.00  0.00    +0.000 N 
ATOM     30  O   UNL     1       6.911   4.183  12.701  0.00  0.00    +0.000 OA
ENDBRANCH  19  29
ENDBRANCH  18  26
ENDBRANCH  17  18
ENDBRANCH   1  17
TORSDOF 7
ENDMDL
MODEL 9
REMARK VINA RESULT:      -8.3      1.374      1.677
REMARK  Name = 
REMARK  7 active torsions:
REMARK  status: ('A' for Active; 'I' for Inactive)
REMARK    1  A    between atoms: N_2  and  C_4
REMARK    2  A    between atoms: C_11  and  O_12
REMARK    3  A    between atoms: O_12  and  C_13
REMARK    4  A    between atoms: C_13  and  C_14
REMARK    5  A    between atoms: C_17  and  C_18
REMARK    6  A    between atoms: C_21  and  O_22
REMARK    7  A    between atoms: O_22  and  C_23
REMARK                            x       y       z     vdW  Elec       q    Type
REMARK                         _______ _______ _______ _____ _____    ______ ____
ROOT
ATOM      1  C   UNL     1       2.311   7.335  19.280  0.00  0.00    +0.000 A 
ATOM      2  C   UNL     1       1.897   7.202  20.600  0.00  0.00    +0.000 A 
ATOM      3  C   UNL     1       1.114   8.209  21.165  0.00  0.00    +0.000 A 
ATOM      4  C   UNL     1       0.752   9.342  20.421  0.00  0.00    +0.000 A 
ATOM      5  C   UNL     1       1.195   9.357  19.098  0.00  0.00    +0.000 A 
ATOM      6  N   UNL     1       1.959   8.397  18.518  0.00  0.00    +0.000 NA
ENDROOT
BRANCH   4   7
ATOM      7  C   UNL     1      -0.013  10.455  21.016  0.00  0.00    +0.000 A 
ATOM      8  C   UNL     1      -0.430  11.542  20.230  0.00  0.00    +0.000 A 
ATOM      9  C   UNL     1      -1.148  12.605  20.780  0.00  0.00    +0.000 A 
ATOM     10  C   UNL     1      -1.499  12.600  22.128  0.00  0.00    +0.000 A 
ATOM     11  C   UNL     1      -1.090  11.538  22.933  0.00  0.00    +0.000 A 
ATOM     12  C   UNL     1      -0.358  10.478  22.379  0.00  0.00    +0.000 A 
BRANCH  10  13
ATOM     13  O   UNL     1      -2.199  13.695  22.544  0.00  0.00    +0.000 OA
BRANCH  13  14
ATOM     14  C   UNL     1      -1.465  14.644  23.297  0.00  0.00    +0.000 C 
ATOM     15  F   UNL     1      -1.507  14.295  24.607  0.00  0.00    +0.000 F 
ATOM     16  F   UNL     1      -0.168  14.550  22.912  0.00  0.00    +0.000 F 
ENDBRANCH  13  14
ENDBRANCH  10  13
ENDBRANCH   4   7
BRANCH   1  17
ATOM     17  C   UNL     1       3.246   6.322  18.665  0.00  0.00    +0.000 C 
BRANCH  17  18
ATOM     18  O   UNL     1       3.897   5.546  19.677  0.00  0.00    +0.000 OA
BRANCH  18  26
ATOM     19  C   UNL     1       6.756   4.777  14.990  0.00  0.00    +0.000 A 
ATOM     20  C   UNL     1       5.443   4.591  15.388  0.00  0.00    +0.000 A 
ATOM     21  N   UNL     1       5.509   4.582  16.750  0.00  0.00    +0.000 N 
ATOM     22  C   UNL     1       6.814   4.715  17.117  0.00  0.00    +0.000 A 
ATOM     23  N   UNL     1       7.604   4.845  16.080  0.00  0.00    +0.000 NA
ATOM     24  O   UNL     1       7.224   4.597  18.370  0.00  0.00    +0.000 OA
ATOM     25  C   UNL     1       6.288   5.059  19.338  0.00  0.00    +0.000 C 
ATOM     26  C   UNL     1       4.832   4.584  19.150  0.00  0.00    +0.000 C 
ATOM     27  C   UNL     1       4.444   4.318  17.685  0.00  0.00    +0.000 C 
BRANCH  19  29
ATOM     28  O   UNL     1       8.136   5.681  13.405  0.00  0.00    +0.000 OA
ATOM     29  N   UNL     1       7.260   4.831  13.639  0.00  0.00    +0.000 N 
ATOM     30  O   UNL     1       6.790   4.040  12.808  0.00  0.00    +0.000 OA
ENDBRANCH  19  29
ENDBRANCH  18  26
ENDBRANCH  17  18
ENDBRANCH   1  17
TORSDOF 7
ENDMDL
