MODEL 1
REMARK VINA RESULT:      -8.7      0.000      0.000
REMARK  Name = 
REMARK  8 active torsions:
REMARK  status: ('A' for Active; 'I' for Inactive)
REMARK    1  A    between atoms: C_2  and  C_4
REMARK    2  A    between atoms: C_7  and  S_8
REMARK    3  A    between atoms: S_8  and  N_11
REMARK    4  A    between atoms: N_11  and  C_12
REMARK    5  A    between atoms: C_12  and  C_13
REMARK    6  A    between atoms: N_15  and  C_16
REMARK    7  A    between atoms: C_20  and  C_21
REMARK    8  A    between atoms: C_21  and  O_23
REMARK                            x       y       z     vdW  Elec       q    Type
REMARK                         _______ _______ _______ _____ _____    ______ ____
ROOT
ATOM      1  N   UNL     1       5.472   3.502  18.842  0.00  0.00    +0.000 NA
ATOM      2  H   UNL     1       6.007   2.662  18.614  0.00  0.00    +0.000 HD
ENDROOT
BRANCH   1   3
ATOM      3  S   UNL     1       3.856   3.326  18.363  0.00  0.00    +0.000 S 
ATOM      4  O   UNL     1       3.317   2.194  19.085  0.00  0.00    +0.000 OA
ATOM      5  O   UNL     1       3.845   3.402  16.923  0.00  0.00    +0.000 OA
BRANCH   3   9
ATOM      6  C   UNL     1       1.979   7.148  20.034  0.00  0.00    +0.000 A 
ATOM      7  C   UNL     1       1.914   5.952  20.758  0.00  0.00    +0.000 A 
ATOM      8  C   UNL     1       2.464   4.780  20.232  0.00  0.00    +0.000 A 
ATOM      9  C   UNL     1       3.080   4.807  18.975  0.00  0.00    +0.000 A 
ATOM     10  C   UNL     1       3.148   6.001  18.243  0.00  0.00    +0.000 A 
ATOM     11  C   UNL     1       2.594   7.170  18.776  0.00  0.00    +0.000 A 
BRANCH   6  13
ATOM     12  N   UNL     1       1.582   8.606  21.902  0.00  0.00    +0.000 NA
ATOM     13  C   UNL     1       1.426   8.397  20.637  0.00  0.00    +0.000 C 
ATOM     14  N   UNL     1       0.755   9.301  19.867  0.00  0.00    +0.000 N 
ATOM     15  H   UNL     1       1.194   9.517  22.157  0.00  0.00    +0.000 HD
ATOM     16  H   UNL     1       0.153   9.941  20.372  0.00  0.00    +0.000 HD
ATOM     17  H   UNL     1       0.289   8.924  19.048  0.00  0.00    +0.000 HD
ENDBRANCH   6  13
ENDBRANCH   3   9
ENDBRANCH   1   3
BRANCH   1  18
ATOM     18  C   UNL     1       6.119   4.763  18.438  0.00  0.00    +0.000 C 
BRANCH  18  19
ATOM     19  C   UNL     1       6.847   4.580  17.117  0.00  0.00    +0.000 C 
ATOM     20  O   UNL     1       8.017   4.205  17.111  0.00  0.00    +0.000 OA
ATOM     21  N   UNL     1       6.079   4.882  15.998  0.00  0.00    +0.000 N 
ATOM     22  H   UNL     1       5.217   5.388  16.179  0.00  0.00    +0.000 HD
BRANCH  21  23
ATOM     23  C   UNL     1       6.463   4.678  14.649  0.00  0.00    +0.000 A 
ATOM     24  C   UNL     1       7.516   5.385  14.057  0.00  0.00    +0.000 A 
ATOM     25  C   UNL     1       7.865   5.181  12.722  0.00  0.00    +0.000 A 
ATOM     26  C   UNL     1       7.165   4.258  11.956  0.00  0.00    +0.000 A 
ATOM     27  C   UNL     1       6.122   3.523  12.529  0.00  0.00    +0.000 A 
ATOM     28  C   UNL     1       5.773   3.728  13.880  0.00  0.00    +0.000 A 
BRANCH  27  29
ATOM     29  C   UNL     1       5.380   2.599  11.631  0.00  0.00    +0.000 C 
ATOM     30  O   UNL     1       5.829   1.523  11.276  0.00  0.00    +0.000 OA
BRANCH  29  31
ATOM     31  O   UNL     1       4.156   3.035  11.272  0.00  0.00    +0.000 OA
ATOM     32  H   UNL     1       4.115   3.961  10.976  0.00  0.00    +0.000 HD
ENDBRANCH  29  31
ENDBRANCH  27  29
ENDBRANCH  21  23
ENDBRANCH  18  19
ENDBRANCH   1  18
TORSDOF 8
ENDMDL
MODEL 2
REMARK VINA RESULT:      -8.3      3.696      7.534
REMARK  Name = 
REMARK  8 active torsions:
REMARK  status: ('A' for Active; 'I' for Inactive)
REMARK    1  A    between atoms: C_2  and  C_4
REMARK    2  A    between atoms: C_7  and  S_8
REMARK    3  A    between atoms: S_8  and  N_11
REMARK    4  A    between atoms: N_11  and  C_12
REMARK    5  A    between atoms: C_12  and  C_13
REMARK    6  A    between atoms: N_15  and  C_16
REMARK    7  A    between atoms: C_20  and  C_21
REMARK    8  A    between atoms: C_21  and  O_23
REMARK                            x       y       z     vdW  Elec       q    Type
REMARK                         _______ _______ _______ _____ _____    ______ ____
ROOT
ATOM      1  N   UNL     1       2.521   2.420  20.377  0.00  0.00    +0.000 NA
ATOM      2  H   UNL     1       2.060   1.609  20.794  0.00  0.00    +0.000 HD
ENDROOT
BRANCH   1   3
ATOM      3  S   UNL     1       4.010   1.974  19.701  0.00  0.00    +0.000 S 
ATOM      4  O   UNL     1       3.755   0.880  18.789  0.00  0.00    +0.000 OA
ATOM      5  O   UNL     1       4.941   1.867  20.798  0.00  0.00    +0.000 OA
BRANCH   3   9
ATOM      6  C   UNL     1       5.342   5.578  17.219  0.00  0.00    +0.000 A 
ATOM      7  C   UNL     1       5.937   5.312  18.459  0.00  0.00    +0.000 A 
ATOM      8  C   UNL     1       5.509   4.226  19.227  0.00  0.00    +0.000 A 
ATOM      9  C   UNL     1       4.478   3.405  18.751  0.00  0.00    +0.000 A 
ATOM     10  C   UNL     1       3.876   3.666  17.513  0.00  0.00    +0.000 A 
ATOM     11  C   UNL     1       4.310   4.756  16.749  0.00  0.00    +0.000 A 
BRANCH   6  13
ATOM     12  N   UNL     1       5.253   7.003  15.286  0.00  0.00    +0.000 NA
ATOM     13  C   UNL     1       5.849   6.716  16.396  0.00  0.00    +0.000 C 
ATOM     14  N   UNL     1       6.934   7.437  16.802  0.00  0.00    +0.000 N 
ATOM     15  H   UNL     1       5.682   7.828  14.862  0.00  0.00    +0.000 HD
ATOM     16  H   UNL     1       7.402   7.964  16.075  0.00  0.00    +0.000 HD
ATOM     17  H   UNL     1       7.598   6.942  17.387  0.00  0.00    +0.000 HD
ENDBRANCH   6  13
ENDBRANCH   3   9
ENDBRANCH   1   3
BRANCH   1  18
ATOM     18  C   UNL     1       2.549   3.614  21.241  0.00  0.00    +0.000 C 
BRANCH  18  19
ATOM     19  C   UNL     1       1.818   4.765  20.570  0.00  0.00    +0.000 C 
ATOM     20  O   UNL     1       0.616   4.669  20.333  0.00  0.00    +0.000 OA
ATOM     21  N   UNL     1       2.628   5.855  20.270  0.00  0.00    +0.000 N 
ATOM     22  H   UNL     1       3.628   5.689  20.323  0.00  0.00    +0.000 HD
BRANCH  21  23
ATOM     23  C   UNL     1       2.183   7.102  19.765  0.00  0.00    +0.000 A 
ATOM     24  C   UNL     1       2.410   7.496  18.440  0.00  0.00    +0.000 A 
ATOM     25  C   UNL     1       1.979   8.736  17.970  0.00  0.00    +0.000 A 
ATOM     26  C   UNL     1       1.309   9.605  18.821  0.00  0.00    +0.000 A 
ATOM     27  C   UNL     1       1.051   9.229  20.143  0.00  0.00    +0.000 A 
ATOM     28  C   UNL     1       1.483   7.972  20.616  0.00  0.00    +0.000 A 
BRANCH  27  29
ATOM     29  C   UNL     1       0.383  10.236  21.009  0.00  0.00    +0.000 C 
ATOM     30  O   UNL     1      -0.604  10.857  20.657  0.00  0.00    +0.000 OA
BRANCH  29  31
ATOM     31  O   UNL     1       0.939  10.376  22.229  0.00  0.00    +0.000 OA
ATOM     32  H   UNL     1       1.520   9.647  22.508  0.00  0.00    +0.000 HD
ENDBRANCH  29  31
ENDBRANCH  27  29
ENDBRANCH  21  23
ENDBRANCH  18  19
ENDBRANCH   1  18
TORSDOF 8
ENDMDL
MODEL 3
REMARK VINA RESULT:      -8.2      0.555      1.090
REMARK  Name = 
REMARK  8 active torsions:
REMARK  status: ('A' for Active; 'I' for Inactive)
REMARK    1  A    between atoms: C_2  and  C_4
REMARK    2  A    between atoms: C_7  and  S_8
REMARK    3  A    between atoms: S_8  and  N_11
REMARK    4  A    between atoms: N_11  and  C_12
REMARK    5  A    between atoms: C_12  and  C_13
REMARK    6  A    between atoms: N_15  and  C_16
REMARK    7  A    between atoms: C_20  and  C_21
REMARK    8  A    between atoms: C_21  and  O_23
REMARK                            x       y       z     vdW  Elec       q    Type
REMARK                         _______ _______ _______ _____ _____    ______ ____
ROOT
ATOM      1  N   UNL     1       5.594   3.707  18.818  0.00  0.00    +0.000 NA
ATOM      2  H   UNL     1       6.107   2.845  18.624  0.00  0.00    +0.000 HD
ENDROOT
BRANCH   1   3
ATOM      3  S   UNL     1       3.964   3.538  18.385  0.00  0.00    +0.000 S 
ATOM      4  O   UNL     1       3.514   2.265  18.903  0.00  0.00    +0.000 OA
ATOM      5  O   UNL     1       3.875   3.881  16.987  0.00  0.00    +0.000 OA
BRANCH   3   9
ATOM      6  C   UNL     1       1.785   6.884  20.617  0.00  0.00    +0.000 A 
ATOM      7  C   UNL     1       2.572   7.175  19.496  0.00  0.00    +0.000 A 
ATOM      8  C   UNL     1       3.258   6.155  18.833  0.00  0.00    +0.000 A 
ATOM      9  C   UNL     1       3.157   4.837  19.298  0.00  0.00    +0.000 A 
ATOM     10  C   UNL     1       2.373   4.537  20.420  0.00  0.00    +0.000 A 
ATOM     11  C   UNL     1       1.689   5.565  21.079  0.00  0.00    +0.000 A 
BRANCH   6  13
ATOM     12  N   UNL     1       1.671   8.889  21.936  0.00  0.00    +0.000 NA
ATOM     13  C   UNL     1       1.024   7.984  21.280  0.00  0.00    +0.000 C 
ATOM     14  N   UNL     1      -0.338   8.028  21.206  0.00  0.00    +0.000 N 
ATOM     15  H   UNL     1       1.023   9.595  22.291  0.00  0.00    +0.000 HD
ATOM     16  H   UNL     1      -0.794   8.592  21.914  0.00  0.00    +0.000 HD
ATOM     17  H   UNL     1      -0.802   7.134  21.089  0.00  0.00    +0.000 HD
ENDBRANCH   6  13
ENDBRANCH   3   9
ENDBRANCH   1   3
BRANCH   1  18
ATOM     18  C   UNL     1       6.255   4.932  18.331  0.00  0.00    +0.000 C 
BRANCH  18  19
ATOM     19  C   UNL     1       6.946   4.664  17.005  0.00  0.00    +0.000 C 
ATOM     20  O   UNL     1       8.075   4.178  16.991  0.00  0.00    +0.000 OA
ATOM     21  N   UNL     1       6.197   5.024  15.890  0.00  0.00    +0.000 N 
ATOM     22  H   UNL     1       5.390   5.613  16.074  0.00  0.00    +0.000 HD
BRANCH  21  23
ATOM     23  C   UNL     1       6.544   4.768  14.540  0.00  0.00    +0.000 A 
ATOM     24  C   UNL     1       7.571   5.459  13.888  0.00  0.00    +0.000 A 
ATOM     25  C   UNL     1       7.883   5.203  12.553  0.00  0.00    +0.000 A 
ATOM     26  C   UNL     1       7.170   4.242  11.847  0.00  0.00    +0.000 A 
ATOM     27  C   UNL     1       6.152   3.522  12.481  0.00  0.00    +0.000 A 
ATOM     28  C   UNL     1       5.841   3.780  13.832  0.00  0.00    +0.000 A 
BRANCH  27  29
ATOM     29  C   UNL     1       5.394   2.555  11.644  0.00  0.00    +0.000 C 
ATOM     30  O   UNL     1       5.842   1.468  11.323  0.00  0.00    +0.000 OA
BRANCH  29  31
ATOM     31  O   UNL     1       4.156   2.967  11.301  0.00  0.00    +0.000 OA
ATOM     32  H   UNL     1       3.479   2.269  11.270  0.00  0.00    +0.000 HD
ENDBRANCH  29  31
ENDBRANCH  27  29
ENDBRANCH  21  23
ENDBRANCH  18  19
ENDBRANCH   1  18
TORSDOF 8
ENDMDL
MODEL 4
REMARK VINA RESULT:      -8.2      2.658      3.384
REMARK  Name = 
REMARK  8 active torsions:
REMARK  status: ('A' for Active; 'I' for Inactive)
REMARK    1  A    between atoms: C_2  and  C_4
REMARK    2  A    between atoms: C_7  and  S_8
REMARK    3  A    between atoms: S_8  and  N_11
REMARK    4  A    between atoms: N_11  and  C_12
REMARK    5  A    between atoms: C_12  and  C_13
REMARK    6  A    between atoms: N_15  and  C_16
REMARK    7  A    between atoms: C_20  and  C_21
REMARK    8  A    between atoms: C_21  and  O_23
REMARK                            x       y       z     vdW  Elec       q    Type
REMARK                         _______ _______ _______ _____ _____    ______ ____
ROOT
ATOM      1  N   UNL     1       6.860   6.582  17.950  0.00  0.00    +0.000 NA
ATOM      2  H   UNL     1       7.646   6.652  17.301  0.00  0.00    +0.000 HD
ENDROOT
BRANCH   1   3
ATOM      3  S   UNL     1       6.957   5.149  18.849  0.00  0.00    +0.000 S 
ATOM      4  O   UNL     1       7.383   5.508  20.184  0.00  0.00    +0.000 OA
ATOM      5  O   UNL     1       7.679   4.203  18.034  0.00  0.00    +0.000 OA
BRANCH   3   9
ATOM      6  C   UNL     1       2.660   3.609  19.140  0.00  0.00    +0.000 A 
ATOM      7  C   UNL     1       3.603   2.934  18.355  0.00  0.00    +0.000 A 
ATOM      8  C   UNL     1       4.907   3.422  18.247  0.00  0.00    +0.000 A 
ATOM      9  C   UNL     1       5.267   4.593  18.926  0.00  0.00    +0.000 A 
ATOM     10  C   UNL     1       4.328   5.276  19.712  0.00  0.00    +0.000 A 
ATOM     11  C   UNL     1       3.023   4.780  19.815  0.00  0.00    +0.000 A 
BRANCH   6  13
ATOM     12  N   UNL     1       0.785   2.362  18.300  0.00  0.00    +0.000 NA
ATOM     13  C   UNL     1       1.285   3.041  19.279  0.00  0.00    +0.000 C 
ATOM     14  N   UNL     1       0.561   3.245  20.417  0.00  0.00    +0.000 N 
ATOM     15  H   UNL     1      -0.136   2.002  18.560  0.00  0.00    +0.000 HD
ATOM     16  H   UNL     1      -0.439   3.115  20.326  0.00  0.00    +0.000 HD
ATOM     17  H   UNL     1       0.779   4.093  20.932  0.00  0.00    +0.000 HD
ENDBRANCH   6  13
ENDBRANCH   3   9
ENDBRANCH   1   3
BRANCH   1  18
ATOM     18  C   UNL     1       5.545   6.864  17.347  0.00  0.00    +0.000 C 
BRANCH  18  19
ATOM     19  C   UNL     1       5.554   6.499  15.873  0.00  0.00    +0.000 C 
ATOM     20  O   UNL     1       4.851   7.125  15.084  0.00  0.00    +0.000 OA
ATOM     21  N   UNL     1       6.390   5.433  15.557  0.00  0.00    +0.000 N 
ATOM     22  H   UNL     1       6.723   4.886  16.344  0.00  0.00    +0.000 HD
BRANCH  21  23
ATOM     23  C   UNL     1       6.684   4.971  14.250  0.00  0.00    +0.000 A 
ATOM     24  C   UNL     1       7.738   5.494  13.492  0.00  0.00    +0.000 A 
ATOM     25  C   UNL     1       7.999   5.037  12.200  0.00  0.00    +0.000 A 
ATOM     26  C   UNL     1       7.206   4.040  11.645  0.00  0.00    +0.000 A 
ATOM     27  C   UNL     1       6.159   3.485  12.389  0.00  0.00    +0.000 A 
ATOM     28  C   UNL     1       5.900   3.946  13.696  0.00  0.00    +0.000 A 
BRANCH  27  29
ATOM     29  C   UNL     1       5.317   2.467  11.706  0.00  0.00    +0.000 C 
ATOM     30  O   UNL     1       4.229   2.727  11.224  0.00  0.00    +0.000 OA
BRANCH  29  31
ATOM     31  O   UNL     1       5.875   1.241  11.636  0.00  0.00    +0.000 OA
ATOM     32  H   UNL     1       5.762   0.781  10.786  0.00  0.00    +0.000 HD
ENDBRANCH  29  31
ENDBRANCH  27  29
ENDBRANCH  21  23
ENDBRANCH  18  19
ENDBRANCH   1  18
TORSDOF 8
ENDMDL
MODEL 5
REMARK VINA RESULT:      -8.1      3.779      7.443
REMARK  Name = 
REMARK  8 active torsions:
REMARK  status: ('A' for Active; 'I' for Inactive)
REMARK    1  A    between atoms: C_2  and  C_4
REMARK    2  A    between atoms: C_7  and  S_8
REMARK    3  A    between atoms: S_8  and  N_11
REMARK    4  A    between atoms: N_11  and  C_12
REMARK    5  A    between atoms: C_12  and  C_13
REMARK    6  A    between atoms: N_15  and  C_16
REMARK    7  A    between atoms: C_20  and  C_21
REMARK    8  A    between atoms: C_21  and  O_23
REMARK                            x       y       z     vdW  Elec       q    Type
REMARK                         _______ _______ _______ _____ _____    ______ ____
ROOT
ATOM      1  N   UNL     1       2.499   2.492  20.323  0.00  0.00    +0.000 NA
ATOM      2  H   UNL     1       1.944   1.695  20.640  0.00  0.00    +0.000 HD
ENDROOT
BRANCH   1   3
ATOM      3  S   UNL     1       4.043   1.986  19.840  0.00  0.00    +0.000 S 
ATOM      4  O   UNL     1       3.867   0.835  18.981  0.00  0.00    +0.000 OA
ATOM      5  O   UNL     1       4.852   1.946  21.033  0.00  0.00    +0.000 OA
BRANCH   3   9
ATOM      6  C   UNL     1       5.429   5.556  17.338  0.00  0.00    +0.000 A 
ATOM      7  C   UNL     1       4.403   4.722  16.876  0.00  0.00    +0.000 A 
ATOM      8  C   UNL     1       4.001   3.617  17.630  0.00  0.00    +0.000 A 
ATOM      9  C   UNL     1       4.632   3.345  18.851  0.00  0.00    +0.000 A 
ATOM     10  C   UNL     1       5.660   4.174  19.319  0.00  0.00    +0.000 A 
ATOM     11  C   UNL     1       6.058   5.279  18.558  0.00  0.00    +0.000 A 
BRANCH   6  13
ATOM     12  N   UNL     1       5.121   7.055  15.486  0.00  0.00    +0.000 NA
ATOM     13  C   UNL     1       5.809   6.758  16.538  0.00  0.00    +0.000 C 
ATOM     14  N   UNL     1       6.875   7.527  16.903  0.00  0.00    +0.000 N 
ATOM     15  H   UNL     1       5.469   7.923  15.073  0.00  0.00    +0.000 HD
ATOM     16  H   UNL     1       7.260   8.114  16.172  0.00  0.00    +0.000 HD
ATOM     17  H   UNL     1       7.608   7.049  17.418  0.00  0.00    +0.000 HD
ENDBRANCH   6  13
ENDBRANCH   3   9
ENDBRANCH   1   3
BRANCH   1  18
ATOM     18  C   UNL     1       2.467   3.654  21.229  0.00  0.00    +0.000 C 
BRANCH  18  19
ATOM     19  C   UNL     1       1.766   4.823  20.560  0.00  0.00    +0.000 C 
ATOM     20  O   UNL     1       0.545   4.805  20.421  0.00  0.00    +0.000 OA
ATOM     21  N   UNL     1       2.621   5.838  20.145  0.00  0.00    +0.000 N 
ATOM     22  H   UNL     1       3.609   5.602  20.129  0.00  0.00    +0.000 HD
BRANCH  21  23
ATOM     23  C   UNL     1       2.225   7.090  19.612  0.00  0.00    +0.000 A 
ATOM     24  C   UNL     1       2.460   7.444  18.279  0.00  0.00    +0.000 A 
ATOM     25  C   UNL     1       2.077   8.690  17.782  0.00  0.00    +0.000 A 
ATOM     26  C   UNL     1       1.446   9.604  18.616  0.00  0.00    +0.000 A 
ATOM     27  C   UNL     1       1.181   9.268  19.947  0.00  0.00    +0.000 A 
ATOM     28  C   UNL     1       1.565   8.006  20.447  0.00  0.00    +0.000 A 
BRANCH  27  29
ATOM     29  C   UNL     1       0.558  10.320  20.793  0.00  0.00    +0.000 C 
ATOM     30  O   UNL     1       1.056  10.709  21.835  0.00  0.00    +0.000 OA
BRANCH  29  31
ATOM     31  O   UNL     1      -0.585  10.832  20.293  0.00  0.00    +0.000 OA
ATOM     32  H   UNL     1      -0.754  11.765  20.512  0.00  0.00    +0.000 HD
ENDBRANCH  29  31
ENDBRANCH  27  29
ENDBRANCH  21  23
ENDBRANCH  18  19
ENDBRANCH   1  18
TORSDOF 8
ENDMDL
MODEL 6
REMARK VINA RESULT:      -8.0      1.001      1.739
REMARK  Name = 
REMARK  8 active torsions:
REMARK  status: ('A' for Active; 'I' for Inactive)
REMARK    1  A    between atoms: C_2  and  C_4
REMARK    2  A    between atoms: C_7  and  S_8
REMARK    3  A    between atoms: S_8  and  N_11
REMARK    4  A    between atoms: N_11  and  C_12
REMARK    5  A    between atoms: C_12  and  C_13
REMARK    6  A    between atoms: N_15  and  C_16
REMARK    7  A    between atoms: C_20  and  C_21
REMARK    8  A    between atoms: C_21  and  O_23
REMARK                            x       y       z     vdW  Elec       q    Type
REMARK                         _______ _______ _______ _____ _____    ______ ____
ROOT
ATOM      1  N   UNL     1       5.764   4.617  19.048  0.00  0.00    +0.000 NA
ATOM      2  H   UNL     1       6.306   3.754  19.119  0.00  0.00    +0.000 HD
ENDROOT
BRANCH   1   3
ATOM      3  S   UNL     1       4.174   4.283  18.564  0.00  0.00    +0.000 S 
ATOM      4  O   UNL     1       3.605   3.391  19.552  0.00  0.00    +0.000 OA
ATOM      5  O   UNL     1       4.235   3.948  17.163  0.00  0.00    +0.000 OA
BRANCH   3   9
ATOM      6  C   UNL     1       1.981   8.290  18.796  0.00  0.00    +0.000 A 
ATOM      7  C   UNL     1       2.770   7.977  17.681  0.00  0.00    +0.000 A 
ATOM      8  C   UNL     1       3.460   6.764  17.626  0.00  0.00    +0.000 A 
ATOM      9  C   UNL     1       3.362   5.862  18.694  0.00  0.00    +0.000 A 
ATOM     10  C   UNL     1       2.576   6.169  19.813  0.00  0.00    +0.000 A 
ATOM     11  C   UNL     1       1.888   7.387  19.861  0.00  0.00    +0.000 A 
BRANCH   6  13
ATOM     12  N   UNL     1       0.397   9.826  17.843  0.00  0.00    +0.000 NA
ATOM     13  C   UNL     1       1.216   9.572  18.810  0.00  0.00    +0.000 C 
ATOM     14  N   UNL     1       1.385  10.471  19.823  0.00  0.00    +0.000 N 
ATOM     15  H   UNL     1      -0.084  10.711  18.016  0.00  0.00    +0.000 HD
ATOM     16  H   UNL     1       1.092  11.418  19.617  0.00  0.00    +0.000 HD
ATOM     17  H   UNL     1       2.291  10.454  20.280  0.00  0.00    +0.000 HD
ENDBRANCH   6  13
ENDBRANCH   3   9
ENDBRANCH   1   3
BRANCH   1  18
ATOM     18  C   UNL     1       6.437   5.699  18.307  0.00  0.00    +0.000 C 
BRANCH  18  19
ATOM     19  C   UNL     1       7.058   5.155  17.032  0.00  0.00    +0.000 C 
ATOM     20  O   UNL     1       8.050   4.433  17.096  0.00  0.00    +0.000 OA
ATOM     21  N   UNL     1       6.414   5.560  15.868  0.00  0.00    +0.000 N 
ATOM     22  H   UNL     1       5.759   6.328  15.972  0.00  0.00    +0.000 HD
BRANCH  21  23
ATOM     23  C   UNL     1       6.703   5.101  14.559  0.00  0.00    +0.000 A 
ATOM     24  C   UNL     1       7.817   5.548  13.838  0.00  0.00    +0.000 A 
ATOM     25  C   UNL     1       8.071   5.096  12.543  0.00  0.00    +0.000 A 
ATOM     26  C   UNL     1       7.212   4.182  11.948  0.00  0.00    +0.000 A 
ATOM     27  C   UNL     1       6.103   3.703  12.653  0.00  0.00    +0.000 A 
ATOM     28  C   UNL     1       5.850   4.158  13.964  0.00  0.00    +0.000 A 
BRANCH  27  29
ATOM     29  C   UNL     1       5.197   2.773  11.928  0.00  0.00    +0.000 C 
ATOM     30  O   UNL     1       4.079   3.093  11.564  0.00  0.00    +0.000 OA
BRANCH  29  31
ATOM     31  O   UNL     1       5.729   1.560  11.678  0.00  0.00    +0.000 OA
ATOM     32  H   UNL     1       5.832   0.982  12.454  0.00  0.00    +0.000 HD
ENDBRANCH  29  31
ENDBRANCH  27  29
ENDBRANCH  21  23
ENDBRANCH  18  19
ENDBRANCH   1  18
TORSDOF 8
ENDMDL
MODEL 7
REMARK VINA RESULT:      -7.9      3.728      8.207
REMARK  Name = 
REMARK  8 active torsions:
REMARK  status: ('A' for Active; 'I' for Inactive)
REMARK    1  A    between atoms: C_2  and  C_4
REMARK    2  A    between atoms: C_7  and  S_8
REMARK    3  A    between atoms: S_8  and  N_11
REMARK    4  A    between atoms: N_11  and  C_12
REMARK    5  A    between atoms: C_12  and  C_13
REMARK    6  A    between atoms: N_15  and  C_16
REMARK    7  A    between atoms: C_20  and  C_21
REMARK    8  A    between atoms: C_21  and  O_23
REMARK                            x       y       z     vdW  Elec       q    Type
REMARK                         _______ _______ _______ _____ _____    ______ ____
ROOT
ATOM      1  N   UNL     1       2.366   2.982  19.741  0.00  0.00    +0.000 NA
ATOM      2  H   UNL     1       2.571   2.068  20.151  0.00  0.00    +0.000 HD
ENDROOT
BRANCH   1   3
ATOM      3  S   UNL     1       2.849   3.026  18.117  0.00  0.00    +0.000 S 
ATOM      4  O   UNL     1       1.733   3.541  17.353  0.00  0.00    +0.000 OA
ATOM      5  O   UNL     1       3.456   1.748  17.836  0.00  0.00    +0.000 OA
BRANCH   3   9
ATOM      6  C   UNL     1       6.278   6.051  18.001  0.00  0.00    +0.000 A 
ATOM      7  C   UNL     1       6.362   4.915  18.816  0.00  0.00    +0.000 A 
ATOM      8  C   UNL     1       5.302   4.007  18.869  0.00  0.00    +0.000 A 
ATOM      9  C   UNL     1       4.151   4.241  18.106  0.00  0.00    +0.000 A 
ATOM     10  C   UNL     1       4.058   5.376  17.289  0.00  0.00    +0.000 A 
ATOM     11  C   UNL     1       5.124   6.281  17.241  0.00  0.00    +0.000 A 
BRANCH   6  13
ATOM     12  N   UNL     1       7.562   7.756  16.896  0.00  0.00    +0.000 NA
ATOM     13  C   UNL     1       7.443   6.982  17.924  0.00  0.00    +0.000 C 
ATOM     14  N   UNL     1       8.377   7.007  18.918  0.00  0.00    +0.000 N 
ATOM     15  H   UNL     1       8.377   8.363  17.009  0.00  0.00    +0.000 HD
ATOM     16  H   UNL     1       9.272   7.410  18.664  0.00  0.00    +0.000 HD
ATOM     17  H   UNL     1       8.494   6.143  19.436  0.00  0.00    +0.000 HD
ENDBRANCH   6  13
ENDBRANCH   3   9
ENDBRANCH   1   3
BRANCH   1  18
ATOM     18  C   UNL     1       2.799   4.127  20.562  0.00  0.00    +0.000 C 
BRANCH  18  19
ATOM     19  C   UNL     1       1.813   5.275  20.423  0.00  0.00    +0.000 C 
ATOM     20  O   UNL     1       0.606   5.047  20.421  0.00  0.00    +0.000 OA
ATOM     21  N   UNL     1       2.410   6.524  20.295  0.00  0.00    +0.000 N 
ATOM     22  H   UNL     1       3.405   6.518  20.090  0.00  0.00    +0.000 HD
BRANCH  21  23
ATOM     23  C   UNL     1       1.732   7.769  20.279  0.00  0.00    +0.000 A 
ATOM     24  C   UNL     1       1.654   8.563  19.129  0.00  0.00    +0.000 A 
ATOM     25  C   UNL     1       0.997   9.793  19.142  0.00  0.00    +0.000 A 
ATOM     26  C   UNL     1       0.401  10.248  20.311  0.00  0.00    +0.000 A 
ATOM     27  C   UNL     1       0.447   9.465  21.469  0.00  0.00    +0.000 A 
ATOM     28  C   UNL     1       1.108   8.219  21.453  0.00  0.00    +0.000 A 
BRANCH  27  29
ATOM     29  C   UNL     1      -0.160  10.046  22.696  0.00  0.00    +0.000 C 
ATOM     30  O   UNL     1      -1.115  10.801  22.665  0.00  0.00    +0.000 OA
BRANCH  29  31
ATOM     31  O   UNL     1       0.414   9.639  23.847  0.00  0.00    +0.000 OA
ATOM     32  H   UNL     1       1.381   9.543  23.817  0.00  0.00    +0.000 HD
ENDBRANCH  29  31
ENDBRANCH  27  29
ENDBRANCH  21  23
ENDBRANCH  18  19
ENDBRANCH   1  18
TORSDOF 8
ENDMDL
MODEL 8
REMARK VINA RESULT:      -7.8      5.692      8.048
REMARK  Name = 
REMARK  8 active torsions:
REMARK  status: ('A' for Active; 'I' for Inactive)
REMARK    1  A    between atoms: C_2  and  C_4
REMARK    2  A    between atoms: C_7  and  S_8
REMARK    3  A    between atoms: S_8  and  N_11
REMARK    4  A    between atoms: N_11  and  C_12
REMARK    5  A    between atoms: C_12  and  C_13
REMARK    6  A    between atoms: N_15  and  C_16
REMARK    7  A    between atoms: C_20  and  C_21
REMARK    8  A    between atoms: C_21  and  O_23
REMARK                            x       y       z     vdW  Elec       q    Type
REMARK                         _______ _______ _______ _____ _____    ______ ____
ROOT
ATOM      1  N   UNL     1       7.268   6.441  16.856  0.00  0.00    +0.000 NA
ATOM      2  H   UNL     1       6.374   6.866  16.604  0.00  0.00    +0.000 HD
ENDROOT
BRANCH   1   3
ATOM      3  S   UNL     1       7.191   4.756  16.692  0.00  0.00    +0.000 S 
ATOM      4  O   UNL     1       8.226   4.196  17.533  0.00  0.00    +0.000 OA
ATOM      5  O   UNL     1       7.112   4.486  15.277  0.00  0.00    +0.000 OA
BRANCH   3   9
ATOM      6  C   UNL     1       3.101   3.849  18.528  0.00  0.00    +0.000 A 
ATOM      7  C   UNL     1       4.196   4.146  19.349  0.00  0.00    +0.000 A 
ATOM      8  C   UNL     1       5.450   4.396  18.786  0.00  0.00    +0.000 A 
ATOM      9  C   UNL     1       5.607   4.344  17.395  0.00  0.00    +0.000 A 
ATOM     10  C   UNL     1       4.517   4.046  16.567  0.00  0.00    +0.000 A 
ATOM     11  C   UNL     1       3.264   3.796  17.138  0.00  0.00    +0.000 A 
BRANCH   6  13
ATOM     12  N   UNL     1       1.367   4.430  20.088  0.00  0.00    +0.000 NA
ATOM     13  C   UNL     1       1.760   3.633  19.150  0.00  0.00    +0.000 C 
ATOM     14  N   UNL     1       0.965   2.601  18.745  0.00  0.00    +0.000 N 
ATOM     15  H   UNL     1       0.418   4.185  20.379  0.00  0.00    +0.000 HD
ATOM     16  H   UNL     1       0.241   2.327  19.398  0.00  0.00    +0.000 HD
ATOM     17  H   UNL     1       1.450   1.792  18.368  0.00  0.00    +0.000 HD
ENDBRANCH   6  13
ENDBRANCH   3   9
ENDBRANCH   1   3
BRANCH   1  18
ATOM     18  C   UNL     1       7.838   6.929  18.125  0.00  0.00    +0.000 C 
BRANCH  18  19
ATOM     19  C   UNL     1       8.082   8.426  18.050  0.00  0.00    +0.000 C 
ATOM     20  O   UNL     1       7.464   9.106  17.234  0.00  0.00    +0.000 OA
ATOM     21  N   UNL     1       9.034   8.893  18.950  0.00  0.00    +0.000 N 
ATOM     22  H   UNL     1       9.608   8.182  19.392  0.00  0.00    +0.000 HD
BRANCH  21  23
ATOM     23  C   UNL     1       9.359  10.253  19.181  0.00  0.00    +0.000 A 
ATOM     24  C   UNL     1       9.879  11.078  18.177  0.00  0.00    +0.000 A 
ATOM     25  C   UNL     1      10.209  12.409  18.431  0.00  0.00    +0.000 A 
ATOM     26  C   UNL     1      10.020  12.938  19.701  0.00  0.00    +0.000 A 
ATOM     27  C   UNL     1       9.482  12.142  20.718  0.00  0.00    +0.000 A 
ATOM     28  C   UNL     1       9.145  10.798  20.457  0.00  0.00    +0.000 A 
BRANCH  27  29
ATOM     29  C   UNL     1       9.365  12.761  22.065  0.00  0.00    +0.000 C 
ATOM     30  O   UNL     1       9.462  13.961  22.249  0.00  0.00    +0.000 OA
BRANCH  29  31
ATOM     31  O   UNL     1       9.109  11.887  23.059  0.00  0.00    +0.000 OA
ATOM     32  H   UNL     1       8.265  11.409  22.985  0.00  0.00    +0.000 HD
ENDBRANCH  29  31
ENDBRANCH  27  29
ENDBRANCH  21  23
ENDBRANCH  18  19
ENDBRANCH   1  18
TORSDOF 8
ENDMDL
MODEL 9
REMARK VINA RESULT:      -7.8      2.544      4.331
REMARK  Name = 
REMARK  8 active torsions:
REMARK  status: ('A' for Active; 'I' for Inactive)
REMARK    1  A    between atoms: C_2  and  C_4
REMARK    2  A    between atoms: C_7  and  S_8
REMARK    3  A    between atoms: S_8  and  N_11
REMARK    4  A    between atoms: N_11  and  C_12
REMARK    5  A    between atoms: C_12  and  C_13
REMARK    6  A    between atoms: N_15  and  C_16
REMARK    7  A    between atoms: C_20  and  C_21
REMARK    8  A    between atoms: C_21  and  O_23
REMARK                            x       y       z     vdW  Elec       q    Type
REMARK                         _______ _______ _______ _____ _____    ______ ____
ROOT
ATOM      1  N   UNL     1       1.500   2.883  19.325  0.00  0.00    +0.000 NA
ATOM      2  H   UNL     1       0.875   3.521  18.829  0.00  0.00    +0.000 HD
ENDROOT
BRANCH   1   3
ATOM      3  S   UNL     1       2.328   3.702  20.557  0.00  0.00    +0.000 S 
ATOM      4  O   UNL     1       3.720   3.319  20.465  0.00  0.00    +0.000 OA
ATOM      5  O   UNL     1       1.553   3.523  21.760  0.00  0.00    +0.000 OA
BRANCH   3   9
ATOM      6  C   UNL     1       1.834   8.059  19.253  0.00  0.00    +0.000 A 
ATOM      7  C   UNL     1       2.452   7.131  18.405  0.00  0.00    +0.000 A 
ATOM      8  C   UNL     1       2.625   5.808  18.817  0.00  0.00    +0.000 A 
ATOM      9  C   UNL     1       2.181   5.413  20.086  0.00  0.00    +0.000 A 
ATOM     10  C   UNL     1       1.563   6.336  20.940  0.00  0.00    +0.000 A 
ATOM     11  C   UNL     1       1.393   7.660  20.520  0.00  0.00    +0.000 A 
BRANCH   6  13
ATOM     12  N   UNL     1       1.897   9.747  17.544  0.00  0.00    +0.000 NA
ATOM     13  C   UNL     1       1.617   9.455  18.771  0.00  0.00    +0.000 C 
ATOM     14  N   UNL     1       1.141  10.415  19.616  0.00  0.00    +0.000 N 
ATOM     15  H   UNL     1       1.653  10.721  17.352  0.00  0.00    +0.000 HD
ATOM     16  H   UNL     1       1.313  11.371  19.329  0.00  0.00    +0.000 HD
ATOM     17  H   UNL     1       1.350  10.280  20.599  0.00  0.00    +0.000 HD
ENDBRANCH   6  13
ENDBRANCH   3   9
ENDBRANCH   1   3
BRANCH   1  18
ATOM     18  C   UNL     1       2.337   2.044  18.448  0.00  0.00    +0.000 C 
BRANCH  18  19
ATOM     19  C   UNL     1       3.078   2.911  17.445  0.00  0.00    +0.000 C 
ATOM     20  O   UNL     1       2.464   3.437  16.520  0.00  0.00    +0.000 OA
ATOM     21  N   UNL     1       4.444   3.013  17.683  0.00  0.00    +0.000 N 
ATOM     22  H   UNL     1       4.828   2.345  18.344  0.00  0.00    +0.000 HD
BRANCH  21  23
ATOM     23  C   UNL     1       5.346   3.854  16.983  0.00  0.00    +0.000 A 
ATOM     24  C   UNL     1       5.681   3.639  15.641  0.00  0.00    +0.000 A 
ATOM     25  C   UNL     1       6.586   4.469  14.979  0.00  0.00    +0.000 A 
ATOM     26  C   UNL     1       7.169   5.535  15.652  0.00  0.00    +0.000 A 
ATOM     27  C   UNL     1       6.836   5.785  16.987  0.00  0.00    +0.000 A 
ATOM     28  C   UNL     1       5.918   4.947  17.654  0.00  0.00    +0.000 A 
BRANCH  27  29
ATOM     29  C   UNL     1       7.546   6.906  17.657  0.00  0.00    +0.000 C 
ATOM     30  O   UNL     1       8.091   6.787  18.740  0.00  0.00    +0.000 OA
BRANCH  29  31
ATOM     31  O   UNL     1       7.566   8.054  16.950  0.00  0.00    +0.000 OA
ATOM     32  H   UNL     1       7.914   8.829  17.424  0.00  0.00    +0.000 HD
ENDBRANCH  29  31
ENDBRANCH  27  29
ENDBRANCH  21  23
ENDBRANCH  18  19
ENDBRANCH   1  18
TORSDOF 8
ENDMDL
