MODEL 1
REMARK VINA RESULT:      -8.5      0.000      0.000
REMARK  Name = 
REMARK  6 active torsions:
REMARK  status: ('A' for Active; 'I' for Inactive)
REMARK    1  A    between atoms: C_1  and  C_2
REMARK    2  A    between atoms: C_4  and  O_5
REMARK    3  A    between atoms: C_6  and  C_7
REMARK    4  A    between atoms: C_7  and  O_9
REMARK    5  A    between atoms: C_10  and  C_11
REMARK    6  A    between atoms: C_12  and  C_13
REMARK                            x       y       z     vdW  Elec       q    Type
REMARK                         _______ _______ _______ _____ _____    ______ ____
ROOT
ATOM      1  C   UNL     1       5.311   4.213  13.510  0.00  0.00    +0.000 C 
ATOM      2  C   UNL     1       5.733   4.595  14.898  0.00  0.00    +0.000 A 
ATOM      3  C   UNL     1       6.893   4.070  15.464  0.00  0.00    +0.000 A 
ATOM      4  C   UNL     1       7.277   4.453  16.753  0.00  0.00    +0.000 A 
ATOM      5  C   UNL     1       6.527   5.376  17.515  0.00  0.00    +0.000 A 
ATOM      6  C   UNL     1       5.350   5.906  16.939  0.00  0.00    +0.000 A 
ATOM      7  C   UNL     1       4.968   5.502  15.642  0.00  0.00    +0.000 A 
ENDROOT
BRANCH   4   8
ATOM      8  O   UNL     1       8.432   3.900  17.263  0.00  0.00    +0.000 OA
ATOM      9  H   UNL     1       8.747   4.453  18.003  0.00  0.00    +0.000 HD
ENDBRANCH   4   8
BRANCH   5  10
ATOM     10  C   UNL     1       6.971   5.812  18.887  0.00  0.00    +0.000 C 
ATOM     11  O   UNL     1       6.458   5.441  19.928  0.00  0.00    +0.000 OA
BRANCH  10  12
ATOM     12  O   UNL     1       8.011   6.681  18.911  0.00  0.00    +0.000 OA
ATOM     13  H   UNL     1       8.834   6.295  18.544  0.00  0.00    +0.000 HD
ENDBRANCH  10  12
ENDBRANCH   5  10
BRANCH   6  14
ATOM     14  C   UNL     1       4.480   6.921  17.557  0.00  0.00    +0.000 C 
ATOM     15  C   UNL     1       3.329   6.640  18.190  0.00  0.00    +0.000 C 
BRANCH  15  16
ATOM     16  C   UNL     1       2.465   7.725  18.667  0.00  0.00    +0.000 A 
ATOM     17  C   UNL     1       2.023   8.730  17.805  0.00  0.00    +0.000 A 
ATOM     18  C   UNL     1       1.140   9.716  18.266  0.00  0.00    +0.000 A 
ATOM     19  C   UNL     1       0.674   9.707  19.592  0.00  0.00    +0.000 A 
ATOM     20  C   UNL     1      -0.239  10.665  20.063  0.00  0.00    +0.000 A 
ATOM     21  C   UNL     1      -0.701  10.629  21.380  0.00  0.00    +0.000 A 
ATOM     22  C   UNL     1      -0.250   9.638  22.248  0.00  0.00    +0.000 A 
ATOM     23  C   UNL     1       0.660   8.681  21.797  0.00  0.00    +0.000 A 
ATOM     24  C   UNL     1       1.129   8.696  20.472  0.00  0.00    +0.000 A 
ATOM     25  C   UNL     1       2.025   7.723  19.997  0.00  0.00    +0.000 A 
ENDBRANCH  15  16
ENDBRANCH   6  14
TORSDOF 5
ENDMDL
MODEL 2
REMARK VINA RESULT:      -8.1      2.326      3.154
REMARK  Name = 
REMARK  6 active torsions:
REMARK  status: ('A' for Active; 'I' for Inactive)
REMARK    1  A    between atoms: C_1  and  C_2
REMARK    2  A    between atoms: C_4  and  O_5
REMARK    3  A    between atoms: C_6  and  C_7
REMARK    4  A    between atoms: C_7  and  O_9
REMARK    5  A    between atoms: C_10  and  C_11
REMARK    6  A    between atoms: C_12  and  C_13
REMARK                            x       y       z     vdW  Elec       q    Type
REMARK                         _______ _______ _______ _____ _____    ______ ____
ROOT
ATOM      1  C   UNL     1       7.060   6.085  16.822  0.00  0.00    +0.000 C 
ATOM      2  C   UNL     1       5.742   5.505  17.241  0.00  0.00    +0.000 A 
ATOM      3  C   UNL     1       5.487   4.141  17.117  0.00  0.00    +0.000 A 
ATOM      4  C   UNL     1       4.257   3.618  17.529  0.00  0.00    +0.000 A 
ATOM      5  C   UNL     1       3.247   4.432  18.087  0.00  0.00    +0.000 A 
ATOM      6  C   UNL     1       3.506   5.817  18.210  0.00  0.00    +0.000 A 
ATOM      7  C   UNL     1       4.748   6.332  17.779  0.00  0.00    +0.000 A 
ENDROOT
BRANCH   4   8
ATOM      8  O   UNL     1       4.061   2.262  17.381  0.00  0.00    +0.000 OA
ATOM      9  H   UNL     1       3.413   1.962  18.047  0.00  0.00    +0.000 HD
ENDBRANCH   4   8
BRANCH   5  10
ATOM     10  C   UNL     1       1.941   3.854  18.565  0.00  0.00    +0.000 C 
ATOM     11  O   UNL     1       1.058   3.445  17.832  0.00  0.00    +0.000 OA
BRANCH  10  12
ATOM     12  O   UNL     1       1.783   3.811  19.911  0.00  0.00    +0.000 OA
ATOM     13  H   UNL     1       2.083   2.961  20.299  0.00  0.00    +0.000 HD
ENDBRANCH  10  12
ENDBRANCH   5  10
BRANCH   6  14
ATOM     14  C   UNL     1       2.600   6.803  18.821  0.00  0.00    +0.000 C 
ATOM     15  C   UNL     1       2.308   7.995  18.275  0.00  0.00    +0.000 C 
BRANCH  15  16
ATOM     16  C   UNL     1       1.493   8.966  19.014  0.00  0.00    +0.000 A 
ATOM     17  C   UNL     1       0.912  10.061  18.371  0.00  0.00    +0.000 A 
ATOM     18  C   UNL     1       0.080  10.934  19.083  0.00  0.00    +0.000 A 
ATOM     19  C   UNL     1      -0.199  10.720  20.444  0.00  0.00    +0.000 A 
ATOM     20  C   UNL     1      -1.061  11.564  21.166  0.00  0.00    +0.000 A 
ATOM     21  C   UNL     1      -1.336  11.325  22.514  0.00  0.00    +0.000 A 
ATOM     22  C   UNL     1      -0.747  10.243  23.161  0.00  0.00    +0.000 A 
ATOM     23  C   UNL     1       0.114   9.398  22.460  0.00  0.00    +0.000 A 
ATOM     24  C   UNL     1       0.396   9.618  21.101  0.00  0.00    +0.000 A 
ATOM     25  C   UNL     1       1.240   8.759  20.376  0.00  0.00    +0.000 A 
ENDBRANCH  15  16
ENDBRANCH   6  14
TORSDOF 5
ENDMDL
MODEL 3
REMARK VINA RESULT:      -8.1      2.165      2.782
REMARK  Name = 
REMARK  6 active torsions:
REMARK  status: ('A' for Active; 'I' for Inactive)
REMARK    1  A    between atoms: C_1  and  C_2
REMARK    2  A    between atoms: C_4  and  O_5
REMARK    3  A    between atoms: C_6  and  C_7
REMARK    4  A    between atoms: C_7  and  O_9
REMARK    5  A    between atoms: C_10  and  C_11
REMARK    6  A    between atoms: C_12  and  C_13
REMARK                            x       y       z     vdW  Elec       q    Type
REMARK                         _______ _______ _______ _____ _____    ______ ____
ROOT
ATOM      1  C   UNL     1       2.144   1.807  18.389  0.00  0.00    +0.000 C 
ATOM      2  C   UNL     1       2.964   2.995  17.984  0.00  0.00    +0.000 A 
ATOM      3  C   UNL     1       4.115   2.843  17.212  0.00  0.00    +0.000 A 
ATOM      4  C   UNL     1       4.856   3.965  16.831  0.00  0.00    +0.000 A 
ATOM      5  C   UNL     1       4.472   5.274  17.195  0.00  0.00    +0.000 A 
ATOM      6  C   UNL     1       3.306   5.428  17.980  0.00  0.00    +0.000 A 
ATOM      7  C   UNL     1       2.574   4.284  18.367  0.00  0.00    +0.000 A 
ENDROOT
BRANCH   4   8
ATOM      8  O   UNL     1       5.985   3.754  16.070  0.00  0.00    +0.000 OA
ATOM      9  H   UNL     1       5.796   4.005  15.146  0.00  0.00    +0.000 HD
ENDBRANCH   4   8
BRANCH   5  10
ATOM     10  C   UNL     1       5.255   6.481  16.747  0.00  0.00    +0.000 C 
ATOM     11  O   UNL     1       5.930   7.178  17.483  0.00  0.00    +0.000 OA
BRANCH  10  12
ATOM     12  O   UNL     1       5.165   6.772  15.426  0.00  0.00    +0.000 OA
ATOM     13  H   UNL     1       4.335   6.442  15.022  0.00  0.00    +0.000 HD
ENDBRANCH  10  12
ENDBRANCH   5  10
BRANCH   6  14
ATOM     14  C   UNL     1       2.723   6.712  18.400  0.00  0.00    +0.000 C 
ATOM     15  C   UNL     1       2.279   6.966  19.642  0.00  0.00    +0.000 C 
BRANCH  15  16
ATOM     16  C   UNL     1       1.599   8.232  19.939  0.00  0.00    +0.000 A 
ATOM     17  C   UNL     1       1.443   9.217  18.961  0.00  0.00    +0.000 A 
ATOM     18  C   UNL     1       0.728  10.387  19.248  0.00  0.00    +0.000 A 
ATOM     19  C   UNL     1       0.145  10.587  20.510  0.00  0.00    +0.000 A 
ATOM     20  C   UNL     1      -0.607  11.738  20.805  0.00  0.00    +0.000 A 
ATOM     21  C   UNL     1      -1.191  11.910  22.062  0.00  0.00    +0.000 A 
ATOM     22  C   UNL     1      -1.023  10.939  23.045  0.00  0.00    +0.000 A 
ATOM     23  C   UNL     1      -0.277   9.793  22.769  0.00  0.00    +0.000 A 
ATOM     24  C   UNL     1       0.310   9.597  21.507  0.00  0.00    +0.000 A 
ATOM     25  C   UNL     1       1.042   8.435  21.208  0.00  0.00    +0.000 A 
ENDBRANCH  15  16
ENDBRANCH   6  14
TORSDOF 5
ENDMDL
MODEL 4
REMARK VINA RESULT:      -8.0      2.840      3.585
REMARK  Name = 
REMARK  6 active torsions:
REMARK  status: ('A' for Active; 'I' for Inactive)
REMARK    1  A    between atoms: C_1  and  C_2
REMARK    2  A    between atoms: C_4  and  O_5
REMARK    3  A    between atoms: C_6  and  C_7
REMARK    4  A    between atoms: C_7  and  O_9
REMARK    5  A    between atoms: C_10  and  C_11
REMARK    6  A    between atoms: C_12  and  C_13
REMARK                            x       y       z     vdW  Elec       q    Type
REMARK                         _______ _______ _______ _____ _____    ______ ____
ROOT
ATOM      1  C   UNL     1       6.042   4.694  16.334  0.00  0.00    +0.000 C 
ATOM      2  C   UNL     1       4.788   4.350  17.083  0.00  0.00    +0.000 A 
ATOM      3  C   UNL     1       4.388   3.025  17.239  0.00  0.00    +0.000 A 
ATOM      4  C   UNL     1       3.225   2.724  17.955  0.00  0.00    +0.000 A 
ATOM      5  C   UNL     1       2.430   3.730  18.547  0.00  0.00    +0.000 A 
ATOM      6  C   UNL     1       2.836   5.075  18.386  0.00  0.00    +0.000 A 
ATOM      7  C   UNL     1       4.006   5.363  17.651  0.00  0.00    +0.000 A 
ENDROOT
BRANCH   4   8
ATOM      8  O   UNL     1       2.877   1.396  18.075  0.00  0.00    +0.000 OA
ATOM      9  H   UNL     1       3.371   1.006  18.821  0.00  0.00    +0.000 HD
ENDBRANCH   4   8
BRANCH   5  10
ATOM     10  C   UNL     1       1.200   3.394  19.350  0.00  0.00    +0.000 C 
ATOM     11  O   UNL     1       0.967   3.823  20.466  0.00  0.00    +0.000 OA
BRANCH  10  12
ATOM     12  O   UNL     1       0.327   2.550  18.748  0.00  0.00    +0.000 OA
ATOM     13  H   UNL     1       0.776   1.856  18.220  0.00  0.00    +0.000 HD
ENDBRANCH  10  12
ENDBRANCH   5  10
BRANCH   6  14
ATOM     14  C   UNL     1       2.170   6.245  18.981  0.00  0.00    +0.000 C 
ATOM     15  C   UNL     1       2.205   7.479  18.453  0.00  0.00    +0.000 C 
BRANCH  15  16
ATOM     16  C   UNL     1       1.616   8.610  19.179  0.00  0.00    +0.000 A 
ATOM     17  C   UNL     1       1.441   9.852  18.566  0.00  0.00    +0.000 A 
ATOM     18  C   UNL     1       0.811  10.895  19.257  0.00  0.00    +0.000 A 
ATOM     19  C   UNL     1       0.333  10.712  20.566  0.00  0.00    +0.000 A 
ATOM     20  C   UNL     1      -0.334  11.735  21.262  0.00  0.00    +0.000 A 
ATOM     21  C   UNL     1      -0.815  11.526  22.556  0.00  0.00    +0.000 A 
ATOM     22  C   UNL     1      -0.628  10.295  23.176  0.00  0.00    +0.000 A 
ATOM     23  C   UNL     1       0.035   9.269  22.501  0.00  0.00    +0.000 A 
ATOM     24  C   UNL     1       0.518   9.458  21.194  0.00  0.00    +0.000 A 
ATOM     25  C   UNL     1       1.164   8.425  20.492  0.00  0.00    +0.000 A 
ENDBRANCH  15  16
ENDBRANCH   6  14
TORSDOF 5
ENDMDL
MODEL 5
REMARK VINA RESULT:      -8.0      2.648      3.849
REMARK  Name = 
REMARK  6 active torsions:
REMARK  status: ('A' for Active; 'I' for Inactive)
REMARK    1  A    between atoms: C_1  and  C_2
REMARK    2  A    between atoms: C_4  and  O_5
REMARK    3  A    between atoms: C_6  and  C_7
REMARK    4  A    between atoms: C_7  and  O_9
REMARK    5  A    between atoms: C_10  and  C_11
REMARK    6  A    between atoms: C_12  and  C_13
REMARK                            x       y       z     vdW  Elec       q    Type
REMARK                         _______ _______ _______ _____ _____    ______ ____
ROOT
ATOM      1  C   UNL     1       7.075   6.859  17.087  0.00  0.00    +0.000 C 
ATOM      2  C   UNL     1       5.768   6.181  17.374  0.00  0.00    +0.000 A 
ATOM      3  C   UNL     1       5.691   4.795  17.493  0.00  0.00    +0.000 A 
ATOM      4  C   UNL     1       4.466   4.184  17.777  0.00  0.00    +0.000 A 
ATOM      5  C   UNL     1       3.282   4.932  17.961  0.00  0.00    +0.000 A 
ATOM      6  C   UNL     1       3.362   6.338  17.838  0.00  0.00    +0.000 A 
ATOM      7  C   UNL     1       4.603   6.939  17.540  0.00  0.00    +0.000 A 
ENDROOT
BRANCH   4   8
ATOM      8  O   UNL     1       4.448   2.810  17.880  0.00  0.00    +0.000 OA
ATOM      9  H   UNL     1       5.347   2.468  17.707  0.00  0.00    +0.000 HD
ENDBRANCH   4   8
BRANCH   5  10
ATOM     10  C   UNL     1       1.974   4.268  18.306  0.00  0.00    +0.000 C 
ATOM     11  O   UNL     1       1.667   3.887  19.422  0.00  0.00    +0.000 OA
BRANCH  10  12
ATOM     12  O   UNL     1       1.117   4.101  17.269  0.00  0.00    +0.000 OA
ATOM     13  H   UNL     1       0.183   4.026  17.560  0.00  0.00    +0.000 HD
ENDBRANCH  10  12
ENDBRANCH   5  10
BRANCH   6  14
ATOM     14  C   UNL     1       2.250   7.278  18.057  0.00  0.00    +0.000 C 
ATOM     15  C   UNL     1       2.306   8.589  17.768  0.00  0.00    +0.000 C 
BRANCH  15  16
ATOM     16  C   UNL     1       1.194   9.473  18.134  0.00  0.00    +0.000 A 
ATOM     17  C   UNL     1       1.400  10.605  18.927  0.00  0.00    +0.000 A 
ATOM     18  C   UNL     1       0.336  11.473  19.203  0.00  0.00    +0.000 A 
ATOM     19  C   UNL     1      -0.947  11.235  18.683  0.00  0.00    +0.000 A 
ATOM     20  C   UNL     1      -2.018  12.114  18.919  0.00  0.00    +0.000 A 
ATOM     21  C   UNL     1      -3.282  11.866  18.380  0.00  0.00    +0.000 A 
ATOM     22  C   UNL     1      -3.495  10.731  17.603  0.00  0.00    +0.000 A 
ATOM     23  C   UNL     1      -2.443   9.846  17.362  0.00  0.00    +0.000 A 
ATOM     24  C   UNL     1      -1.162  10.084  17.889  0.00  0.00    +0.000 A 
ATOM     25  C   UNL     1      -0.087   9.215  17.632  0.00  0.00    +0.000 A 
ENDBRANCH  15  16
ENDBRANCH   6  14
TORSDOF 5
ENDMDL
MODEL 6
REMARK VINA RESULT:      -7.9      2.689      4.239
REMARK  Name = 
REMARK  6 active torsions:
REMARK  status: ('A' for Active; 'I' for Inactive)
REMARK    1  A    between atoms: C_1  and  C_2
REMARK    2  A    between atoms: C_4  and  O_5
REMARK    3  A    between atoms: C_6  and  C_7
REMARK    4  A    between atoms: C_7  and  O_9
REMARK    5  A    between atoms: C_10  and  C_11
REMARK    6  A    between atoms: C_12  and  C_13
REMARK                            x       y       z     vdW  Elec       q    Type
REMARK                         _______ _______ _______ _____ _____    ______ ____
ROOT
ATOM      1  C   UNL     1       5.492   5.912  17.077  0.00  0.00    +0.000 C 
ATOM      2  C   UNL     1       4.564   5.287  18.076  0.00  0.00    +0.000 A 
ATOM      3  C   UNL     1       4.658   3.933  18.392  0.00  0.00    +0.000 A 
ATOM      4  C   UNL     1       3.794   3.373  19.339  0.00  0.00    +0.000 A 
ATOM      5  C   UNL     1       2.818   4.143  20.008  0.00  0.00    +0.000 A 
ATOM      6  C   UNL     1       2.722   5.516  19.685  0.00  0.00    +0.000 A 
ATOM      7  C   UNL     1       3.593   6.064  18.719  0.00  0.00    +0.000 A 
ENDROOT
BRANCH   4   8
ATOM      8  O   UNL     1       3.931   2.029  19.609  0.00  0.00    +0.000 OA
ATOM      9  H   UNL     1       4.808   1.875  20.011  0.00  0.00    +0.000 HD
ENDBRANCH   4   8
BRANCH   5  10
ATOM     10  C   UNL     1       1.918   3.540  21.055  0.00  0.00    +0.000 C 
ATOM     11  O   UNL     1       2.272   3.247  22.183  0.00  0.00    +0.000 OA
BRANCH  10  12
ATOM     12  O   UNL     1       0.638   3.324  20.666  0.00  0.00    +0.000 OA
ATOM     13  H   UNL     1       0.002   3.927  21.107  0.00  0.00    +0.000 HD
ENDBRANCH  10  12
ENDBRANCH   5  10
BRANCH   6  14
ATOM     14  C   UNL     1       1.811   6.481  20.322  0.00  0.00    +0.000 C 
ATOM     15  C   UNL     1       1.816   7.801  20.068  0.00  0.00    +0.000 C 
BRANCH  15  16
ATOM     16  C   UNL     1       0.956   8.704  20.841  0.00  0.00    +0.000 A 
ATOM     17  C   UNL     1       0.217   8.243  21.932  0.00  0.00    +0.000 A 
ATOM     18  C   UNL     1      -0.540   9.139  22.698  0.00  0.00    +0.000 A 
ATOM     19  C   UNL     1      -0.561  10.511  22.396  0.00  0.00    +0.000 A 
ATOM     20  C   UNL     1      -1.286  11.430  23.174  0.00  0.00    +0.000 A 
ATOM     21  C   UNL     1      -1.282  12.792  22.866  0.00  0.00    +0.000 A 
ATOM     22  C   UNL     1      -0.559  13.253  21.769  0.00  0.00    +0.000 A 
ATOM     23  C   UNL     1       0.162  12.353  20.983  0.00  0.00    +0.000 A 
ATOM     24  C   UNL     1       0.177  10.980  21.284  0.00  0.00    +0.000 A 
ATOM     25  C   UNL     1       0.921  10.067  20.518  0.00  0.00    +0.000 A 
ENDBRANCH  15  16
ENDBRANCH   6  14
TORSDOF 5
ENDMDL
MODEL 7
REMARK VINA RESULT:      -7.8      2.298      3.098
REMARK  Name = 
REMARK  6 active torsions:
REMARK  status: ('A' for Active; 'I' for Inactive)
REMARK    1  A    between atoms: C_1  and  C_2
REMARK    2  A    between atoms: C_4  and  O_5
REMARK    3  A    between atoms: C_6  and  C_7
REMARK    4  A    between atoms: C_7  and  O_9
REMARK    5  A    between atoms: C_10  and  C_11
REMARK    6  A    between atoms: C_12  and  C_13
REMARK                            x       y       z     vdW  Elec       q    Type
REMARK                         _______ _______ _______ _____ _____    ______ ____
ROOT
ATOM      1  C   UNL     1       5.700   5.299  15.681  0.00  0.00    +0.000 C 
ATOM      2  C   UNL     1       4.799   4.901  16.812  0.00  0.00    +0.000 A 
ATOM      3  C   UNL     1       4.891   3.636  17.389  0.00  0.00    +0.000 A 
ATOM      4  C   UNL     1       4.053   3.290  18.455  0.00  0.00    +0.000 A 
ATOM      5  C   UNL     1       3.107   4.193  18.986  0.00  0.00    +0.000 A 
ATOM      6  C   UNL     1       3.014   5.476  18.398  0.00  0.00    +0.000 A 
ATOM      7  C   UNL     1       3.858   5.806  17.316  0.00  0.00    +0.000 A 
ENDROOT
BRANCH   4   8
ATOM      8  O   UNL     1       4.187   2.025  18.984  0.00  0.00    +0.000 OA
ATOM      9  H   UNL     1       4.173   2.086  19.958  0.00  0.00    +0.000 HD
ENDBRANCH   4   8
BRANCH   5  10
ATOM     10  C   UNL     1       2.237   3.826  20.159  0.00  0.00    +0.000 C 
ATOM     11  O   UNL     1       1.361   2.979  20.130  0.00  0.00    +0.000 OA
BRANCH  10  12
ATOM     12  O   UNL     1       2.480   4.516  21.301  0.00  0.00    +0.000 OA
ATOM     13  H   UNL     1       2.599   3.929  22.078  0.00  0.00    +0.000 HD
ENDBRANCH  10  12
ENDBRANCH   5  10
BRANCH   6  14
ATOM     14  C   UNL     1       2.133   6.563  18.857  0.00  0.00    +0.000 C 
ATOM     15  C   UNL     1       2.365   7.866  18.625  0.00  0.00    +0.000 C 
BRANCH  15  16
ATOM     16  C   UNL     1       1.499   8.887  19.226  0.00  0.00    +0.000 A 
ATOM     17  C   UNL     1       0.896   9.875  18.446  0.00  0.00    +0.000 A 
ATOM     18  C   UNL     1       0.017  10.795  19.032  0.00  0.00    +0.000 A 
ATOM     19  C   UNL     1      -0.285  10.736  20.403  0.00  0.00    +0.000 A 
ATOM     20  C   UNL     1      -1.192  11.627  21.002  0.00  0.00    +0.000 A 
ATOM     21  C   UNL     1      -1.490  11.541  22.363  0.00  0.00    +0.000 A 
ATOM     22  C   UNL     1      -0.878  10.567  23.147  0.00  0.00    +0.000 A 
ATOM     23  C   UNL     1       0.028   9.677  22.570  0.00  0.00    +0.000 A 
ATOM     24  C   UNL     1       0.333   9.743  21.199  0.00  0.00    +0.000 A 
ATOM     25  C   UNL     1       1.223   8.835  20.599  0.00  0.00    +0.000 A 
ENDBRANCH  15  16
ENDBRANCH   6  14
TORSDOF 5
ENDMDL
MODEL 8
REMARK VINA RESULT:      -7.8      0.732      1.614
REMARK  Name = 
REMARK  6 active torsions:
REMARK  status: ('A' for Active; 'I' for Inactive)
REMARK    1  A    between atoms: C_1  and  C_2
REMARK    2  A    between atoms: C_4  and  O_5
REMARK    3  A    between atoms: C_6  and  C_7
REMARK    4  A    between atoms: C_7  and  O_9
REMARK    5  A    between atoms: C_10  and  C_11
REMARK    6  A    between atoms: C_12  and  C_13
REMARK                            x       y       z     vdW  Elec       q    Type
REMARK                         _______ _______ _______ _____ _____    ______ ____
ROOT
ATOM      1  C   UNL     1       5.496   4.335  13.567  0.00  0.00    +0.000 C 
ATOM      2  C   UNL     1       5.769   4.548  15.027  0.00  0.00    +0.000 A 
ATOM      3  C   UNL     1       7.000   4.206  15.583  0.00  0.00    +0.000 A 
ATOM      4  C   UNL     1       7.241   4.428  16.942  0.00  0.00    +0.000 A 
ATOM      5  C   UNL     1       6.269   5.006  17.789  0.00  0.00    +0.000 A 
ATOM      6  C   UNL     1       5.020   5.351  17.224  0.00  0.00    +0.000 A 
ATOM      7  C   UNL     1       4.788   5.110  15.852  0.00  0.00    +0.000 A 
ENDROOT
BRANCH   4   8
ATOM      8  O   UNL     1       8.475   4.068  17.437  0.00  0.00    +0.000 OA
ATOM      9  H   UNL     1       8.349   3.456  18.188  0.00  0.00    +0.000 HD
ENDBRANCH   4   8
BRANCH   5  10
ATOM     10  C   UNL     1       6.551   5.278  19.243  0.00  0.00    +0.000 C 
ATOM     11  O   UNL     1       5.869   4.870  20.166  0.00  0.00    +0.000 OA
BRANCH  10  12
ATOM     12  O   UNL     1       7.646   6.039  19.490  0.00  0.00    +0.000 OA
ATOM     13  H   UNL     1       8.108   6.312  18.669  0.00  0.00    +0.000 HD
ENDBRANCH  10  12
ENDBRANCH   5  10
BRANCH   6  14
ATOM     14  C   UNL     1       3.916   6.016  17.935  0.00  0.00    +0.000 C 
ATOM     15  C   UNL     1       3.562   7.297  17.744  0.00  0.00    +0.000 C 
BRANCH  15  16
ATOM     16  C   UNL     1       2.530   7.911  18.587  0.00  0.00    +0.000 A 
ATOM     17  C   UNL     1       2.243   7.413  19.860  0.00  0.00    +0.000 A 
ATOM     18  C   UNL     1       1.304   8.060  20.673  0.00  0.00    +0.000 A 
ATOM     19  C   UNL     1       0.646   9.222  20.236  0.00  0.00    +0.000 A 
ATOM     20  C   UNL     1      -0.272   9.905  21.052  0.00  0.00    +0.000 A 
ATOM     21  C   UNL     1      -0.904  11.067  20.604  0.00  0.00    +0.000 A 
ATOM     22  C   UNL     1      -0.633  11.557  19.330  0.00  0.00    +0.000 A 
ATOM     23  C   UNL     1       0.273  10.889  18.506  0.00  0.00    +0.000 A 
ATOM     24  C   UNL     1       0.925   9.723  18.943  0.00  0.00    +0.000 A 
ATOM     25  C   UNL     1       1.860   9.055  18.134  0.00  0.00    +0.000 A 
ENDBRANCH  15  16
ENDBRANCH   6  14
TORSDOF 5
ENDMDL
MODEL 9
REMARK VINA RESULT:      -7.7      3.015      8.253
REMARK  Name = 
REMARK  6 active torsions:
REMARK  status: ('A' for Active; 'I' for Inactive)
REMARK    1  A    between atoms: C_1  and  C_2
REMARK    2  A    between atoms: C_4  and  O_5
REMARK    3  A    between atoms: C_6  and  C_7
REMARK    4  A    between atoms: C_7  and  O_9
REMARK    5  A    between atoms: C_10  and  C_11
REMARK    6  A    between atoms: C_12  and  C_13
REMARK                            x       y       z     vdW  Elec       q    Type
REMARK                         _______ _______ _______ _____ _____    ______ ____
ROOT
ATOM      1  C   UNL     1       1.548   7.702  20.902  0.00  0.00    +0.000 C 
ATOM      2  C   UNL     1       1.783   6.304  20.413  0.00  0.00    +0.000 A 
ATOM      3  C   UNL     1       1.208   5.213  21.060  0.00  0.00    +0.000 A 
ATOM      4  C   UNL     1       1.426   3.918  20.578  0.00  0.00    +0.000 A 
ATOM      5  C   UNL     1       2.212   3.670  19.431  0.00  0.00    +0.000 A 
ATOM      6  C   UNL     1       2.796   4.778  18.776  0.00  0.00    +0.000 A 
ATOM      7  C   UNL     1       2.577   6.078  19.282  0.00  0.00    +0.000 A 
ENDROOT
BRANCH   4   8
ATOM      8  O   UNL     1       0.834   2.877  21.259  0.00  0.00    +0.000 OA
ATOM      9  H   UNL     1       1.247   2.038  20.976  0.00  0.00    +0.000 HD
ENDBRANCH   4   8
BRANCH   5  10
ATOM     10  C   UNL     1       2.408   2.275  18.895  0.00  0.00    +0.000 C 
ATOM     11  O   UNL     1       3.486   1.714  18.812  0.00  0.00    +0.000 OA
BRANCH  10  12
ATOM     12  O   UNL     1       1.279   1.647  18.486  0.00  0.00    +0.000 OA
ATOM     13  H   UNL     1       1.223   1.570  17.509  0.00  0.00    +0.000 HD
ENDBRANCH  10  12
ENDBRANCH   5  10
BRANCH   6  14
ATOM     14  C   UNL     1       3.591   4.717  17.539  0.00  0.00    +0.000 C 
ATOM     15  C   UNL     1       4.934   4.714  17.508  0.00  0.00    +0.000 C 
BRANCH  15  16
ATOM     16  C   UNL     1       5.643   4.776  16.224  0.00  0.00    +0.000 A 
ATOM     17  C   UNL     1       6.855   5.457  16.099  0.00  0.00    +0.000 A 
ATOM     18  C   UNL     1       7.548   5.442  14.881  0.00  0.00    +0.000 A 
ATOM     19  C   UNL     1       7.050   4.735  13.774  0.00  0.00    +0.000 A 
ATOM     20  C   UNL     1       7.749   4.678  12.556  0.00  0.00    +0.000 A 
ATOM     21  C   UNL     1       7.243   3.957  11.472  0.00  0.00    +0.000 A 
ATOM     22  C   UNL     1       6.028   3.290  11.588  0.00  0.00    +0.000 A 
ATOM     23  C   UNL     1       5.319   3.340  12.789  0.00  0.00    +0.000 A 
ATOM     24  C   UNL     1       5.817   4.052  13.894  0.00  0.00    +0.000 A 
ATOM     25  C   UNL     1       5.127   4.089  15.118  0.00  0.00    +0.000 A 
ENDBRANCH  15  16
ENDBRANCH   6  14
TORSDOF 5
ENDMDL
