MODEL 1
REMARK VINA RESULT:      -8.7      0.000      0.000
REMARK  Name = 
REMARK  5 active torsions:
REMARK  status: ('A' for Active; 'I' for Inactive)
REMARK    1  A    between atoms: C_2  and  C_5
REMARK    2  A    between atoms: C_8  and  C_9
REMARK    3  A    between atoms: N_15  and  O_16
REMARK    4  A    between atoms: O_16  and  C_17
REMARK    5  A    between atoms: C_17  and  C_18
REMARK                            x       y       z     vdW  Elec       q    Type
REMARK                         _______ _______ _______ _____ _____    ______ ____
ROOT
ATOM      1  C   UNL     1       4.127   5.788  17.374  0.00  0.00    +0.000 C 
ATOM      2  C   UNL     1       4.973   6.575  16.365  0.00  0.00    +0.000 C 
ATOM      3  C   UNL     1       6.106   7.341  17.072  0.00  0.00    +0.000 C 
ATOM      4  N   UNL     1       7.006   6.418  17.794  0.00  0.00    +0.000 NA
ATOM      5  C   UNL     1       6.343   5.490  18.733  0.00  0.00    +0.000 C 
ATOM      6  C   UNL     1       5.124   4.875  18.091  0.00  0.00    +0.000 C 
ATOM      7  N   UNL     1       5.113   3.588  17.968  0.00  0.00    +0.000 NA
ATOM      8  H   UNL     1       7.713   6.982  18.322  0.00  0.00    +0.000 HD
ENDROOT
BRANCH   1  12
ATOM      9  C   UNL     1       1.512   8.367  19.784  0.00  0.00    +0.000 A 
ATOM     10  C   UNL     1       2.022   7.160  20.292  0.00  0.00    +0.000 A 
ATOM     11  C   UNL     1       2.893   6.371  19.522  0.00  0.00    +0.000 A 
ATOM     12  C   UNL     1       3.272   6.763  18.218  0.00  0.00    +0.000 A 
ATOM     13  C   UNL     1       2.747   7.983  17.739  0.00  0.00    +0.000 A 
ATOM     14  C   UNL     1       1.899   8.770  18.505  0.00  0.00    +0.000 A 
BRANCH   9  16
ATOM     15  F   UNL     1       1.199  10.159  21.338  0.00  0.00    +0.000 F 
ATOM     16  C   UNL     1       0.546   9.228  20.553  0.00  0.00    +0.000 C 
ATOM     17  F   UNL     1      -0.221   8.425  21.377  0.00  0.00    +0.000 F 
ATOM     18  F   UNL     1      -0.290   9.895  19.672  0.00  0.00    +0.000 F 
ENDBRANCH   9  16
ENDBRANCH   1  12
BRANCH   7  19
ATOM     19  O   UNL     1       4.229   2.925  17.259  0.00  0.00    +0.000 OA
BRANCH  19  20
ATOM     20  C   UNL     1       3.500   1.925  17.866  0.00  0.00    +0.000 C 
BRANCH  20  21
ATOM     21  C   UNL     1       2.710   2.463  19.032  0.00  0.00    +0.000 A 
ATOM     22  C   UNL     1       1.429   3.010  18.815  0.00  0.00    +0.000 A 
ATOM     23  C   UNL     1       0.675   3.497  19.884  0.00  0.00    +0.000 A 
ATOM     24  C   UNL     1       1.188   3.449  21.180  0.00  0.00    +0.000 A 
ATOM     25  C   UNL     1       2.457   2.911  21.410  0.00  0.00    +0.000 A 
ATOM     26  C   UNL     1       3.220   2.414  20.346  0.00  0.00    +0.000 A 
ATOM     27 CL   UNL     1       4.806   1.738  20.697  0.00  0.00    +0.000 Cl
ENDBRANCH  20  21
ENDBRANCH  19  20
ENDBRANCH   7  19
TORSDOF 5
ENDMDL
MODEL 2
REMARK VINA RESULT:      -8.5      1.145      1.679
REMARK  Name = 
REMARK  5 active torsions:
REMARK  status: ('A' for Active; 'I' for Inactive)
REMARK    1  A    between atoms: C_2  and  C_5
REMARK    2  A    between atoms: C_8  and  C_9
REMARK    3  A    between atoms: N_15  and  O_16
REMARK    4  A    between atoms: O_16  and  C_17
REMARK    5  A    between atoms: C_17  and  C_18
REMARK                            x       y       z     vdW  Elec       q    Type
REMARK                         _______ _______ _______ _____ _____    ______ ____
ROOT
ATOM      1  C   UNL     1       4.249   5.875  17.377  0.00  0.00    +0.000 C 
ATOM      2  C   UNL     1       5.239   6.586  16.445  0.00  0.00    +0.000 C 
ATOM      3  C   UNL     1       6.323   7.324  17.251  0.00  0.00    +0.000 C 
ATOM      4  N   UNL     1       7.092   6.388  18.097  0.00  0.00    +0.000 NA
ATOM      5  C   UNL     1       6.283   5.526  18.984  0.00  0.00    +0.000 C 
ATOM      6  C   UNL     1       5.114   4.945  18.229  0.00  0.00    +0.000 C 
ATOM      7  N   UNL     1       5.054   3.656  18.145  0.00  0.00    +0.000 NA
ATOM      8  H   UNL     1       7.762   6.938  18.683  0.00  0.00    +0.000 HD
ENDROOT
BRANCH   1  12
ATOM      9  C   UNL     1       1.526   8.646  19.428  0.00  0.00    +0.000 A 
ATOM     10  C   UNL     1       2.039   7.509  20.074  0.00  0.00    +0.000 A 
ATOM     11  C   UNL     1       2.944   6.659  19.416  0.00  0.00    +0.000 A 
ATOM     12  C   UNL     1       3.355   6.918  18.090  0.00  0.00    +0.000 A 
ATOM     13  C   UNL     1       2.827   8.072  17.469  0.00  0.00    +0.000 A 
ATOM     14  C   UNL     1       1.945   8.920  18.125  0.00  0.00    +0.000 A 
BRANCH   9  16
ATOM     15  F   UNL     1      -0.489   9.916  19.203  0.00  0.00    +0.000 F 
ATOM     16  C   UNL     1       0.525   9.566  20.075  0.00  0.00    +0.000 C 
ATOM     17  F   UNL     1       1.168  10.720  20.483  0.00  0.00    +0.000 F 
ATOM     18  F   UNL     1      -0.032   8.947  21.182  0.00  0.00    +0.000 F 
ENDBRANCH   9  16
ENDBRANCH   1  12
BRANCH   7  19
ATOM     19  O   UNL     1       4.221   3.008  17.362  0.00  0.00    +0.000 OA
BRANCH  19  20
ATOM     20  C   UNL     1       3.418   2.028  17.906  0.00  0.00    +0.000 C 
BRANCH  20  21
ATOM     21  C   UNL     1       2.683   2.542  19.118  0.00  0.00    +0.000 A 
ATOM     22  C   UNL     1       3.073   2.116  20.404  0.00  0.00    +0.000 A 
ATOM     23  C   UNL     1       2.416   2.594  21.539  0.00  0.00    +0.000 A 
ATOM     24  C   UNL     1       1.362   3.498  21.408  0.00  0.00    +0.000 A 
ATOM     25  C   UNL     1       0.963   3.928  20.140  0.00  0.00    +0.000 A 
ATOM     26  C   UNL     1       1.618   3.459  18.994  0.00  0.00    +0.000 A 
ATOM     27 CL   UNL     1       1.080   4.043  17.423  0.00  0.00    +0.000 Cl
ENDBRANCH  20  21
ENDBRANCH  19  20
ENDBRANCH   7  19
TORSDOF 5
ENDMDL
MODEL 3
REMARK VINA RESULT:      -8.4      2.206      4.716
REMARK  Name = 
REMARK  5 active torsions:
REMARK  status: ('A' for Active; 'I' for Inactive)
REMARK    1  A    between atoms: C_2  and  C_5
REMARK    2  A    between atoms: C_8  and  C_9
REMARK    3  A    between atoms: N_15  and  O_16
REMARK    4  A    between atoms: O_16  and  C_17
REMARK    5  A    between atoms: C_17  and  C_18
REMARK                            x       y       z     vdW  Elec       q    Type
REMARK                         _______ _______ _______ _____ _____    ______ ____
ROOT
ATOM      1  C   UNL     1       2.984   4.814  19.352  0.00  0.00    +0.000 C 
ATOM      2  C   UNL     1       2.621   4.242  20.729  0.00  0.00    +0.000 C 
ATOM      3  C   UNL     1       1.115   3.937  20.821  0.00  0.00    +0.000 C 
ATOM      4  N   UNL     1       0.705   2.951  19.800  0.00  0.00    +0.000 NA
ATOM      5  C   UNL     1       1.083   3.283  18.411  0.00  0.00    +0.000 C 
ATOM      6  C   UNL     1       2.514   3.754  18.353  0.00  0.00    +0.000 C 
ATOM      7  N   UNL     1       3.331   3.061  17.628  0.00  0.00    +0.000 NA
ATOM      8  H   UNL     1      -0.333   2.832  19.847  0.00  0.00    +0.000 HD
ENDROOT
BRANCH   1  12
ATOM      9  C   UNL     1       1.671   8.982  18.901  0.00  0.00    +0.000 A 
ATOM     10  C   UNL     1       2.149   8.241  17.808  0.00  0.00    +0.000 A 
ATOM     11  C   UNL     1       2.523   6.896  17.963  0.00  0.00    +0.000 A 
ATOM     12  C   UNL     1       2.435   6.255  19.219  0.00  0.00    +0.000 A 
ATOM     13  C   UNL     1       1.945   7.023  20.297  0.00  0.00    +0.000 A 
ATOM     14  C   UNL     1       1.562   8.348  20.141  0.00  0.00    +0.000 A 
BRANCH   9  16
ATOM     15  F   UNL     1       1.229  11.040  20.038  0.00  0.00    +0.000 F 
ATOM     16  C   UNL     1       1.295  10.436  18.797  0.00  0.00    +0.000 C 
ATOM     17  F   UNL     1       0.056  10.542  18.193  0.00  0.00    +0.000 F 
ATOM     18  F   UNL     1       2.229  11.105  18.023  0.00  0.00    +0.000 F 
ENDBRANCH   9  16
ENDBRANCH   1  12
BRANCH   7  19
ATOM     19  O   UNL     1       4.635   3.218  17.634  0.00  0.00    +0.000 OA
BRANCH  19  20
ATOM     20  C   UNL     1       5.222   3.968  16.637  0.00  0.00    +0.000 C 
BRANCH  20  21
ATOM     21  C   UNL     1       6.108   5.041  17.216  0.00  0.00    +0.000 A 
ATOM     22  C   UNL     1       6.992   4.724  18.267  0.00  0.00    +0.000 A 
ATOM     23  C   UNL     1       7.833   5.700  18.806  0.00  0.00    +0.000 A 
ATOM     24  C   UNL     1       7.801   7.002  18.307  0.00  0.00    +0.000 A 
ATOM     25  C   UNL     1       6.928   7.331  17.267  0.00  0.00    +0.000 A 
ATOM     26  C   UNL     1       6.084   6.359  16.715  0.00  0.00    +0.000 A 
ATOM     27 CL   UNL     1       5.013   6.829  15.399  0.00  0.00    +0.000 Cl
ENDBRANCH  20  21
ENDBRANCH  19  20
ENDBRANCH   7  19
TORSDOF 5
ENDMDL
MODEL 4
REMARK VINA RESULT:      -8.4      0.342      1.003
REMARK  Name = 
REMARK  5 active torsions:
REMARK  status: ('A' for Active; 'I' for Inactive)
REMARK    1  A    between atoms: C_2  and  C_5
REMARK    2  A    between atoms: C_8  and  C_9
REMARK    3  A    between atoms: N_15  and  O_16
REMARK    4  A    between atoms: O_16  and  C_17
REMARK    5  A    between atoms: C_17  and  C_18
REMARK                            x       y       z     vdW  Elec       q    Type
REMARK                         _______ _______ _______ _____ _____    ______ ____
ROOT
ATOM      1  C   UNL     1       4.020   5.699  17.417  0.00  0.00    +0.000 C 
ATOM      2  C   UNL     1       4.851   6.525  16.425  0.00  0.00    +0.000 C 
ATOM      3  C   UNL     1       5.923   7.352  17.157  0.00  0.00    +0.000 C 
ATOM      4  N   UNL     1       6.851   6.480  17.907  0.00  0.00    +0.000 NA
ATOM      5  C   UNL     1       6.212   5.524  18.834  0.00  0.00    +0.000 C 
ATOM      6  C   UNL     1       5.044   4.843  18.165  0.00  0.00    +0.000 C 
ATOM      7  N   UNL     1       5.104   3.557  18.049  0.00  0.00    +0.000 NA
ATOM      8  H   UNL     1       7.513   7.083  18.450  0.00  0.00    +0.000 HD
ENDROOT
BRANCH   1  12
ATOM      9  C   UNL     1       1.578   8.534  19.718  0.00  0.00    +0.000 A 
ATOM     10  C   UNL     1       1.944   8.794  18.387  0.00  0.00    +0.000 A 
ATOM     11  C   UNL     1       2.688   7.854  17.653  0.00  0.00    +0.000 A 
ATOM     12  C   UNL     1       3.094   6.632  18.233  0.00  0.00    +0.000 A 
ATOM     13  C   UNL     1       2.705   6.398  19.571  0.00  0.00    +0.000 A 
ATOM     14  C   UNL     1       1.958   7.319  20.291  0.00  0.00    +0.000 A 
BRANCH   9  16
ATOM     15  F   UNL     1       1.484   9.823  21.732  0.00  0.00    +0.000 F 
ATOM     16  C   UNL     1       0.816   9.524  20.560  0.00  0.00    +0.000 C 
ATOM     17  F   UNL     1      -0.416   8.987  20.885  0.00  0.00    +0.000 F 
ATOM     18  F   UNL     1       0.622  10.693  19.844  0.00  0.00    +0.000 F 
ENDBRANCH   9  16
ENDBRANCH   1  12
BRANCH   7  19
ATOM     19  O   UNL     1       4.274   2.845  17.321  0.00  0.00    +0.000 OA
BRANCH  19  20
ATOM     20  C   UNL     1       3.541   1.847  17.927  0.00  0.00    +0.000 C 
BRANCH  20  21
ATOM     21  C   UNL     1       2.734   2.390  19.078  0.00  0.00    +0.000 A 
ATOM     22  C   UNL     1       1.452   2.924  18.841  0.00  0.00    +0.000 A 
ATOM     23  C   UNL     1       0.682   3.417  19.897  0.00  0.00    +0.000 A 
ATOM     24  C   UNL     1       1.181   3.387  21.199  0.00  0.00    +0.000 A 
ATOM     25  C   UNL     1       2.451   2.862  21.448  0.00  0.00    +0.000 A 
ATOM     26  C   UNL     1       3.231   2.360  20.398  0.00  0.00    +0.000 A 
ATOM     27 CL   UNL     1       4.819   1.702  20.774  0.00  0.00    +0.000 Cl
ENDBRANCH  20  21
ENDBRANCH  19  20
ENDBRANCH   7  19
TORSDOF 5
ENDMDL
MODEL 5
REMARK VINA RESULT:      -8.2      2.205      4.586
REMARK  Name = 
REMARK  5 active torsions:
REMARK  status: ('A' for Active; 'I' for Inactive)
REMARK    1  A    between atoms: C_2  and  C_5
REMARK    2  A    between atoms: C_8  and  C_9
REMARK    3  A    between atoms: N_15  and  O_16
REMARK    4  A    between atoms: O_16  and  C_17
REMARK    5  A    between atoms: C_17  and  C_18
REMARK                            x       y       z     vdW  Elec       q    Type
REMARK                         _______ _______ _______ _____ _____    ______ ____
ROOT
ATOM      1  C   UNL     1       3.077   4.888  19.268  0.00  0.00    +0.000 C 
ATOM      2  C   UNL     1       2.676   4.328  20.639  0.00  0.00    +0.000 C 
ATOM      3  C   UNL     1       1.153   4.131  20.731  0.00  0.00    +0.000 C 
ATOM      4  N   UNL     1       0.672   3.188  19.699  0.00  0.00    +0.000 NA
ATOM      5  C   UNL     1       1.070   3.509  18.313  0.00  0.00    +0.000 C 
ATOM      6  C   UNL     1       2.532   3.877  18.258  0.00  0.00    +0.000 C 
ATOM      7  N   UNL     1       3.295   3.136  17.523  0.00  0.00    +0.000 NA
ATOM      8  H   UNL     1      -0.373   3.143  19.747  0.00  0.00    +0.000 HD
ENDROOT
BRANCH   1  12
ATOM      9  C   UNL     1       1.570   9.006  19.004  0.00  0.00    +0.000 A 
ATOM     10  C   UNL     1       1.541   8.291  20.213  0.00  0.00    +0.000 A 
ATOM     11  C   UNL     1       2.069   6.991  20.288  0.00  0.00    +0.000 A 
ATOM     12  C   UNL     1       2.633   6.367  19.153  0.00  0.00    +0.000 A 
ATOM     13  C   UNL     1       2.653   7.114  17.954  0.00  0.00    +0.000 A 
ATOM     14  C   UNL     1       2.145   8.404  17.884  0.00  0.00    +0.000 A 
BRANCH   9  16
ATOM     15  F   UNL     1       1.852  11.251  18.225  0.00  0.00    +0.000 F 
ATOM     16  C   UNL     1       0.982  10.385  18.861  0.00  0.00    +0.000 C 
ATOM     17  F   UNL     1       0.705  10.892  20.118  0.00  0.00    +0.000 F 
ATOM     18  F   UNL     1      -0.194  10.319  18.134  0.00  0.00    +0.000 F 
ENDBRANCH   9  16
ENDBRANCH   1  12
BRANCH   7  19
ATOM     19  O   UNL     1       4.607   3.200  17.528  0.00  0.00    +0.000 OA
BRANCH  19  20
ATOM     20  C   UNL     1       5.244   3.937  16.552  0.00  0.00    +0.000 C 
BRANCH  20  21
ATOM     21  C   UNL     1       6.115   5.005  17.162  0.00  0.00    +0.000 A 
ATOM     22  C   UNL     1       6.982   4.677  18.224  0.00  0.00    +0.000 A 
ATOM     23  C   UNL     1       7.809   5.648  18.790  0.00  0.00    +0.000 A 
ATOM     24  C   UNL     1       7.780   6.957  18.310  0.00  0.00    +0.000 A 
ATOM     25  C   UNL     1       6.925   7.297  17.260  0.00  0.00    +0.000 A 
ATOM     26  C   UNL     1       6.094   6.330  16.680  0.00  0.00    +0.000 A 
ATOM     27 CL   UNL     1       5.045   6.814  15.352  0.00  0.00    +0.000 Cl
ENDBRANCH  20  21
ENDBRANCH  19  20
ENDBRANCH   7  19
TORSDOF 5
ENDMDL
MODEL 6
REMARK VINA RESULT:      -8.2      1.181      1.834
REMARK  Name = 
REMARK  5 active torsions:
REMARK  status: ('A' for Active; 'I' for Inactive)
REMARK    1  A    between atoms: C_2  and  C_5
REMARK    2  A    between atoms: C_8  and  C_9
REMARK    3  A    between atoms: N_15  and  O_16
REMARK    4  A    between atoms: O_16  and  C_17
REMARK    5  A    between atoms: C_17  and  C_18
REMARK                            x       y       z     vdW  Elec       q    Type
REMARK                         _______ _______ _______ _____ _____    ______ ____
ROOT
ATOM      1  C   UNL     1       4.099   5.772  17.391  0.00  0.00    +0.000 C 
ATOM      2  C   UNL     1       5.045   6.526  16.446  0.00  0.00    +0.000 C 
ATOM      3  C   UNL     1       6.089   7.333  17.238  0.00  0.00    +0.000 C 
ATOM      4  N   UNL     1       6.912   6.451  18.092  0.00  0.00    +0.000 NA
ATOM      5  C   UNL     1       6.156   5.557  18.993  0.00  0.00    +0.000 C 
ATOM      6  C   UNL     1       5.018   4.902  18.251  0.00  0.00    +0.000 C 
ATOM      7  N   UNL     1       5.030   3.611  18.183  0.00  0.00    +0.000 NA
ATOM      8  H   UNL     1       7.553   7.045  18.667  0.00  0.00    +0.000 HD
ENDROOT
BRANCH   1  12
ATOM      9  C   UNL     1       1.591   8.800  19.349  0.00  0.00    +0.000 A 
ATOM     10  C   UNL     1       1.941   8.904  17.992  0.00  0.00    +0.000 A 
ATOM     11  C   UNL     1       2.707   7.902  17.373  0.00  0.00    +0.000 A 
ATOM     12  C   UNL     1       3.151   6.772  18.095  0.00  0.00    +0.000 A 
ATOM     13  C   UNL     1       2.777   6.694  19.455  0.00  0.00    +0.000 A 
ATOM     14  C   UNL     1       2.008   7.676  20.063  0.00  0.00    +0.000 A 
BRANCH   9  16
ATOM     15  F   UNL     1       0.791   9.656  21.435  0.00  0.00    +0.000 F 
ATOM     16  C   UNL     1       0.805   9.864  20.069  0.00  0.00    +0.000 C 
ATOM     17  F   UNL     1      -0.499   9.853  19.612  0.00  0.00    +0.000 F 
ATOM     18  F   UNL     1       1.360  11.108  19.813  0.00  0.00    +0.000 F 
ENDBRANCH   9  16
ENDBRANCH   1  12
BRANCH   7  19
ATOM     19  O   UNL     1       4.231   2.908  17.412  0.00  0.00    +0.000 OA
BRANCH  19  20
ATOM     20  C   UNL     1       3.441   1.933  17.981  0.00  0.00    +0.000 C 
BRANCH  20  21
ATOM     21  C   UNL     1       2.691   2.471  19.173  0.00  0.00    +0.000 A 
ATOM     22  C   UNL     1       3.082   2.094  20.473  0.00  0.00    +0.000 A 
ATOM     23  C   UNL     1       2.411   2.595  21.589  0.00  0.00    +0.000 A 
ATOM     24  C   UNL     1       1.341   3.474  21.425  0.00  0.00    +0.000 A 
ATOM     25  C   UNL     1       0.941   3.855  20.142  0.00  0.00    +0.000 A 
ATOM     26  C   UNL     1       1.610   3.363  19.014  0.00  0.00    +0.000 A 
ATOM     27 CL   UNL     1       1.068   3.886  17.424  0.00  0.00    +0.000 Cl
ENDBRANCH  20  21
ENDBRANCH  19  20
ENDBRANCH   7  19
TORSDOF 5
ENDMDL
MODEL 7
REMARK VINA RESULT:      -8.1      2.142      4.944
REMARK  Name = 
REMARK  5 active torsions:
REMARK  status: ('A' for Active; 'I' for Inactive)
REMARK    1  A    between atoms: C_2  and  C_5
REMARK    2  A    between atoms: C_8  and  C_9
REMARK    3  A    between atoms: N_15  and  O_16
REMARK    4  A    between atoms: O_16  and  C_17
REMARK    5  A    between atoms: C_17  and  C_18
REMARK                            x       y       z     vdW  Elec       q    Type
REMARK                         _______ _______ _______ _____ _____    ______ ____
ROOT
ATOM      1  C   UNL     1       3.101   5.222  19.764  0.00  0.00    +0.000 C 
ATOM      2  C   UNL     1       2.348   4.492  20.885  0.00  0.00    +0.000 C 
ATOM      3  C   UNL     1       0.962   4.024  20.407  0.00  0.00    +0.000 C 
ATOM      4  N   UNL     1       1.076   3.097  19.261  0.00  0.00    +0.000 NA
ATOM      5  C   UNL     1       1.877   3.592  18.123  0.00  0.00    +0.000 C 
ATOM      6  C   UNL     1       3.160   4.214  18.614  0.00  0.00    +0.000 C 
ATOM      7  N   UNL     1       4.265   3.679  18.205  0.00  0.00    +0.000 NA
ATOM      8  H   UNL     1       0.114   2.866  18.920  0.00  0.00    +0.000 HD
ENDROOT
BRANCH   1  12
ATOM      9  C   UNL     1       1.504   9.240  18.991  0.00  0.00    +0.000 A 
ATOM     10  C   UNL     1       2.176   8.514  17.993  0.00  0.00    +0.000 A 
ATOM     11  C   UNL     1       2.640   7.212  18.246  0.00  0.00    +0.000 A 
ATOM     12  C   UNL     1       2.452   6.603  19.507  0.00  0.00    +0.000 A 
ATOM     13  C   UNL     1       1.768   7.357  20.487  0.00  0.00    +0.000 A 
ATOM     14  C   UNL     1       1.296   8.637  20.232  0.00  0.00    +0.000 A 
BRANCH   9  16
ATOM     15  F   UNL     1      -0.203  10.687  18.144  0.00  0.00    +0.000 F 
ATOM     16  C   UNL     1       1.022  10.652  18.783  0.00  0.00    +0.000 C 
ATOM     17  F   UNL     1       1.939  11.334  18.005  0.00  0.00    +0.000 F 
ATOM     18  F   UNL     1       0.906  11.291  20.006  0.00  0.00    +0.000 F 
ENDBRANCH   9  16
ENDBRANCH   1  12
BRANCH   7  19
ATOM     19  O   UNL     1       5.449   3.971  18.694  0.00  0.00    +0.000 OA
BRANCH  19  20
ATOM     20  C   UNL     1       6.496   4.185  17.824  0.00  0.00    +0.000 C 
BRANCH  20  21
ATOM     21  C   UNL     1       6.952   5.621  17.868  0.00  0.00    +0.000 A 
ATOM     22  C   UNL     1       7.950   6.009  18.785  0.00  0.00    +0.000 A 
ATOM     23  C   UNL     1       8.398   7.330  18.829  0.00  0.00    +0.000 A 
ATOM     24  C   UNL     1       7.856   8.281  17.965  0.00  0.00    +0.000 A 
ATOM     25  C   UNL     1       6.865   7.912  17.052  0.00  0.00    +0.000 A 
ATOM     26  C   UNL     1       6.411   6.587  16.995  0.00  0.00    +0.000 A 
ATOM     27 CL   UNL     1       5.169   6.178  15.818  0.00  0.00    +0.000 Cl
ENDBRANCH  20  21
ENDBRANCH  19  20
ENDBRANCH   7  19
TORSDOF 5
ENDMDL
MODEL 8
REMARK VINA RESULT:      -8.0      1.197      1.529
REMARK  Name = 
REMARK  5 active torsions:
REMARK  status: ('A' for Active; 'I' for Inactive)
REMARK    1  A    between atoms: C_2  and  C_5
REMARK    2  A    between atoms: C_8  and  C_9
REMARK    3  A    between atoms: N_15  and  O_16
REMARK    4  A    between atoms: O_16  and  C_17
REMARK    5  A    between atoms: C_17  and  C_18
REMARK                            x       y       z     vdW  Elec       q    Type
REMARK                         _______ _______ _______ _____ _____    ______ ____
ROOT
ATOM      1  C   UNL     1       4.659   5.450  17.816  0.00  0.00    +0.000 C 
ATOM      2  C   UNL     1       5.378   5.901  16.537  0.00  0.00    +0.000 C 
ATOM      3  C   UNL     1       6.411   6.999  16.842  0.00  0.00    +0.000 C 
ATOM      4  N   UNL     1       7.437   6.521  17.792  0.00  0.00    +0.000 NA
ATOM      5  C   UNL     1       6.916   5.937  19.045  0.00  0.00    +0.000 C 
ATOM      6  C   UNL     1       5.779   4.991  18.752  0.00  0.00    +0.000 C 
ATOM      7  N   UNL     1       5.935   3.758  19.108  0.00  0.00    +0.000 NA
ATOM      8  H   UNL     1       8.071   7.318  18.030  0.00  0.00    +0.000 HD
ENDROOT
BRANCH   1  12
ATOM      9  C   UNL     1       1.734   8.425  19.192  0.00  0.00    +0.000 A 
ATOM     10  C   UNL     1       2.082   7.318  19.984  0.00  0.00    +0.000 A 
ATOM     11  C   UNL     1       3.052   6.402  19.546  0.00  0.00    +0.000 A 
ATOM     12  C   UNL     1       3.697   6.563  18.299  0.00  0.00    +0.000 A 
ATOM     13  C   UNL     1       3.330   7.688  17.529  0.00  0.00    +0.000 A 
ATOM     14  C   UNL     1       2.382   8.602  17.968  0.00  0.00    +0.000 A 
BRANCH   9  16
ATOM     15  F   UNL     1       1.220  10.614  20.011  0.00  0.00    +0.000 F 
ATOM     16  C   UNL     1       0.673   9.414  19.598  0.00  0.00    +0.000 C 
ATOM     17  F   UNL     1      -0.062   8.886  20.643  0.00  0.00    +0.000 F 
ATOM     18  F   UNL     1      -0.175   9.654  18.529  0.00  0.00    +0.000 F 
ENDBRANCH   9  16
ENDBRANCH   1  12
BRANCH   7  19
ATOM     19  O   UNL     1       5.134   2.781  18.749  0.00  0.00    +0.000 OA
BRANCH  19  20
ATOM     20  C   UNL     1       4.460   2.077  19.724  0.00  0.00    +0.000 C 
BRANCH  20  21
ATOM     21  C   UNL     1       3.074   2.632  19.933  0.00  0.00    +0.000 A 
ATOM     22  C   UNL     1       2.653   2.987  21.230  0.00  0.00    +0.000 A 
ATOM     23  C   UNL     1       1.380   3.520  21.441  0.00  0.00    +0.000 A 
ATOM     24  C   UNL     1       0.510   3.701  20.366  0.00  0.00    +0.000 A 
ATOM     25  C   UNL     1       0.914   3.352  19.075  0.00  0.00    +0.000 A 
ATOM     26  C   UNL     1       2.192   2.822  18.850  0.00  0.00    +0.000 A 
ATOM     27 CL   UNL     1       2.649   2.410  17.201  0.00  0.00    +0.000 Cl
ENDBRANCH  20  21
ENDBRANCH  19  20
ENDBRANCH   7  19
TORSDOF 5
ENDMDL
MODEL 9
REMARK VINA RESULT:      -8.0      2.124      4.814
REMARK  Name = 
REMARK  5 active torsions:
REMARK  status: ('A' for Active; 'I' for Inactive)
REMARK    1  A    between atoms: C_2  and  C_5
REMARK    2  A    between atoms: C_8  and  C_9
REMARK    3  A    between atoms: N_15  and  O_16
REMARK    4  A    between atoms: O_16  and  C_17
REMARK    5  A    between atoms: C_17  and  C_18
REMARK                            x       y       z     vdW  Elec       q    Type
REMARK                         _______ _______ _______ _____ _____    ______ ____
ROOT
ATOM      1  C   UNL     1       3.169   5.325  19.734  0.00  0.00    +0.000 C 
ATOM      2  C   UNL     1       2.375   4.640  20.854  0.00  0.00    +0.000 C 
ATOM      3  C   UNL     1       0.977   4.223  20.365  0.00  0.00    +0.000 C 
ATOM      4  N   UNL     1       1.066   3.279  19.232  0.00  0.00    +0.000 NA
ATOM      5  C   UNL     1       1.899   3.728  18.097  0.00  0.00    +0.000 C 
ATOM      6  C   UNL     1       3.201   4.303  18.596  0.00  0.00    +0.000 C 
ATOM      7  N   UNL     1       4.287   3.719  18.207  0.00  0.00    +0.000 NA
ATOM      8  H   UNL     1       0.099   3.083  18.882  0.00  0.00    +0.000 HD
ENDROOT
BRANCH   1  12
ATOM      9  C   UNL     1       1.259   9.213  19.005  0.00  0.00    +0.000 A 
ATOM     10  C   UNL     1       1.256   8.622  20.279  0.00  0.00    +0.000 A 
ATOM     11  C   UNL     1       1.911   7.400  20.503  0.00  0.00    +0.000 A 
ATOM     12  C   UNL     1       2.581   6.729  19.455  0.00  0.00    +0.000 A 
ATOM     13  C   UNL     1       2.571   7.351  18.187  0.00  0.00    +0.000 A 
ATOM     14  C   UNL     1       1.937   8.567  17.970  0.00  0.00    +0.000 A 
BRANCH   9  16
ATOM     15  F   UNL     1      -0.058  11.032  19.832  0.00  0.00    +0.000 F 
ATOM     16  C   UNL     1       0.540  10.502  18.704  0.00  0.00    +0.000 C 
ATOM     17  F   UNL     1      -0.443  10.263  17.761  0.00  0.00    +0.000 F 
ATOM     18  F   UNL     1       1.434  11.429  18.196  0.00  0.00    +0.000 F 
ENDBRANCH   9  16
ENDBRANCH   1  12
BRANCH   7  19
ATOM     19  O   UNL     1       5.476   3.968  18.706  0.00  0.00    +0.000 OA
BRANCH  19  20
ATOM     20  C   UNL     1       6.530   4.187  17.844  0.00  0.00    +0.000 C 
BRANCH  20  21
ATOM     21  C   UNL     1       6.962   5.631  17.874  0.00  0.00    +0.000 A 
ATOM     22  C   UNL     1       7.964   6.041  18.777  0.00  0.00    +0.000 A 
ATOM     23  C   UNL     1       8.390   7.371  18.808  0.00  0.00    +0.000 A 
ATOM     24  C   UNL     1       7.822   8.307  17.943  0.00  0.00    +0.000 A 
ATOM     25  C   UNL     1       6.827   7.915  17.045  0.00  0.00    +0.000 A 
ATOM     26  C   UNL     1       6.395   6.582  17.001  0.00  0.00    +0.000 A 
ATOM     27 CL   UNL     1       5.147   6.144  15.841  0.00  0.00    +0.000 Cl
ENDBRANCH  20  21
ENDBRANCH  19  20
ENDBRANCH   7  19
TORSDOF 5
ENDMDL
