MODEL 1
REMARK VINA RESULT:      -6.7      0.000      0.000
REMARK  Name = 
REMARK  5 active torsions:
REMARK  status: ('A' for Active; 'I' for Inactive)
REMARK    1  A    between atoms: C_1  and  C_2
REMARK    2  A    between atoms: C_2  and  O_3
REMARK    3  A    between atoms: O_3  and  C_4
REMARK    4  A    between atoms: C_4  and  C_6
REMARK    5  A    between atoms: C_7  and  N_8
REMARK                            x       y       z     vdW  Elec       q    Type
REMARK                         _______ _______ _______ _____ _____    ______ ____
ROOT
ATOM      1  C   UNL     1       3.867   4.791  18.503  0.00  0.00    +0.000 A 
ATOM      2  C   UNL     1       4.427   5.493  17.442  0.00  0.00    +0.000 A 
ATOM      3  S   UNL     1       3.876   7.099  17.312  0.00  0.00    +0.000 S 
ATOM      4  C   UNL     1       2.887   6.926  18.671  0.00  0.00    +0.000 A 
ATOM      5  C   UNL     1       2.974   5.674  19.249  0.00  0.00    +0.000 A 
ATOM      6  C   UNL     1       2.270   5.386  20.553  0.00  0.00    +0.000 C 
ATOM      7  C   UNL     1       1.168   6.413  20.850  0.00  0.00    +0.000 C 
ATOM      8  C   UNL     1       1.619   7.854  20.601  0.00  0.00    +0.000 C 
ATOM      9  C   UNL     1       2.099   8.040  19.173  0.00  0.00    +0.000 C 
ATOM     10  O   UNL     1       1.874   9.082  18.560  0.00  0.00    +0.000 OA
ENDROOT
BRANCH   2  11
ATOM     11  N   UNL     1       5.330   5.068  16.460  0.00  0.00    +0.000 N 
ATOM     12  C   UNL     1       6.664   5.420  16.349  0.00  0.00    +0.000 A 
ATOM     13  C   UNL     1       7.204   4.839  15.223  0.00  0.00    +0.000 A 
ATOM     14  C   UNL     1       6.187   4.075  14.619  0.00  0.00    +0.000 A 
ATOM     15  C   UNL     1       5.070   4.190  15.416  0.00  0.00    +0.000 A 
ENDBRANCH   2  11
BRANCH   1  16
ATOM     16  C   UNL     1       4.245   3.421  18.874  0.00  0.00    +0.000 C 
ATOM     17  O   UNL     1       5.154   3.160  19.650  0.00  0.00    +0.000 OA
BRANCH  16  18
ATOM     18  O   UNL     1       3.479   2.473  18.259  0.00  0.00    +0.000 OA
BRANCH  18  20
ATOM     19  C   UNL     1       1.081   2.431  18.651  0.00  0.00    +0.000 C 
ATOM     20  C   UNL     1       2.438   1.893  19.067  0.00  0.00    +0.000 C 
ENDBRANCH  18  20
ENDBRANCH  16  18
ENDBRANCH   1  16
TORSDOF 4
ENDMDL
MODEL 2
REMARK VINA RESULT:      -6.6      2.491      3.864
REMARK  Name = 
REMARK  5 active torsions:
REMARK  status: ('A' for Active; 'I' for Inactive)
REMARK    1  A    between atoms: C_1  and  C_2
REMARK    2  A    between atoms: C_2  and  O_3
REMARK    3  A    between atoms: O_3  and  C_4
REMARK    4  A    between atoms: C_4  and  C_6
REMARK    5  A    between atoms: C_7  and  N_8
REMARK                            x       y       z     vdW  Elec       q    Type
REMARK                         _______ _______ _______ _____ _____    ______ ____
ROOT
ATOM      1  C   UNL     1       4.558   4.426  18.613  0.00  0.00    +0.000 A 
ATOM      2  C   UNL     1       4.303   4.168  17.271  0.00  0.00    +0.000 A 
ATOM      3  S   UNL     1       2.791   3.438  16.986  0.00  0.00    +0.000 S 
ATOM      4  C   UNL     1       2.413   3.453  18.633  0.00  0.00    +0.000 A 
ATOM      5  C   UNL     1       3.402   4.025  19.411  0.00  0.00    +0.000 A 
ATOM      6  C   UNL     1       3.176   4.252  20.886  0.00  0.00    +0.000 C 
ATOM      7  C   UNL     1       2.016   3.403  21.427  0.00  0.00    +0.000 C 
ATOM      8  C   UNL     1       0.787   3.431  20.517  0.00  0.00    +0.000 C 
ATOM      9  C   UNL     1       1.132   2.964  19.114  0.00  0.00    +0.000 C 
ATOM     10  O   UNL     1       0.339   2.290  18.459  0.00  0.00    +0.000 OA
ENDROOT
BRANCH   2  11
ATOM     11  N   UNL     1       5.108   4.381  16.146  0.00  0.00    +0.000 N 
ATOM     12  C   UNL     1       5.169   5.527  15.372  0.00  0.00    +0.000 A 
ATOM     13  C   UNL     1       6.042   5.331  14.324  0.00  0.00    +0.000 A 
ATOM     14  C   UNL     1       6.567   4.032  14.456  0.00  0.00    +0.000 A 
ATOM     15  C   UNL     1       6.023   3.491  15.598  0.00  0.00    +0.000 A 
ENDBRANCH   2  11
BRANCH   1  16
ATOM     16  C   UNL     1       5.752   5.127  19.104  0.00  0.00    +0.000 C 
ATOM     17  O   UNL     1       6.424   4.733  20.048  0.00  0.00    +0.000 OA
BRANCH  16  18
ATOM     18  O   UNL     1       6.028   6.263  18.400  0.00  0.00    +0.000 OA
BRANCH  18  20
ATOM     19  C   UNL     1       7.616   7.861  17.488  0.00  0.00    +0.000 C 
ATOM     20  C   UNL     1       7.416   6.481  18.089  0.00  0.00    +0.000 C 
ENDBRANCH  18  20
ENDBRANCH  16  18
ENDBRANCH   1  16
TORSDOF 4
ENDMDL
MODEL 3
REMARK VINA RESULT:      -6.3      2.107      5.232
REMARK  Name = 
REMARK  5 active torsions:
REMARK  status: ('A' for Active; 'I' for Inactive)
REMARK    1  A    between atoms: C_1  and  C_2
REMARK    2  A    between atoms: C_2  and  O_3
REMARK    3  A    between atoms: O_3  and  C_4
REMARK    4  A    between atoms: C_4  and  C_6
REMARK    5  A    between atoms: C_7  and  N_8
REMARK                            x       y       z     vdW  Elec       q    Type
REMARK                         _______ _______ _______ _____ _____    ______ ____
ROOT
ATOM      1  C   UNL     1       3.226   5.211  17.794  0.00  0.00    +0.000 A 
ATOM      2  C   UNL     1       3.362   6.523  18.236  0.00  0.00    +0.000 A 
ATOM      3  S   UNL     1       4.821   7.261  17.761  0.00  0.00    +0.000 S 
ATOM      4  C   UNL     1       5.318   5.872  16.936  0.00  0.00    +0.000 A 
ATOM      5  C   UNL     1       4.390   4.849  16.988  0.00  0.00    +0.000 A 
ATOM      6  C   UNL     1       4.601   3.586  16.189  0.00  0.00    +0.000 C 
ATOM      7  C   UNL     1       6.065   3.420  15.755  0.00  0.00    +0.000 C 
ATOM      8  C   UNL     1       6.668   4.711  15.197  0.00  0.00    +0.000 C 
ATOM      9  C   UNL     1       6.575   5.841  16.207  0.00  0.00    +0.000 C 
ATOM     10  O   UNL     1       7.478   6.668  16.315  0.00  0.00    +0.000 OA
ENDROOT
BRANCH   2  11
ATOM     11  N   UNL     1       2.509   7.295  19.032  0.00  0.00    +0.000 N 
ATOM     12  C   UNL     1       1.882   8.477  18.675  0.00  0.00    +0.000 A 
ATOM     13  C   UNL     1       1.166   8.963  19.747  0.00  0.00    +0.000 A 
ATOM     14  C   UNL     1       1.325   8.047  20.805  0.00  0.00    +0.000 A 
ATOM     15  C   UNL     1       2.105   7.016  20.332  0.00  0.00    +0.000 A 
ENDBRANCH   2  11
BRANCH   1  16
ATOM     16  C   UNL     1       2.024   4.394  18.000  0.00  0.00    +0.000 C 
ATOM     17  O   UNL     1       1.042   4.443  17.270  0.00  0.00    +0.000 OA
BRANCH  16  18
ATOM     18  O   UNL     1       2.115   3.581  19.093  0.00  0.00    +0.000 OA
BRANCH  18  20
ATOM     19  C   UNL     1       1.312   2.852  21.268  0.00  0.00    +0.000 C 
ATOM     20  C   UNL     1       1.007   3.645  20.010  0.00  0.00    +0.000 C 
ENDBRANCH  18  20
ENDBRANCH  16  18
ENDBRANCH   1  16
TORSDOF 4
ENDMDL
MODEL 4
REMARK VINA RESULT:      -6.3      2.338      4.008
REMARK  Name = 
REMARK  5 active torsions:
REMARK  status: ('A' for Active; 'I' for Inactive)
REMARK    1  A    between atoms: C_1  and  C_2
REMARK    2  A    between atoms: C_2  and  O_3
REMARK    3  A    between atoms: O_3  and  C_4
REMARK    4  A    between atoms: C_4  and  C_6
REMARK    5  A    between atoms: C_7  and  N_8
REMARK                            x       y       z     vdW  Elec       q    Type
REMARK                         _______ _______ _______ _____ _____    ______ ____
ROOT
ATOM      1  C   UNL     1       4.412   4.329  17.451  0.00  0.00    +0.000 A 
ATOM      2  C   UNL     1       4.904   5.356  18.249  0.00  0.00    +0.000 A 
ATOM      3  S   UNL     1       3.912   5.729  19.581  0.00  0.00    +0.000 S 
ATOM      4  C   UNL     1       2.800   4.528  19.157  0.00  0.00    +0.000 A 
ATOM      5  C   UNL     1       3.170   3.821  18.028  0.00  0.00    +0.000 A 
ATOM      6  C   UNL     1       2.371   2.620  17.586  0.00  0.00    +0.000 C 
ATOM      7  C   UNL     1       0.969   2.600  18.212  0.00  0.00    +0.000 C 
ATOM      8  C   UNL     1       0.984   2.919  19.708  0.00  0.00    +0.000 C 
ATOM      9  C   UNL     1       1.629   4.267  19.976  0.00  0.00    +0.000 C 
ATOM     10  O   UNL     1       1.202   5.007  20.860  0.00  0.00    +0.000 OA
ENDROOT
BRANCH   2  11
ATOM     11  N   UNL     1       6.054   6.139  18.097  0.00  0.00    +0.000 N 
ATOM     12  C   UNL     1       7.253   5.997  18.774  0.00  0.00    +0.000 A 
ATOM     13  C   UNL     1       8.126   6.990  18.384  0.00  0.00    +0.000 A 
ATOM     14  C   UNL     1       7.466   7.767  17.413  0.00  0.00    +0.000 A 
ATOM     15  C   UNL     1       6.226   7.202  17.218  0.00  0.00    +0.000 A 
ENDBRANCH   2  11
BRANCH   1  16
ATOM     16  C   UNL     1       5.126   3.770  16.296  0.00  0.00    +0.000 C 
ATOM     17  O   UNL     1       5.666   2.672  16.305  0.00  0.00    +0.000 OA
BRANCH  16  18
ATOM     18  O   UNL     1       5.129   4.606  15.217  0.00  0.00    +0.000 OA
BRANCH  18  20
ATOM     19  C   UNL     1       6.064   3.762  13.138  0.00  0.00    +0.000 C 
ATOM     20  C   UNL     1       6.315   4.566  14.402  0.00  0.00    +0.000 C 
ENDBRANCH  18  20
ENDBRANCH  16  18
ENDBRANCH   1  16
TORSDOF 4
ENDMDL
MODEL 5
REMARK VINA RESULT:      -6.2      1.013      1.013
REMARK  Name = 
REMARK  5 active torsions:
REMARK  status: ('A' for Active; 'I' for Inactive)
REMARK    1  A    between atoms: C_1  and  C_2
REMARK    2  A    between atoms: C_2  and  O_3
REMARK    3  A    between atoms: O_3  and  C_4
REMARK    4  A    between atoms: C_4  and  C_6
REMARK    5  A    between atoms: C_7  and  N_8
REMARK                            x       y       z     vdW  Elec       q    Type
REMARK                         _______ _______ _______ _____ _____    ______ ____
ROOT
ATOM      1  C   UNL     1       3.688   5.215  18.813  0.00  0.00    +0.000 A 
ATOM      2  C   UNL     1       4.258   5.748  17.662  0.00  0.00    +0.000 A 
ATOM      3  S   UNL     1       3.705   7.311  17.279  0.00  0.00    +0.000 S 
ATOM      4  C   UNL     1       2.700   7.347  18.638  0.00  0.00    +0.000 A 
ATOM      5  C   UNL     1       2.784   6.199  19.404  0.00  0.00    +0.000 A 
ATOM      6  C   UNL     1       2.066   6.113  20.729  0.00  0.00    +0.000 C 
ATOM      7  C   UNL     1       0.958   7.169  20.852  0.00  0.00    +0.000 C 
ATOM      8  C   UNL     1       1.408   8.556  20.388  0.00  0.00    +0.000 C 
ATOM      9  C   UNL     1       1.904   8.521  18.953  0.00  0.00    +0.000 C 
ATOM     10  O   UNL     1       1.683   9.455  18.185  0.00  0.00    +0.000 OA
ENDROOT
BRANCH   2  11
ATOM     11  N   UNL     1       5.173   5.180  16.768  0.00  0.00    +0.000 N 
ATOM     12  C   UNL     1       6.492   5.555  16.578  0.00  0.00    +0.000 A 
ATOM     13  C   UNL     1       7.050   4.793  15.575  0.00  0.00    +0.000 A 
ATOM     14  C   UNL     1       6.061   3.891  15.137  0.00  0.00    +0.000 A 
ATOM     15  C   UNL     1       4.944   4.111  15.910  0.00  0.00    +0.000 A 
ENDBRANCH   2  11
BRANCH   1  16
ATOM     16  C   UNL     1       4.065   3.921  19.396  0.00  0.00    +0.000 C 
ATOM     17  O   UNL     1       5.221   3.604  19.641  0.00  0.00    +0.000 OA
BRANCH  16  18
ATOM     18  O   UNL     1       2.992   3.110  19.628  0.00  0.00    +0.000 OA
BRANCH  18  20
ATOM     19  C   UNL     1       1.547   2.697  21.539  0.00  0.00    +0.000 C 
ATOM     20  C   UNL     1       2.931   2.519  20.939  0.00  0.00    +0.000 C 
ENDBRANCH  18  20
ENDBRANCH  16  18
ENDBRANCH   1  16
TORSDOF 4
ENDMDL
MODEL 6
REMARK VINA RESULT:      -6.2      2.633      4.519
REMARK  Name = 
REMARK  5 active torsions:
REMARK  status: ('A' for Active; 'I' for Inactive)
REMARK    1  A    between atoms: C_1  and  C_2
REMARK    2  A    between atoms: C_2  and  O_3
REMARK    3  A    between atoms: O_3  and  C_4
REMARK    4  A    between atoms: C_4  and  C_6
REMARK    5  A    between atoms: C_7  and  N_8
REMARK                            x       y       z     vdW  Elec       q    Type
REMARK                         _______ _______ _______ _____ _____    ______ ____
ROOT
ATOM      1  C   UNL     1       5.461   4.462  17.229  0.00  0.00    +0.000 A 
ATOM      2  C   UNL     1       5.695   5.506  18.118  0.00  0.00    +0.000 A 
ATOM      3  S   UNL     1       4.587   5.571  19.408  0.00  0.00    +0.000 S 
ATOM      4  C   UNL     1       3.766   4.206  18.845  0.00  0.00    +0.000 A 
ATOM      5  C   UNL     1       4.324   3.673  17.698  0.00  0.00    +0.000 A 
ATOM      6  C   UNL     1       3.810   2.371  17.134  0.00  0.00    +0.000 C 
ATOM      7  C   UNL     1       2.415   2.023  17.672  0.00  0.00    +0.000 C 
ATOM      8  C   UNL     1       2.295   2.227  19.183  0.00  0.00    +0.000 C 
ATOM      9  C   UNL     1       2.636   3.654  19.573  0.00  0.00    +0.000 C 
ATOM     10  O   UNL     1       2.026   4.226  20.475  0.00  0.00    +0.000 OA
ENDROOT
BRANCH   2  11
ATOM     11  N   UNL     1       6.665   6.513  18.084  0.00  0.00    +0.000 N 
ATOM     12  C   UNL     1       7.838   6.563  18.818  0.00  0.00    +0.000 A 
ATOM     13  C   UNL     1       8.504   7.739  18.546  0.00  0.00    +0.000 A 
ATOM     14  C   UNL     1       7.741   8.439  17.592  0.00  0.00    +0.000 A 
ATOM     15  C   UNL     1       6.653   7.653  17.289  0.00  0.00    +0.000 A 
ENDBRANCH   2  11
BRANCH   1  16
ATOM     16  C   UNL     1       6.327   4.144  16.086  0.00  0.00    +0.000 C 
ATOM     17  O   UNL     1       7.545   4.051  16.170  0.00  0.00    +0.000 OA
BRANCH  16  18
ATOM     18  O   UNL     1       5.632   3.970  14.924  0.00  0.00    +0.000 OA
BRANCH  18  20
ATOM     19  C   UNL     1       5.773   3.363  12.575  0.00  0.00    +0.000 C 
ATOM     20  C   UNL     1       6.387   4.159  13.713  0.00  0.00    +0.000 C 
ENDBRANCH  18  20
ENDBRANCH  16  18
ENDBRANCH   1  16
TORSDOF 4
ENDMDL
MODEL 7
REMARK VINA RESULT:      -6.1      2.592      3.870
REMARK  Name = 
REMARK  5 active torsions:
REMARK  status: ('A' for Active; 'I' for Inactive)
REMARK    1  A    between atoms: C_1  and  C_2
REMARK    2  A    between atoms: C_2  and  O_3
REMARK    3  A    between atoms: O_3  and  C_4
REMARK    4  A    between atoms: C_4  and  C_6
REMARK    5  A    between atoms: C_7  and  N_8
REMARK                            x       y       z     vdW  Elec       q    Type
REMARK                         _______ _______ _______ _____ _____    ______ ____
ROOT
ATOM      1  C   UNL     1       4.421   4.215  18.628  0.00  0.00    +0.000 A 
ATOM      2  C   UNL     1       4.169   3.999  17.277  0.00  0.00    +0.000 A 
ATOM      3  S   UNL     1       2.672   3.250  16.968  0.00  0.00    +0.000 S 
ATOM      4  C   UNL     1       2.295   3.201  18.614  0.00  0.00    +0.000 A 
ATOM      5  C   UNL     1       3.274   3.764  19.412  0.00  0.00    +0.000 A 
ATOM      6  C   UNL     1       3.045   3.936  20.893  0.00  0.00    +0.000 C 
ATOM      7  C   UNL     1       1.903   3.046  21.405  0.00  0.00    +0.000 C 
ATOM      8  C   UNL     1       0.672   3.082  20.497  0.00  0.00    +0.000 C 
ATOM      9  C   UNL     1       1.024   2.671  19.079  0.00  0.00    +0.000 C 
ATOM     10  O   UNL     1       0.243   2.005  18.401  0.00  0.00    +0.000 OA
ENDROOT
BRANCH   2  11
ATOM     11  N   UNL     1       4.969   4.266  16.160  0.00  0.00    +0.000 N 
ATOM     12  C   UNL     1       5.754   3.363  15.464  0.00  0.00    +0.000 A 
ATOM     13  C   UNL     1       6.431   4.018  14.458  0.00  0.00    +0.000 A 
ATOM     14  C   UNL     1       6.042   5.370  14.505  0.00  0.00    +0.000 A 
ATOM     15  C   UNL     1       5.115   5.489  15.516  0.00  0.00    +0.000 A 
ENDBRANCH   2  11
BRANCH   1  16
ATOM     16  C   UNL     1       5.602   4.921  19.141  0.00  0.00    +0.000 C 
ATOM     17  O   UNL     1       5.540   5.842  19.945  0.00  0.00    +0.000 OA
BRANCH  16  18
ATOM     18  O   UNL     1       6.772   4.445  18.624  0.00  0.00    +0.000 OA
BRANCH  18  20
ATOM     19  C   UNL     1       7.617   6.539  17.727  0.00  0.00    +0.000 C 
ATOM     20  C   UNL     1       7.881   5.361  18.649  0.00  0.00    +0.000 C 
ENDBRANCH  18  20
ENDBRANCH  16  18
ENDBRANCH   1  16
TORSDOF 4
ENDMDL
MODEL 8
REMARK VINA RESULT:      -6.1      2.317      5.221
REMARK  Name = 
REMARK  5 active torsions:
REMARK  status: ('A' for Active; 'I' for Inactive)
REMARK    1  A    between atoms: C_1  and  C_2
REMARK    2  A    between atoms: C_2  and  O_3
REMARK    3  A    between atoms: O_3  and  C_4
REMARK    4  A    between atoms: C_4  and  C_6
REMARK    5  A    between atoms: C_7  and  N_8
REMARK                            x       y       z     vdW  Elec       q    Type
REMARK                         _______ _______ _______ _____ _____    ______ ____
ROOT
ATOM      1  C   UNL     1       2.756   5.772  19.300  0.00  0.00    +0.000 A 
ATOM      2  C   UNL     1       2.518   7.123  19.069  0.00  0.00    +0.000 A 
ATOM      3  S   UNL     1       3.364   7.751  17.732  0.00  0.00    +0.000 S 
ATOM      4  C   UNL     1       4.062   6.249  17.399  0.00  0.00    +0.000 A 
ATOM      5  C   UNL     1       3.654   5.256  18.270  0.00  0.00    +0.000 A 
ATOM      6  C   UNL     1       4.065   3.823  18.039  0.00  0.00    +0.000 C 
ATOM      7  C   UNL     1       5.268   3.716  17.091  0.00  0.00    +0.000 C 
ATOM      8  C   UNL     1       5.133   4.613  15.859  0.00  0.00    +0.000 C 
ATOM      9  C   UNL     1       4.941   6.066  16.257  0.00  0.00    +0.000 C 
ATOM     10  O   UNL     1       5.451   6.973  15.601  0.00  0.00    +0.000 OA
ENDROOT
BRANCH   2  11
ATOM     11  N   UNL     1       1.732   8.032  19.786  0.00  0.00    +0.000 N 
ATOM     12  C   UNL     1       1.162   9.199  19.306  0.00  0.00    +0.000 A 
ATOM     13  C   UNL     1       0.505   9.848  20.328  0.00  0.00    +0.000 A 
ATOM     14  C   UNL     1       0.642   9.054  21.483  0.00  0.00    +0.000 A 
ATOM     15  C   UNL     1       1.350   7.931  21.119  0.00  0.00    +0.000 A 
ENDBRANCH   2  11
BRANCH   1  16
ATOM     16  C   UNL     1       2.080   4.984  20.338  0.00  0.00    +0.000 C 
ATOM     17  O   UNL     1       2.522   4.841  21.470  0.00  0.00    +0.000 OA
BRANCH  16  18
ATOM     18  O   UNL     1       0.912   4.425  19.905  0.00  0.00    +0.000 OA
BRANCH  18  20
ATOM     19  C   UNL     1       0.787   2.311  18.711  0.00  0.00    +0.000 C 
ATOM     20  C   UNL     1       0.808   2.998  20.066  0.00  0.00    +0.000 C 
ENDBRANCH  18  20
ENDBRANCH  16  18
ENDBRANCH   1  16
TORSDOF 4
ENDMDL
MODEL 9
REMARK VINA RESULT:      -6.0      2.082      4.595
REMARK  Name = 
REMARK  5 active torsions:
REMARK  status: ('A' for Active; 'I' for Inactive)
REMARK    1  A    between atoms: C_1  and  C_2
REMARK    2  A    between atoms: C_2  and  O_3
REMARK    3  A    between atoms: O_3  and  C_4
REMARK    4  A    between atoms: C_4  and  C_6
REMARK    5  A    between atoms: C_7  and  N_8
REMARK                            x       y       z     vdW  Elec       q    Type
REMARK                         _______ _______ _______ _____ _____    ______ ____
ROOT
ATOM      1  C   UNL     1       3.574   5.589  18.683  0.00  0.00    +0.000 A 
ATOM      2  C   UNL     1       4.881   5.249  18.350  0.00  0.00    +0.000 A 
ATOM      3  S   UNL     1       5.147   3.572  18.234  0.00  0.00    +0.000 S 
ATOM      4  C   UNL     1       3.533   3.235  18.604  0.00  0.00    +0.000 A 
ATOM      5  C   UNL     1       2.772   4.373  18.796  0.00  0.00    +0.000 A 
ATOM      6  C   UNL     1       1.280   4.268  18.994  0.00  0.00    +0.000 C 
ATOM      7  C   UNL     1       0.852   2.849  19.399  0.00  0.00    +0.000 C 
ATOM      8  C   UNL     1       1.526   1.765  18.556  0.00  0.00    +0.000 C 
ATOM      9  C   UNL     1       3.038   1.869  18.633  0.00  0.00    +0.000 C 
ATOM     10  O   UNL     1       3.742   0.861  18.651  0.00  0.00    +0.000 OA
ENDROOT
BRANCH   2  11
ATOM     11  N   UNL     1       5.996   6.069  18.140  0.00  0.00    +0.000 N 
ATOM     12  C   UNL     1       7.166   6.086  18.880  0.00  0.00    +0.000 A 
ATOM     13  C   UNL     1       8.005   7.066  18.395  0.00  0.00    +0.000 A 
ATOM     14  C   UNL     1       7.356   7.667  17.299  0.00  0.00    +0.000 A 
ATOM     15  C   UNL     1       6.157   7.011  17.132  0.00  0.00    +0.000 A 
ENDBRANCH   2  11
BRANCH   1  16
ATOM     16  C   UNL     1       3.076   6.969  18.758  0.00  0.00    +0.000 C 
ATOM     17  O   UNL     1       3.108   7.749  17.816  0.00  0.00    +0.000 OA
BRANCH  16  18
ATOM     18  O   UNL     1       2.580   7.288  19.990  0.00  0.00    +0.000 OA
BRANCH  18  20
ATOM     19  C   UNL     1       1.069   8.545  21.419  0.00  0.00    +0.000 C 
ATOM     20  C   UNL     1       1.605   8.347  20.012  0.00  0.00    +0.000 C 
ENDBRANCH  18  20
ENDBRANCH  16  18
ENDBRANCH   1  16
TORSDOF 4
ENDMDL
