MODEL 1
REMARK VINA RESULT:      -6.9      0.000      0.000
REMARK  Name = 
REMARK  4 active torsions:
REMARK  status: ('A' for Active; 'I' for Inactive)
REMARK    1  A    between atoms: C_5  and  O_6
REMARK    2  A    between atoms: O_6  and  C_7
REMARK    3  A    between atoms: N_12  and  C_13
REMARK    4  A    between atoms: C_13  and  C_14
REMARK                            x       y       z     vdW  Elec       q    Type
REMARK                         _______ _______ _______ _____ _____    ______ ____
ROOT
ATOM      1  C   UNL     1       4.533   5.700  17.801  0.00  0.00    +0.000 C 
ATOM      2  C   UNL     1       5.288   5.464  19.123  0.00  0.00    +0.000 C 
ATOM      3  O   UNL     1       6.482   4.708  18.948  0.00  0.00    +0.000 OA
ATOM      4  C   UNL     1       7.667   5.460  18.711  0.00  0.00    +0.000 C 
ATOM      5  C   UNL     1       7.551   6.625  17.709  0.00  0.00    +0.000 C 
ATOM      6  N   UNL     1       6.701   6.435  16.523  0.00  0.00    +0.000 NA
ATOM      7  C   UNL     1       5.286   6.656  16.845  0.00  0.00    +0.000 C 
ENDROOT
BRANCH   1   8
ATOM      8  O   UNL     1       4.259   4.418  17.212  0.00  0.00    +0.000 OA
BRANCH   8  13
ATOM      9  C   UNL     1       0.975   3.494  18.411  0.00  0.00    +0.000 A 
ATOM     10  C   UNL     1       1.232   2.229  18.913  0.00  0.00    +0.000 A 
ATOM     11  N   UNL     1       2.443   1.638  18.865  0.00  0.00    +0.000 NA
ATOM     12  C   UNL     1       3.444   2.348  18.287  0.00  0.00    +0.000 A 
ATOM     13  C   UNL     1       3.295   3.621  17.752  0.00  0.00    +0.000 A 
ATOM     14  C   UNL     1       2.027   4.195  17.828  0.00  0.00    +0.000 A 
ENDBRANCH   8  13
ENDBRANCH   1   8
BRANCH   6  15
ATOM     15  C   UNL     1       7.001   5.181  15.818  0.00  0.00    +0.000 C 
BRANCH  15  16
ATOM     16  C   UNL     1       6.387   5.110  14.449  0.00  0.00    +0.000 C 
ATOM     17  C   UNL     1       6.802   4.091  13.422  0.00  0.00    +0.000 C 
ATOM     18  C   UNL     1       5.453   3.987  14.080  0.00  0.00    +0.000 C 
ENDBRANCH  15  16
ENDBRANCH   6  15
TORSDOF 4
ENDMDL
MODEL 2
REMARK VINA RESULT:      -6.7      0.705      1.154
REMARK  Name = 
REMARK  4 active torsions:
REMARK  status: ('A' for Active; 'I' for Inactive)
REMARK    1  A    between atoms: C_5  and  O_6
REMARK    2  A    between atoms: O_6  and  C_7
REMARK    3  A    between atoms: N_12  and  C_13
REMARK    4  A    between atoms: C_13  and  C_14
REMARK                            x       y       z     vdW  Elec       q    Type
REMARK                         _______ _______ _______ _____ _____    ______ ____
ROOT
ATOM      1  C   UNL     1       4.527   5.856  17.910  0.00  0.00    +0.000 C 
ATOM      2  C   UNL     1       5.247   5.622  19.253  0.00  0.00    +0.000 C 
ATOM      3  O   UNL     1       6.429   4.840  19.115  0.00  0.00    +0.000 OA
ATOM      4  C   UNL     1       7.634   5.565  18.895  0.00  0.00    +0.000 C 
ATOM      5  C   UNL     1       7.565   6.718  17.876  0.00  0.00    +0.000 C 
ATOM      6  N   UNL     1       6.739   6.529  16.673  0.00  0.00    +0.000 NA
ATOM      7  C   UNL     1       5.322   6.783  16.959  0.00  0.00    +0.000 C 
ENDROOT
BRANCH   1   8
ATOM      8  O   UNL     1       4.241   4.571  17.332  0.00  0.00    +0.000 OA
BRANCH   8  13
ATOM      9  C   UNL     1       2.526   1.751  18.808  0.00  0.00    +0.000 A 
ATOM     10  C   UNL     1       1.209   2.162  18.694  0.00  0.00    +0.000 A 
ATOM     11  N   UNL     1       0.840   3.346  18.164  0.00  0.00    +0.000 NA
ATOM     12  C   UNL     1       1.838   4.157  17.729  0.00  0.00    +0.000 A 
ATOM     13  C   UNL     1       3.189   3.842  17.799  0.00  0.00    +0.000 A 
ATOM     14  C   UNL     1       3.524   2.606  18.348  0.00  0.00    +0.000 A 
ENDBRANCH   8  13
ENDBRANCH   1   8
BRANCH   6  15
ATOM     15  C   UNL     1       7.029   5.260  15.991  0.00  0.00    +0.000 C 
BRANCH  15  16
ATOM     16  C   UNL     1       6.341   5.131  14.662  0.00  0.00    +0.000 C 
ATOM     17  C   UNL     1       7.040   4.620  13.430  0.00  0.00    +0.000 C 
ATOM     18  C   UNL     1       5.991   3.777  14.103  0.00  0.00    +0.000 C 
ENDBRANCH  15  16
ENDBRANCH   6  15
TORSDOF 4
ENDMDL
MODEL 3
REMARK VINA RESULT:      -6.7      1.857      5.400
REMARK  Name = 
REMARK  4 active torsions:
REMARK  status: ('A' for Active; 'I' for Inactive)
REMARK    1  A    between atoms: C_5  and  O_6
REMARK    2  A    between atoms: O_6  and  C_7
REMARK    3  A    between atoms: N_12  and  C_13
REMARK    4  A    between atoms: C_13  and  C_14
REMARK                            x       y       z     vdW  Elec       q    Type
REMARK                         _______ _______ _______ _____ _____    ______ ____
ROOT
ATOM      1  C   UNL     1       3.884   3.083  17.742  0.00  0.00    +0.000 C 
ATOM      2  C   UNL     1       4.005   2.206  19.004  0.00  0.00    +0.000 C 
ATOM      3  O   UNL     1       3.828   2.946  20.208  0.00  0.00    +0.000 OA
ATOM      4  C   UNL     1       2.496   3.019  20.705  0.00  0.00    +0.000 C 
ATOM      5  C   UNL     1       1.391   3.300  19.670  0.00  0.00    +0.000 C 
ATOM      6  N   UNL     1       1.688   4.245  18.581  0.00  0.00    +0.000 NA
ATOM      7  C   UNL     1       2.442   3.591  17.504  0.00  0.00    +0.000 C 
ENDROOT
BRANCH   1   8
ATOM      8  O   UNL     1       4.844   4.146  17.848  0.00  0.00    +0.000 OA
BRANCH   8  13
ATOM      9  C   UNL     1       5.962   4.097  14.410  0.00  0.00    +0.000 A 
ATOM     10  C   UNL     1       7.078   4.913  14.491  0.00  0.00    +0.000 A 
ATOM     11  N   UNL     1       7.487   5.508  15.630  0.00  0.00    +0.000 NA
ATOM     12  C   UNL     1       6.742   5.275  16.740  0.00  0.00    +0.000 A 
ATOM     13  C   UNL     1       5.607   4.476  16.768  0.00  0.00    +0.000 A 
ATOM     14  C   UNL     1       5.224   3.876  15.570  0.00  0.00    +0.000 A 
ENDBRANCH   8  13
ENDBRANCH   1   8
BRANCH   6  15
ATOM     15  C   UNL     1       2.258   5.505  19.076  0.00  0.00    +0.000 C 
BRANCH  15  16
ATOM     16  C   UNL     1       2.298   6.587  18.036  0.00  0.00    +0.000 C 
ATOM     17  C   UNL     1       2.362   8.050  18.384  0.00  0.00    +0.000 C 
ATOM     18  C   UNL     1       3.561   7.368  17.784  0.00  0.00    +0.000 C 
ENDBRANCH  15  16
ENDBRANCH   6  15
TORSDOF 4
ENDMDL
MODEL 4
REMARK VINA RESULT:      -6.6      1.253      1.269
REMARK  Name = 
REMARK  4 active torsions:
REMARK  status: ('A' for Active; 'I' for Inactive)
REMARK    1  A    between atoms: C_5  and  O_6
REMARK    2  A    between atoms: O_6  and  C_7
REMARK    3  A    between atoms: N_12  and  C_13
REMARK    4  A    between atoms: C_13  and  C_14
REMARK                            x       y       z     vdW  Elec       q    Type
REMARK                         _______ _______ _______ _____ _____    ______ ____
ROOT
ATOM      1  C   UNL     1       4.448   5.753  18.375  0.00  0.00    +0.000 C 
ATOM      2  C   UNL     1       5.634   5.336  19.268  0.00  0.00    +0.000 C 
ATOM      3  O   UNL     1       6.471   4.362  18.652  0.00  0.00    +0.000 OA
ATOM      4  C   UNL     1       7.562   4.869  17.891  0.00  0.00    +0.000 C 
ATOM      5  C   UNL     1       7.256   6.058  16.962  0.00  0.00    +0.000 C 
ATOM      6  N   UNL     1       5.963   6.073  16.259  0.00  0.00    +0.000 NA
ATOM      7  C   UNL     1       4.891   6.563  17.133  0.00  0.00    +0.000 C 
ENDROOT
BRANCH   1   8
ATOM      8  O   UNL     1       3.710   4.567  18.037  0.00  0.00    +0.000 OA
BRANCH   8  13
ATOM      9  C   UNL     1       1.123   4.406  20.559  0.00  0.00    +0.000 A 
ATOM     10  C   UNL     1       1.221   3.079  20.943  0.00  0.00    +0.000 A 
ATOM     11  N   UNL     1       2.095   2.207  20.400  0.00  0.00    +0.000 NA
ATOM     12  C   UNL     1       2.908   2.686  19.425  0.00  0.00    +0.000 A 
ATOM     13  C   UNL     1       2.890   3.997  18.965  0.00  0.00    +0.000 A 
ATOM     14  C   UNL     1       1.976   4.865  19.558  0.00  0.00    +0.000 A 
ENDBRANCH   8  13
ENDBRANCH   1   8
BRANCH   6  15
ATOM     15  C   UNL     1       5.688   4.803  15.572  0.00  0.00    +0.000 C 
BRANCH  15  16
ATOM     16  C   UNL     1       5.849   4.889  14.082  0.00  0.00    +0.000 C 
ATOM     17  C   UNL     1       7.185   4.763  13.398  0.00  0.00    +0.000 C 
ATOM     18  C   UNL     1       6.168   3.662  13.269  0.00  0.00    +0.000 C 
ENDBRANCH  15  16
ENDBRANCH   6  15
TORSDOF 4
ENDMDL
MODEL 5
REMARK VINA RESULT:      -6.5      1.295      1.390
REMARK  Name = 
REMARK  4 active torsions:
REMARK  status: ('A' for Active; 'I' for Inactive)
REMARK    1  A    between atoms: C_5  and  O_6
REMARK    2  A    between atoms: O_6  and  C_7
REMARK    3  A    between atoms: N_12  and  C_13
REMARK    4  A    between atoms: C_13  and  C_14
REMARK                            x       y       z     vdW  Elec       q    Type
REMARK                         _______ _______ _______ _____ _____    ______ ____
ROOT
ATOM      1  C   UNL     1       4.728   5.251  19.137  0.00  0.00    +0.000 C 
ATOM      2  C   UNL     1       6.207   5.307  19.568  0.00  0.00    +0.000 C 
ATOM      3  O   UNL     1       7.084   4.727  18.606  0.00  0.00    +0.000 OA
ATOM      4  C   UNL     1       7.608   5.615  17.625  0.00  0.00    +0.000 C 
ATOM      5  C   UNL     1       6.612   6.608  16.996  0.00  0.00    +0.000 C 
ATOM      6  N   UNL     1       5.244   6.137  16.725  0.00  0.00    +0.000 NA
ATOM      7  C   UNL     1       4.420   6.178  17.938  0.00  0.00    +0.000 C 
ENDROOT
BRANCH   1   8
ATOM      8  O   UNL     1       4.393   3.876  18.885  0.00  0.00    +0.000 OA
BRANCH   8  13
ATOM      9  C   UNL     1       1.129   3.424  20.376  0.00  0.00    +0.000 A 
ATOM     10  C   UNL     1       0.507   2.659  19.404  0.00  0.00    +0.000 A 
ATOM     11  N   UNL     1       1.102   2.287  18.251  0.00  0.00    +0.000 NA
ATOM     12  C   UNL     1       2.380   2.702  18.064  0.00  0.00    +0.000 A 
ATOM     13  C   UNL     1       3.094   3.472  18.973  0.00  0.00    +0.000 A 
ATOM     14  C   UNL     1       2.443   3.829  20.152  0.00  0.00    +0.000 A 
ENDBRANCH   8  13
ENDBRANCH   1   8
BRANCH   6  15
ATOM     15  C   UNL     1       5.229   4.863  15.992  0.00  0.00    +0.000 C 
BRANCH  15  16
ATOM     16  C   UNL     1       5.607   5.007  14.546  0.00  0.00    +0.000 C 
ATOM     17  C   UNL     1       6.997   4.728  14.036  0.00  0.00    +0.000 C 
ATOM     18  C   UNL     1       5.869   3.793  13.693  0.00  0.00    +0.000 C 
ENDBRANCH  15  16
ENDBRANCH   6  15
TORSDOF 4
ENDMDL
MODEL 6
REMARK VINA RESULT:      -6.4      1.332      1.569
REMARK  Name = 
REMARK  4 active torsions:
REMARK  status: ('A' for Active; 'I' for Inactive)
REMARK    1  A    between atoms: C_5  and  O_6
REMARK    2  A    between atoms: O_6  and  C_7
REMARK    3  A    between atoms: N_12  and  C_13
REMARK    4  A    between atoms: C_13  and  C_14
REMARK                            x       y       z     vdW  Elec       q    Type
REMARK                         _______ _______ _______ _____ _____    ______ ____
ROOT
ATOM      1  C   UNL     1       4.421   5.859  18.260  0.00  0.00    +0.000 C 
ATOM      2  C   UNL     1       5.565   5.353  19.161  0.00  0.00    +0.000 C 
ATOM      3  O   UNL     1       6.331   4.319  18.550  0.00  0.00    +0.000 OA
ATOM      4  C   UNL     1       7.463   4.744  17.798  0.00  0.00    +0.000 C 
ATOM      5  C   UNL     1       7.255   5.955  16.869  0.00  0.00    +0.000 C 
ATOM      6  N   UNL     1       5.972   6.067  16.157  0.00  0.00    +0.000 NA
ATOM      7  C   UNL     1       4.933   6.635  17.024  0.00  0.00    +0.000 C 
ENDROOT
BRANCH   1   8
ATOM      8  O   UNL     1       3.599   4.732  17.915  0.00  0.00    +0.000 OA
BRANCH   8  13
ATOM      9  C   UNL     1       1.689   2.185  19.630  0.00  0.00    +0.000 A 
ATOM     10  C   UNL     1       0.997   2.957  20.548  0.00  0.00    +0.000 A 
ATOM     11  N   UNL     1       1.135   4.295  20.653  0.00  0.00    +0.000 NA
ATOM     12  C   UNL     1       2.008   4.886  19.799  0.00  0.00    +0.000 A 
ATOM     13  C   UNL     1       2.752   4.206  18.844  0.00  0.00    +0.000 A 
ATOM     14  C   UNL     1       2.573   2.826  18.766  0.00  0.00    +0.000 A 
ENDBRANCH   8  13
ENDBRANCH   1   8
BRANCH   6  15
ATOM     15  C   UNL     1       5.607   4.823  15.465  0.00  0.00    +0.000 C 
BRANCH  15  16
ATOM     16  C   UNL     1       5.841   4.879  13.983  0.00  0.00    +0.000 C 
ATOM     17  C   UNL     1       7.176   4.572  13.357  0.00  0.00    +0.000 C 
ATOM     18  C   UNL     1       6.027   3.616  13.183  0.00  0.00    +0.000 C 
ENDBRANCH  15  16
ENDBRANCH   6  15
TORSDOF 4
ENDMDL
MODEL 7
REMARK VINA RESULT:      -6.3      2.500      5.919
REMARK  Name = 
REMARK  4 active torsions:
REMARK  status: ('A' for Active; 'I' for Inactive)
REMARK    1  A    between atoms: C_5  and  O_6
REMARK    2  A    between atoms: O_6  and  C_7
REMARK    3  A    between atoms: N_12  and  C_13
REMARK    4  A    between atoms: C_13  and  C_14
REMARK                            x       y       z     vdW  Elec       q    Type
REMARK                         _______ _______ _______ _____ _____    ______ ____
ROOT
ATOM      1  C   UNL     1       3.049   3.402  18.370  0.00  0.00    +0.000 C 
ATOM      2  C   UNL     1       3.592   2.261  19.252  0.00  0.00    +0.000 C 
ATOM      3  O   UNL     1       3.796   2.659  20.604  0.00  0.00    +0.000 OA
ATOM      4  C   UNL     1       2.695   2.464  21.485  0.00  0.00    +0.000 C 
ATOM      5  C   UNL     1       1.308   2.870  20.951  0.00  0.00    +0.000 C 
ATOM      6  N   UNL     1       1.216   4.080  20.117  0.00  0.00    +0.000 NA
ATOM      7  C   UNL     1       1.596   3.796  18.729  0.00  0.00    +0.000 C 
ENDROOT
BRANCH   1   8
ATOM      8  O   UNL     1       3.967   4.504  18.458  0.00  0.00    +0.000 OA
BRANCH   8  13
ATOM      9  C   UNL     1       5.803   4.358  15.345  0.00  0.00    +0.000 A 
ATOM     10  C   UNL     1       7.102   4.482  15.808  0.00  0.00    +0.000 A 
ATOM     11  N   UNL     1       7.421   4.631  17.110  0.00  0.00    +0.000 NA
ATOM     12  C   UNL     1       6.389   4.659  17.990  0.00  0.00    +0.000 A 
ATOM     13  C   UNL     1       5.051   4.546  17.633  0.00  0.00    +0.000 A 
ATOM     14  C   UNL     1       4.768   4.387  16.278  0.00  0.00    +0.000 A 
ENDBRANCH   8  13
ENDBRANCH   1   8
BRANCH   6  15
ATOM     15  C   UNL     1       1.885   5.233  20.733  0.00  0.00    +0.000 C 
BRANCH  15  16
ATOM     16  C   UNL     1       1.300   6.551  20.314  0.00  0.00    +0.000 C 
ATOM     17  C   UNL     1       1.577   7.836  21.049  0.00  0.00    +0.000 C 
ATOM     18  C   UNL     1       2.163   7.612  19.681  0.00  0.00    +0.000 C 
ENDBRANCH  15  16
ENDBRANCH   6  15
TORSDOF 4
ENDMDL
MODEL 8
REMARK VINA RESULT:      -6.3      3.195      4.737
REMARK  Name = 
REMARK  4 active torsions:
REMARK  status: ('A' for Active; 'I' for Inactive)
REMARK    1  A    between atoms: C_5  and  O_6
REMARK    2  A    between atoms: O_6  and  C_7
REMARK    3  A    between atoms: N_12  and  C_13
REMARK    4  A    between atoms: C_13  and  C_14
REMARK                            x       y       z     vdW  Elec       q    Type
REMARK                         _______ _______ _______ _____ _____    ______ ____
ROOT
ATOM      1  C   UNL     1       3.266   5.212  19.618  0.00  0.00    +0.000 C 
ATOM      2  C   UNL     1       1.937   4.450  19.790  0.00  0.00    +0.000 C 
ATOM      3  O   UNL     1       1.468   3.880  18.572  0.00  0.00    +0.000 OA
ATOM      4  C   UNL     1       1.894   2.549  18.302  0.00  0.00    +0.000 C 
ATOM      5  C   UNL     1       3.378   2.236  18.569  0.00  0.00    +0.000 C 
ATOM      6  N   UNL     1       4.372   3.272  18.246  0.00  0.00    +0.000 NA
ATOM      7  C   UNL     1       4.458   4.274  19.315  0.00  0.00    +0.000 C 
ENDROOT
BRANCH   1   8
ATOM      8  O   UNL     1       3.071   6.218  18.610  0.00  0.00    +0.000 OA
BRANCH   8  13
ATOM      9  C   UNL     1       1.558   9.456  18.060  0.00  0.00    +0.000 A 
ATOM     10  C   UNL     1       1.079   9.735  19.328  0.00  0.00    +0.000 A 
ATOM     11  N   UNL     1       1.210   8.896  20.377  0.00  0.00    +0.000 NA
ATOM     12  C   UNL     1       1.850   7.723  20.143  0.00  0.00    +0.000 A 
ATOM     13  C   UNL     1       2.367   7.345  18.910  0.00  0.00    +0.000 A 
ATOM     14  C   UNL     1       2.215   8.244  17.856  0.00  0.00    +0.000 A 
ENDBRANCH   8  13
ENDBRANCH   1   8
BRANCH   6  15
ATOM     15  C   UNL     1       4.198   3.807  16.889  0.00  0.00    +0.000 C 
BRANCH  15  16
ATOM     16  C   UNL     1       5.394   4.570  16.395  0.00  0.00    +0.000 C 
ATOM     17  C   UNL     1       5.667   4.797  14.932  0.00  0.00    +0.000 C 
ATOM     18  C   UNL     1       5.240   5.946  15.803  0.00  0.00    +0.000 C 
ENDBRANCH  15  16
ENDBRANCH   6  15
TORSDOF 4
ENDMDL
MODEL 9
REMARK VINA RESULT:      -6.2      2.477      5.976
REMARK  Name = 
REMARK  4 active torsions:
REMARK  status: ('A' for Active; 'I' for Inactive)
REMARK    1  A    between atoms: C_5  and  O_6
REMARK    2  A    between atoms: O_6  and  C_7
REMARK    3  A    between atoms: N_12  and  C_13
REMARK    4  A    between atoms: C_13  and  C_14
REMARK                            x       y       z     vdW  Elec       q    Type
REMARK                         _______ _______ _______ _____ _____    ______ ____
ROOT
ATOM      1  C   UNL     1       2.878   3.373  18.429  0.00  0.00    +0.000 C 
ATOM      2  C   UNL     1       3.440   2.233  19.300  0.00  0.00    +0.000 C 
ATOM      3  O   UNL     1       3.696   2.639  20.641  0.00  0.00    +0.000 OA
ATOM      4  C   UNL     1       2.624   2.462  21.562  0.00  0.00    +0.000 C 
ATOM      5  C   UNL     1       1.224   2.879  21.074  0.00  0.00    +0.000 C 
ATOM      6  N   UNL     1       1.115   4.083  20.235  0.00  0.00    +0.000 NA
ATOM      7  C   UNL     1       1.443   3.784  18.836  0.00  0.00    +0.000 C 
ENDROOT
BRANCH   1   8
ATOM      8  O   UNL     1       3.810   4.466  18.476  0.00  0.00    +0.000 OA
BRANCH   8  13
ATOM      9  C   UNL     1       5.521   4.220  15.299  0.00  0.00    +0.000 A 
ATOM     10  C   UNL     1       5.714   5.559  15.007  0.00  0.00    +0.000 A 
ATOM     11  N   UNL     1       5.291   6.565  15.800  0.00  0.00    +0.000 NA
ATOM     12  C   UNL     1       4.644   6.212  16.939  0.00  0.00    +0.000 A 
ATOM     13  C   UNL     1       4.397   4.901  17.325  0.00  0.00    +0.000 A 
ATOM     14  C   UNL     1       4.856   3.893  16.479  0.00  0.00    +0.000 A 
ENDBRANCH   8  13
ENDBRANCH   1   8
BRANCH   6  15
ATOM     15  C   UNL     1       1.818   5.234  20.818  0.00  0.00    +0.000 C 
BRANCH  15  16
ATOM     16  C   UNL     1       1.290   6.555  20.338  0.00  0.00    +0.000 C 
ATOM     17  C   UNL     1       1.614   7.858  21.019  0.00  0.00    +0.000 C 
ATOM     18  C   UNL     1       2.200   7.552  19.667  0.00  0.00    +0.000 C 
ENDBRANCH  15  16
ENDBRANCH   6  15
TORSDOF 4
ENDMDL
