MODEL 1
REMARK VINA RESULT:      -8.9      0.000      0.000
REMARK  Name = 
REMARK  6 active torsions:
REMARK  status: ('A' for Active; 'I' for Inactive)
REMARK    1  A    between atoms: C_2  and  C_3
REMARK    2  A    between atoms: C_4  and  C_5
REMARK    3  A    between atoms: N_8  and  C_9
REMARK    4  A    between atoms: C_9  and  C_10
REMARK    5  A    between atoms: C_10  and  C_11
REMARK    6  A    between atoms: C_11  and  N_12
REMARK                            x       y       z     vdW  Elec       q    Type
REMARK                         _______ _______ _______ _____ _____    ______ ____
ROOT
ATOM      1  C   UNL     1       2.607   5.988  19.724  0.00  0.00    +0.000 A 
ATOM      2  N   UNL     1       3.924   5.931  19.505  0.00  0.00    +0.000 NA
ATOM      3  C   UNL     1       4.413   4.729  19.154  0.00  0.00    +0.000 A 
ATOM      4  N   UNL     1       5.803   4.576  19.011  0.00  0.00    +0.000 N 
ATOM      5  C   UNL     1       3.584   3.601  18.978  0.00  0.00    +0.000 A 
ATOM      6  C   UNL     1       4.025   2.314  18.574  0.00  0.00    +0.000 A 
ATOM      7  C   UNL     1       3.129   1.251  18.472  0.00  0.00    +0.000 A 
ATOM      8  C   UNL     1       1.794   1.452  18.779  0.00  0.00    +0.000 A 
ATOM      9  C   UNL     1       1.358   2.720  19.176  0.00  0.00    +0.000 A 
ATOM     10  C   UNL     1       2.229   3.797  19.275  0.00  0.00    +0.000 A 
ATOM     11  N   UNL     1       1.738   4.974  19.657  0.00  0.00    +0.000 NA
ATOM     12  H   UNL     1       6.036   4.265  18.073  0.00  0.00    +0.000 HD
ENDROOT
BRANCH   1  14
ATOM     13  C   UNL     1       1.804   8.432  19.325  0.00  0.00    +0.000 A 
ATOM     14  C   UNL     1       2.031   7.276  20.064  0.00  0.00    +0.000 A 
ATOM     15  N   UNL     1       1.536   7.503  21.328  0.00  0.00    +0.000 N 
ATOM     16  C   UNL     1       1.010   8.764  21.439  0.00  0.00    +0.000 A 
ATOM     17  C   UNL     1       0.408   9.396  22.533  0.00  0.00    +0.000 A 
ATOM     18  C   UNL     1      -0.072  10.695  22.345  0.00  0.00    +0.000 A 
ATOM     19  C   UNL     1       0.047  11.332  21.113  0.00  0.00    +0.000 A 
ATOM     20  C   UNL     1       0.660  10.684  20.033  0.00  0.00    +0.000 A 
ATOM     21  C   UNL     1       1.157   9.373  20.194  0.00  0.00    +0.000 A 
ATOM     22  H   UNL     1       1.549   6.810  22.065  0.00  0.00    +0.000 HD
BRANCH  13  24
ATOM     23  O   UNL     1       2.097   9.691  17.337  0.00  0.00    +0.000 OA
ATOM     24  C   UNL     1       2.125   8.608  17.918  0.00  0.00    +0.000 C 
ENDBRANCH  13  24
ENDBRANCH   1  14
BRANCH   4  25
ATOM     25  C   UNL     1       6.651   5.657  19.499  0.00  0.00    +0.000 C 
BRANCH  25  26
ATOM     26  C   UNL     1       7.526   6.135  18.338  0.00  0.00    +0.000 C 
BRANCH  26  27
ATOM     27  C   UNL     1       6.705   6.862  17.266  0.00  0.00    +0.000 C 
BRANCH  27  28
ATOM     28  N   UNL     1       6.728   6.164  15.970  0.00  0.00    +0.000 NA
ATOM     29  C   UNL     1       5.375   6.026  15.403  0.00  0.00    +0.000 C 
ATOM     30  C   UNL     1       4.974   4.587  15.661  0.00  0.00    +0.000 C 
ATOM     31  C   UNL     1       6.282   3.854  15.459  0.00  0.00    +0.000 C 
ATOM     32  C   UNL     1       7.305   4.808  16.055  0.00  0.00    +0.000 C 
ENDBRANCH  27  28
ENDBRANCH  26  27
ENDBRANCH  25  26
ENDBRANCH   4  25
TORSDOF 6
ENDMDL
MODEL 2
REMARK VINA RESULT:      -8.7      2.023      7.700
REMARK  Name = 
REMARK  6 active torsions:
REMARK  status: ('A' for Active; 'I' for Inactive)
REMARK    1  A    between atoms: C_2  and  C_3
REMARK    2  A    between atoms: C_4  and  C_5
REMARK    3  A    between atoms: N_8  and  C_9
REMARK    4  A    between atoms: C_9  and  C_10
REMARK    5  A    between atoms: C_10  and  C_11
REMARK    6  A    between atoms: C_11  and  N_12
REMARK                            x       y       z     vdW  Elec       q    Type
REMARK                         _______ _______ _______ _____ _____    ______ ____
ROOT
ATOM      1  C   UNL     1       4.281   4.869  17.582  0.00  0.00    +0.000 A 
ATOM      2  N   UNL     1       3.733   6.024  17.968  0.00  0.00    +0.000 NA
ATOM      3  C   UNL     1       3.028   5.990  19.113  0.00  0.00    +0.000 A 
ATOM      4  N   UNL     1       2.339   7.145  19.522  0.00  0.00    +0.000 N 
ATOM      5  C   UNL     1       2.910   4.818  19.890  0.00  0.00    +0.000 A 
ATOM      6  C   UNL     1       2.216   4.718  21.123  0.00  0.00    +0.000 A 
ATOM      7  C   UNL     1       2.120   3.499  21.793  0.00  0.00    +0.000 A 
ATOM      8  C   UNL     1       2.703   2.370  21.241  0.00  0.00    +0.000 A 
ATOM      9  C   UNL     1       3.389   2.468  20.027  0.00  0.00    +0.000 A 
ATOM     10  C   UNL     1       3.506   3.673  19.346  0.00  0.00    +0.000 A 
ATOM     11  N   UNL     1       4.178   3.686  18.197  0.00  0.00    +0.000 NA
ATOM     12  H   UNL     1       2.654   7.446  20.439  0.00  0.00    +0.000 HD
ENDROOT
BRANCH   1  14
ATOM     13  C   UNL     1       6.283   5.495  16.039  0.00  0.00    +0.000 A 
ATOM     14  C   UNL     1       5.085   4.871  16.373  0.00  0.00    +0.000 A 
ATOM     15  N   UNL     1       4.713   4.106  15.291  0.00  0.00    +0.000 N 
ATOM     16  C   UNL     1       5.616   4.221  14.266  0.00  0.00    +0.000 A 
ATOM     17  C   UNL     1       5.625   3.620  13.001  0.00  0.00    +0.000 A 
ATOM     18  C   UNL     1       6.706   3.900  12.160  0.00  0.00    +0.000 A 
ATOM     19  C   UNL     1       7.732   4.748  12.570  0.00  0.00    +0.000 A 
ATOM     20  C   UNL     1       7.700   5.345  13.836  0.00  0.00    +0.000 A 
ATOM     21  C   UNL     1       6.620   5.083  14.706  0.00  0.00    +0.000 A 
ATOM     22  H   UNL     1       3.887   3.524  15.276  0.00  0.00    +0.000 HD
BRANCH  13  24
ATOM     23  O   UNL     1       6.918   7.576  16.980  0.00  0.00    +0.000 OA
ATOM     24  C   UNL     1       7.057   6.357  16.917  0.00  0.00    +0.000 C 
ENDBRANCH  13  24
ENDBRANCH   1  14
BRANCH   4  25
ATOM     25  C   UNL     1       2.218   8.231  18.557  0.00  0.00    +0.000 C 
BRANCH  25  26
ATOM     26  C   UNL     1       1.351   9.327  19.182  0.00  0.00    +0.000 C 
BRANCH  26  27
ATOM     27  C   UNL     1       0.832   8.923  20.568  0.00  0.00    +0.000 C 
BRANCH  27  28
ATOM     28  N   UNL     1       0.990   9.998  21.562  0.00  0.00    +0.000 NA
ATOM     29  C   UNL     1       0.517   9.579  22.893  0.00  0.00    +0.000 C 
ATOM     30  C   UNL     1      -0.839  10.235  23.065  0.00  0.00    +0.000 C 
ATOM     31  C   UNL     1      -0.629  11.573  22.393  0.00  0.00    +0.000 C 
ATOM     32  C   UNL     1       0.255  11.227  21.205  0.00  0.00    +0.000 C 
ENDBRANCH  27  28
ENDBRANCH  26  27
ENDBRANCH  25  26
ENDBRANCH   4  25
TORSDOF 6
ENDMDL
MODEL 3
REMARK VINA RESULT:      -8.6      1.353      2.255
REMARK  Name = 
REMARK  6 active torsions:
REMARK  status: ('A' for Active; 'I' for Inactive)
REMARK    1  A    between atoms: C_2  and  C_3
REMARK    2  A    between atoms: C_4  and  C_5
REMARK    3  A    between atoms: N_8  and  C_9
REMARK    4  A    between atoms: C_9  and  C_10
REMARK    5  A    between atoms: C_10  and  C_11
REMARK    6  A    between atoms: C_11  and  N_12
REMARK                            x       y       z     vdW  Elec       q    Type
REMARK                         _______ _______ _______ _____ _____    ______ ____
ROOT
ATOM      1  C   UNL     1       1.884   7.059  20.143  0.00  0.00    +0.000 A 
ATOM      2  N   UNL     1       2.577   7.023  19.001  0.00  0.00    +0.000 NA
ATOM      3  C   UNL     1       3.152   5.846  18.696  0.00  0.00    +0.000 A 
ATOM      4  N   UNL     1       3.981   5.768  17.564  0.00  0.00    +0.000 N 
ATOM      5  C   UNL     1       2.995   4.700  19.504  0.00  0.00    +0.000 A 
ATOM      6  C   UNL     1       3.539   3.420  19.225  0.00  0.00    +0.000 A 
ATOM      7  C   UNL     1       3.363   2.359  20.113  0.00  0.00    +0.000 A 
ATOM      8  C   UNL     1       2.656   2.563  21.286  0.00  0.00    +0.000 A 
ATOM      9  C   UNL     1       2.118   3.823  21.561  0.00  0.00    +0.000 A 
ATOM     10  C   UNL     1       2.272   4.892  20.688  0.00  0.00    +0.000 A 
ATOM     11  N   UNL     1       1.727   6.061  21.019  0.00  0.00    +0.000 NA
ATOM     12  H   UNL     1       3.632   5.073  16.910  0.00  0.00    +0.000 HD
ENDROOT
BRANCH   1  14
ATOM     13  C   UNL     1       0.879   9.428  19.750  0.00  0.00    +0.000 A 
ATOM     14  C   UNL     1       1.213   8.299  20.489  0.00  0.00    +0.000 A 
ATOM     15  N   UNL     1       0.728   8.493  21.763  0.00  0.00    +0.000 N 
ATOM     16  C   UNL     1       0.104   9.708  21.879  0.00  0.00    +0.000 A 
ATOM     17  C   UNL     1      -0.525  10.297  22.983  0.00  0.00    +0.000 A 
ATOM     18  C   UNL     1      -1.112  11.551  22.799  0.00  0.00    +0.000 A 
ATOM     19  C   UNL     1      -1.070  12.188  21.562  0.00  0.00    +0.000 A 
ATOM     20  C   UNL     1      -0.429  11.585  20.472  0.00  0.00    +0.000 A 
ATOM     21  C   UNL     1       0.175  10.320  20.628  0.00  0.00    +0.000 A 
ATOM     22  H   UNL     1       0.812   7.808  22.502  0.00  0.00    +0.000 HD
BRANCH  13  24
ATOM     23  O   UNL     1       2.144  10.207  17.902  0.00  0.00    +0.000 OA
ATOM     24  C   UNL     1       1.155   9.621  18.336  0.00  0.00    +0.000 C 
ENDBRANCH  13  24
ENDBRANCH   1  14
BRANCH   4  25
ATOM     25  C   UNL     1       4.376   7.022  16.933  0.00  0.00    +0.000 C 
BRANCH  25  26
ATOM     26  C   UNL     1       5.278   6.690  15.742  0.00  0.00    +0.000 C 
BRANCH  26  27
ATOM     27  C   UNL     1       6.032   5.371  15.947  0.00  0.00    +0.000 C 
BRANCH  27  28
ATOM     28  N   UNL     1       7.343   5.567  16.589  0.00  0.00    +0.000 NA
ATOM     29  C   UNL     1       7.528   4.657  17.734  0.00  0.00    +0.000 C 
ATOM     30  C   UNL     1       7.301   5.509  18.967  0.00  0.00    +0.000 C 
ATOM     31  C   UNL     1       7.917   6.828  18.558  0.00  0.00    +0.000 C 
ATOM     32  C   UNL     1       7.541   6.941  17.089  0.00  0.00    +0.000 C 
ENDBRANCH  27  28
ENDBRANCH  26  27
ENDBRANCH  25  26
ENDBRANCH   4  25
TORSDOF 6
ENDMDL
MODEL 4
REMARK VINA RESULT:      -8.6      3.237      6.213
REMARK  Name = 
REMARK  6 active torsions:
REMARK  status: ('A' for Active; 'I' for Inactive)
REMARK    1  A    between atoms: C_2  and  C_3
REMARK    2  A    between atoms: C_4  and  C_5
REMARK    3  A    between atoms: N_8  and  C_9
REMARK    4  A    between atoms: C_9  and  C_10
REMARK    5  A    between atoms: C_10  and  C_11
REMARK    6  A    between atoms: C_11  and  N_12
REMARK                            x       y       z     vdW  Elec       q    Type
REMARK                         _______ _______ _______ _____ _____    ______ ____
ROOT
ATOM      1  C   UNL     1       5.124   4.722  17.232  0.00  0.00    +0.000 A 
ATOM      2  N   UNL     1       5.954   5.747  17.445  0.00  0.00    +0.000 NA
ATOM      3  C   UNL     1       6.786   6.053  16.433  0.00  0.00    +0.000 A 
ATOM      4  N   UNL     1       7.756   7.051  16.628  0.00  0.00    +0.000 N 
ATOM      5  C   UNL     1       6.755   5.368  15.200  0.00  0.00    +0.000 A 
ATOM      6  C   UNL     1       7.574   5.660  14.079  0.00  0.00    +0.000 A 
ATOM      7  C   UNL     1       7.497   4.893  12.918  0.00  0.00    +0.000 A 
ATOM      8  C   UNL     1       6.615   3.826  12.862  0.00  0.00    +0.000 A 
ATOM      9  C   UNL     1       5.806   3.538  13.966  0.00  0.00    +0.000 A 
ATOM     10  C   UNL     1       5.858   4.294  15.129  0.00  0.00    +0.000 A 
ATOM     11  N   UNL     1       5.054   3.959  16.137  0.00  0.00    +0.000 NA
ATOM     12  H   UNL     1       7.641   7.801  15.954  0.00  0.00    +0.000 HD
ENDROOT
BRANCH   1  14
ATOM     13  C   UNL     1       2.941   4.906  18.639  0.00  0.00    +0.000 A 
ATOM     14  C   UNL     1       4.180   4.385  18.283  0.00  0.00    +0.000 A 
ATOM     15  N   UNL     1       4.433   3.330  19.130  0.00  0.00    +0.000 N 
ATOM     16  C   UNL     1       3.412   3.157  20.029  0.00  0.00    +0.000 A 
ATOM     17  C   UNL     1       3.262   2.212  21.051  0.00  0.00    +0.000 A 
ATOM     18  C   UNL     1       2.084   2.254  21.802  0.00  0.00    +0.000 A 
ATOM     19  C   UNL     1       1.100   3.203  21.539  0.00  0.00    +0.000 A 
ATOM     20  C   UNL     1       1.273   4.144  20.516  0.00  0.00    +0.000 A 
ATOM     21  C   UNL     1       2.454   4.128  19.743  0.00  0.00    +0.000 A 
ATOM     22  H   UNL     1       5.262   2.755  19.073  0.00  0.00    +0.000 HD
BRANCH  13  24
ATOM     23  O   UNL     1       2.414   7.186  18.257  0.00  0.00    +0.000 OA
ATOM     24  C   UNL     1       2.262   6.002  17.967  0.00  0.00    +0.000 C 
ENDBRANCH  13  24
ENDBRANCH   1  14
BRANCH   4  25
ATOM     25  C   UNL     1       7.974   7.517  17.993  0.00  0.00    +0.000 C 
BRANCH  25  26
ATOM     26  C   UNL     1       8.200   9.030  17.947  0.00  0.00    +0.000 C 
BRANCH  26  27
ATOM     27  C   UNL     1       8.997   9.525  19.160  0.00  0.00    +0.000 C 
BRANCH  27  28
ATOM     28  N   UNL     1       9.265  10.972  19.104  0.00  0.00    +0.000 NA
ATOM     29  C   UNL     1      10.127  11.320  17.960  0.00  0.00    +0.000 C 
ATOM     30  C   UNL     1      11.506  11.545  18.549  0.00  0.00    +0.000 C 
ATOM     31  C   UNL     1      11.181  12.212  19.866  0.00  0.00    +0.000 C 
ATOM     32  C   UNL     1       9.925  11.485  20.319  0.00  0.00    +0.000 C 
ENDBRANCH  27  28
ENDBRANCH  26  27
ENDBRANCH  25  26
ENDBRANCH   4  25
TORSDOF 6
ENDMDL
MODEL 5
REMARK VINA RESULT:      -8.4      2.325      7.766
REMARK  Name = 
REMARK  6 active torsions:
REMARK  status: ('A' for Active; 'I' for Inactive)
REMARK    1  A    between atoms: C_2  and  C_3
REMARK    2  A    between atoms: C_4  and  C_5
REMARK    3  A    between atoms: N_8  and  C_9
REMARK    4  A    between atoms: C_9  and  C_10
REMARK    5  A    between atoms: C_10  and  C_11
REMARK    6  A    between atoms: C_11  and  N_12
REMARK                            x       y       z     vdW  Elec       q    Type
REMARK                         _______ _______ _______ _____ _____    ______ ____
ROOT
ATOM      1  C   UNL     1       4.229   5.029  17.307  0.00  0.00    +0.000 A 
ATOM      2  N   UNL     1       3.740   6.225  17.644  0.00  0.00    +0.000 NA
ATOM      3  C   UNL     1       2.996   6.265  18.764  0.00  0.00    +0.000 A 
ATOM      4  N   UNL     1       2.366   7.470  19.119  0.00  0.00    +0.000 N 
ATOM      5  C   UNL     1       2.781   5.124  19.566  0.00  0.00    +0.000 A 
ATOM      6  C   UNL     1       2.042   5.100  20.777  0.00  0.00    +0.000 A 
ATOM      7  C   UNL     1       1.850   3.909  21.474  0.00  0.00    +0.000 A 
ATOM      8  C   UNL     1       2.381   2.732  20.973  0.00  0.00    +0.000 A 
ATOM      9  C   UNL     1       3.112   2.755  19.781  0.00  0.00    +0.000 A 
ATOM     10  C   UNL     1       3.325   3.931  19.074  0.00  0.00    +0.000 A 
ATOM     11  N   UNL     1       4.034   3.871  17.948  0.00  0.00    +0.000 NA
ATOM     12  H   UNL     1       2.668   7.777  20.038  0.00  0.00    +0.000 HD
ENDROOT
BRANCH   1  14
ATOM     13  C   UNL     1       6.323   5.477  15.826  0.00  0.00    +0.000 A 
ATOM     14  C   UNL     1       5.072   4.949  16.128  0.00  0.00    +0.000 A 
ATOM     15  N   UNL     1       4.681   4.193  15.046  0.00  0.00    +0.000 N 
ATOM     16  C   UNL     1       5.625   4.222  14.051  0.00  0.00    +0.000 A 
ATOM     17  C   UNL     1       5.632   3.598  12.798  0.00  0.00    +0.000 A 
ATOM     18  C   UNL     1       6.758   3.782  11.991  0.00  0.00    +0.000 A 
ATOM     19  C   UNL     1       7.829   4.560  12.422  0.00  0.00    +0.000 A 
ATOM     20  C   UNL     1       7.799   5.182  13.677  0.00  0.00    +0.000 A 
ATOM     21  C   UNL     1       6.673   5.016  14.512  0.00  0.00    +0.000 A 
ATOM     22  H   UNL     1       3.815   3.673  15.012  0.00  0.00    +0.000 HD
BRANCH  13  24
ATOM     23  O   UNL     1       6.982   7.509  16.854  0.00  0.00    +0.000 OA
ATOM     24  C   UNL     1       7.128   6.297  16.716  0.00  0.00    +0.000 C 
ENDBRANCH  13  24
ENDBRANCH   1  14
BRANCH   4  25
ATOM     25  C   UNL     1       2.343   8.534  18.122  0.00  0.00    +0.000 C 
BRANCH  25  26
ATOM     26  C   UNL     1       0.938   9.144  18.112  0.00  0.00    +0.000 C 
BRANCH  26  27
ATOM     27  C   UNL     1       0.671   9.981  19.368  0.00  0.00    +0.000 C 
BRANCH  27  28
ATOM     28  N   UNL     1      -0.764  10.239  19.576  0.00  0.00    +0.000 NA
ATOM     29  C   UNL     1      -1.496  10.294  18.298  0.00  0.00    +0.000 C 
ATOM     30  C   UNL     1      -1.732  11.768  18.031  0.00  0.00    +0.000 C 
ATOM     31  C   UNL     1      -1.995  12.302  19.421  0.00  0.00    +0.000 C 
ATOM     32  C   UNL     1      -1.027  11.507  20.283  0.00  0.00    +0.000 C 
ENDBRANCH  27  28
ENDBRANCH  26  27
ENDBRANCH  25  26
ENDBRANCH   4  25
TORSDOF 6
ENDMDL
MODEL 6
REMARK VINA RESULT:      -8.3      1.136      1.349
REMARK  Name = 
REMARK  6 active torsions:
REMARK  status: ('A' for Active; 'I' for Inactive)
REMARK    1  A    between atoms: C_2  and  C_3
REMARK    2  A    between atoms: C_4  and  C_5
REMARK    3  A    between atoms: N_8  and  C_9
REMARK    4  A    between atoms: C_9  and  C_10
REMARK    5  A    between atoms: C_10  and  C_11
REMARK    6  A    between atoms: C_11  and  N_12
REMARK                            x       y       z     vdW  Elec       q    Type
REMARK                         _______ _______ _______ _____ _____    ______ ____
ROOT
ATOM      1  C   UNL     1       2.305   6.428  19.509  0.00  0.00    +0.000 A 
ATOM      2  N   UNL     1       3.373   6.548  18.716  0.00  0.00    +0.000 NA
ATOM      3  C   UNL     1       3.891   5.399  18.245  0.00  0.00    +0.000 A 
ATOM      4  N   UNL     1       5.075   5.446  17.491  0.00  0.00    +0.000 N 
ATOM      5  C   UNL     1       3.315   4.143  18.529  0.00  0.00    +0.000 A 
ATOM      6  C   UNL     1       3.783   2.896  18.037  0.00  0.00    +0.000 A 
ATOM      7  C   UNL     1       3.169   1.703  18.413  0.00  0.00    +0.000 A 
ATOM      8  C   UNL     1       2.094   1.735  19.285  0.00  0.00    +0.000 A 
ATOM      9  C   UNL     1       1.630   2.962  19.769  0.00  0.00    +0.000 A 
ATOM     10  C   UNL     1       2.220   4.164  19.401  0.00  0.00    +0.000 A 
ATOM     11  N   UNL     1       1.719   5.292  19.902  0.00  0.00    +0.000 NA
ATOM     12  H   UNL     1       4.931   5.048  16.568  0.00  0.00    +0.000 HD
ENDROOT
BRANCH   1  14
ATOM     13  C   UNL     1       1.313   8.832  19.385  0.00  0.00    +0.000 A 
ATOM     14  C   UNL     1       1.690   7.646  20.006  0.00  0.00    +0.000 A 
ATOM     15  N   UNL     1       1.321   7.748  21.328  0.00  0.00    +0.000 N 
ATOM     16  C   UNL     1       0.732   8.958  21.590  0.00  0.00    +0.000 A 
ATOM     17  C   UNL     1       0.213   9.468  22.786  0.00  0.00    +0.000 A 
ATOM     18  C   UNL     1      -0.365  10.740  22.749  0.00  0.00    +0.000 A 
ATOM     19  C   UNL     1      -0.419  11.469  21.564  0.00  0.00    +0.000 A 
ATOM     20  C   UNL     1       0.113  10.943  20.380  0.00  0.00    +0.000 A 
ATOM     21  C   UNL     1       0.706   9.662  20.387  0.00  0.00    +0.000 A 
ATOM     22  H   UNL     1       1.456   7.008  22.004  0.00  0.00    +0.000 HD
BRANCH  13  24
ATOM     23  O   UNL     1       2.512   9.531  17.463  0.00  0.00    +0.000 OA
ATOM     24  C   UNL     1       1.468   9.129  17.971  0.00  0.00    +0.000 C 
ENDBRANCH  13  24
ENDBRANCH   1  14
BRANCH   4  25
ATOM     25  C   UNL     1       5.814   6.704  17.479  0.00  0.00    +0.000 C 
BRANCH  25  26
ATOM     26  C   UNL     1       7.189   6.440  16.860  0.00  0.00    +0.000 C 
BRANCH  26  27
ATOM     27  C   UNL     1       7.190   5.180  15.986  0.00  0.00    +0.000 C 
BRANCH  27  28
ATOM     28  N   UNL     1       6.635   5.427  14.644  0.00  0.00    +0.000 NA
ATOM     29  C   UNL     1       5.511   4.522  14.347  0.00  0.00    +0.000 C 
ATOM     30  C   UNL     1       6.079   3.462  13.424  0.00  0.00    +0.000 C 
ATOM     31  C   UNL     1       7.040   4.265  12.576  0.00  0.00    +0.000 C 
ATOM     32  C   UNL     1       7.630   5.254  13.568  0.00  0.00    +0.000 C 
ENDBRANCH  27  28
ENDBRANCH  26  27
ENDBRANCH  25  26
ENDBRANCH   4  25
TORSDOF 6
ENDMDL
MODEL 7
REMARK VINA RESULT:      -8.1      2.264      7.576
REMARK  Name = 
REMARK  6 active torsions:
REMARK  status: ('A' for Active; 'I' for Inactive)
REMARK    1  A    between atoms: C_2  and  C_3
REMARK    2  A    between atoms: C_4  and  C_5
REMARK    3  A    between atoms: N_8  and  C_9
REMARK    4  A    between atoms: C_9  and  C_10
REMARK    5  A    between atoms: C_10  and  C_11
REMARK    6  A    between atoms: C_11  and  N_12
REMARK                            x       y       z     vdW  Elec       q    Type
REMARK                         _______ _______ _______ _____ _____    ______ ____
ROOT
ATOM      1  C   UNL     1       4.288   4.923  17.503  0.00  0.00    +0.000 A 
ATOM      2  N   UNL     1       3.761   6.096  17.863  0.00  0.00    +0.000 NA
ATOM      3  C   UNL     1       3.029   6.093  18.991  0.00  0.00    +0.000 A 
ATOM      4  N   UNL     1       2.361   7.270  19.370  0.00  0.00    +0.000 N 
ATOM      5  C   UNL     1       2.864   4.934  19.778  0.00  0.00    +0.000 A 
ATOM      6  C   UNL     1       2.140   4.866  20.997  0.00  0.00    +0.000 A 
ATOM      7  C   UNL     1       1.999   3.659  21.678  0.00  0.00    +0.000 A 
ATOM      8  C   UNL     1       2.566   2.509  21.154  0.00  0.00    +0.000 A 
ATOM      9  C   UNL     1       3.282   2.575  19.954  0.00  0.00    +0.000 A 
ATOM     10  C   UNL     1       3.444   3.768  19.263  0.00  0.00    +0.000 A 
ATOM     11  N   UNL     1       4.142   3.750  18.129  0.00  0.00    +0.000 NA
ATOM     12  H   UNL     1       2.662   7.574  20.291  0.00  0.00    +0.000 HD
ENDROOT
BRANCH   1  14
ATOM     13  C   UNL     1       6.364   5.439  16.017  0.00  0.00    +0.000 A 
ATOM     14  C   UNL     1       5.120   4.890  16.313  0.00  0.00    +0.000 A 
ATOM     15  N   UNL     1       4.725   4.168  15.210  0.00  0.00    +0.000 N 
ATOM     16  C   UNL     1       5.658   4.239  14.207  0.00  0.00    +0.000 A 
ATOM     17  C   UNL     1       5.658   3.658  12.934  0.00  0.00    +0.000 A 
ATOM     18  C   UNL     1       6.774   3.878  12.123  0.00  0.00    +0.000 A 
ATOM     19  C   UNL     1       7.844   4.650  12.570  0.00  0.00    +0.000 A 
ATOM     20  C   UNL     1       7.820   5.229  13.845  0.00  0.00    +0.000 A 
ATOM     21  C   UNL     1       6.705   5.025  14.685  0.00  0.00    +0.000 A 
ATOM     22  H   UNL     1       3.863   3.642  15.167  0.00  0.00    +0.000 HD
BRANCH  13  24
ATOM     23  O   UNL     1       7.572   7.369  16.677  0.00  0.00    +0.000 OA
ATOM     24  C   UNL     1       7.171   6.234  16.927  0.00  0.00    +0.000 C 
ENDBRANCH  13  24
ENDBRANCH   1  14
BRANCH   4  25
ATOM     25  C   UNL     1       2.288   8.347  18.390  0.00  0.00    +0.000 C 
BRANCH  25  26
ATOM     26  C   UNL     1       0.964   9.087  18.596  0.00  0.00    +0.000 C 
BRANCH  26  27
ATOM     27  C   UNL     1       0.871   9.711  19.993  0.00  0.00    +0.000 C 
BRANCH  27  28
ATOM     28  N   UNL     1       0.400  11.106  19.956  0.00  0.00    +0.000 NA
ATOM     29  C   UNL     1       0.770  11.770  18.693  0.00  0.00    +0.000 C 
ATOM     30  C   UNL     1       1.953  12.654  19.034  0.00  0.00    +0.000 C 
ATOM     31  C   UNL     1       1.592  13.145  20.418  0.00  0.00    +0.000 C 
ATOM     32  C   UNL     1       0.940  11.928  21.055  0.00  0.00    +0.000 C 
ENDBRANCH  27  28
ENDBRANCH  26  27
ENDBRANCH  25  26
ENDBRANCH   4  25
TORSDOF 6
ENDMDL
MODEL 8
REMARK VINA RESULT:      -7.9      2.016      4.467
REMARK  Name = 
REMARK  6 active torsions:
REMARK  status: ('A' for Active; 'I' for Inactive)
REMARK    1  A    between atoms: C_2  and  C_3
REMARK    2  A    between atoms: C_4  and  C_5
REMARK    3  A    between atoms: N_8  and  C_9
REMARK    4  A    between atoms: C_9  and  C_10
REMARK    5  A    between atoms: C_10  and  C_11
REMARK    6  A    between atoms: C_11  and  N_12
REMARK                            x       y       z     vdW  Elec       q    Type
REMARK                         _______ _______ _______ _____ _____    ______ ____
ROOT
ATOM      1  C   UNL     1       2.320   7.723  19.009  0.00  0.00    +0.000 A 
ATOM      2  N   UNL     1       2.468   6.735  19.897  0.00  0.00    +0.000 NA
ATOM      3  C   UNL     1       3.403   5.813  19.605  0.00  0.00    +0.000 A 
ATOM      4  N   UNL     1       3.537   4.692  20.441  0.00  0.00    +0.000 N 
ATOM      5  C   UNL     1       4.217   5.905  18.456  0.00  0.00    +0.000 A 
ATOM      6  C   UNL     1       5.246   4.993  18.105  0.00  0.00    +0.000 A 
ATOM      7  C   UNL     1       5.966   5.148  16.922  0.00  0.00    +0.000 A 
ATOM      8  C   UNL     1       5.666   6.201  16.074  0.00  0.00    +0.000 A 
ATOM      9  C   UNL     1       4.654   7.102  16.419  0.00  0.00    +0.000 A 
ATOM     10  C   UNL     1       3.929   6.973  17.597  0.00  0.00    +0.000 A 
ATOM     11  N   UNL     1       2.983   7.873  17.857  0.00  0.00    +0.000 NA
ATOM     12  H   UNL     1       4.477   4.638  20.822  0.00  0.00    +0.000 HD
ENDROOT
BRANCH   1  14
ATOM     13  C   UNL     1       0.842   9.262  20.500  0.00  0.00    +0.000 A 
ATOM     14  C   UNL     1       1.351   8.761  19.306  0.00  0.00    +0.000 A 
ATOM     15  N   UNL     1       0.787   9.496  18.288  0.00  0.00    +0.000 N 
ATOM     16  C   UNL     1      -0.077  10.443  18.775  0.00  0.00    +0.000 A 
ATOM     17  C   UNL     1      -0.850  11.392  18.096  0.00  0.00    +0.000 A 
ATOM     18  C   UNL     1      -1.625  12.264  18.866  0.00  0.00    +0.000 A 
ATOM     19  C   UNL     1      -1.626  12.185  20.256  0.00  0.00    +0.000 A 
ATOM     20  C   UNL     1      -0.851  11.223  20.915  0.00  0.00    +0.000 A 
ATOM     21  C   UNL     1      -0.060  10.328  20.164  0.00  0.00    +0.000 A 
ATOM     22  H   UNL     1       1.005   9.355  17.311  0.00  0.00    +0.000 HD
BRANCH  13  24
ATOM     23  O   UNL     1       1.754   9.522  22.673  0.00  0.00    +0.000 OA
ATOM     24  C   UNL     1       1.214   8.809  21.830  0.00  0.00    +0.000 C 
ENDBRANCH  13  24
ENDBRANCH   1  14
BRANCH   4  25
ATOM     25  C   UNL     1       2.489   4.462  21.429  0.00  0.00    +0.000 C 
BRANCH  25  26
ATOM     26  C   UNL     1       1.733   3.191  21.031  0.00  0.00    +0.000 C 
BRANCH  26  27
ATOM     27  C   UNL     1       0.599   3.487  20.042  0.00  0.00    +0.000 C 
BRANCH  27  28
ATOM     28  N   UNL     1       0.781   2.794  18.755  0.00  0.00    +0.000 NA
ATOM     29  C   UNL     1       1.670   1.626  18.889  0.00  0.00    +0.000 C 
ATOM     30  C   UNL     1       3.005   2.069  18.324  0.00  0.00    +0.000 C 
ATOM     31  C   UNL     1       2.582   2.947  17.167  0.00  0.00    +0.000 C 
ATOM     32  C   UNL     1       1.354   3.661  17.709  0.00  0.00    +0.000 C 
ENDBRANCH  27  28
ENDBRANCH  26  27
ENDBRANCH  25  26
ENDBRANCH   4  25
TORSDOF 6
ENDMDL
MODEL 9
REMARK VINA RESULT:      -7.8      1.856      3.014
REMARK  Name = 
REMARK  6 active torsions:
REMARK  status: ('A' for Active; 'I' for Inactive)
REMARK    1  A    between atoms: C_2  and  C_3
REMARK    2  A    between atoms: C_4  and  C_5
REMARK    3  A    between atoms: N_8  and  C_9
REMARK    4  A    between atoms: C_9  and  C_10
REMARK    5  A    between atoms: C_10  and  C_11
REMARK    6  A    between atoms: C_11  and  N_12
REMARK                            x       y       z     vdW  Elec       q    Type
REMARK                         _______ _______ _______ _____ _____    ______ ____
ROOT
ATOM      1  C   UNL     1       1.921   7.403  19.733  0.00  0.00    +0.000 A 
ATOM      2  N   UNL     1       2.638   7.236  18.618  0.00  0.00    +0.000 NA
ATOM      3  C   UNL     1       3.165   6.012  18.433  0.00  0.00    +0.000 A 
ATOM      4  N   UNL     1       4.015   5.797  17.335  0.00  0.00    +0.000 N 
ATOM      5  C   UNL     1       2.937   4.950  19.334  0.00  0.00    +0.000 A 
ATOM      6  C   UNL     1       3.427   3.627  19.183  0.00  0.00    +0.000 A 
ATOM      7  C   UNL     1       3.182   2.659  20.154  0.00  0.00    +0.000 A 
ATOM      8  C   UNL     1       2.459   2.996  21.286  0.00  0.00    +0.000 A 
ATOM      9  C   UNL     1       1.973   4.298  21.435  0.00  0.00    +0.000 A 
ATOM     10  C   UNL     1       2.196   5.278  20.476  0.00  0.00    +0.000 A 
ATOM     11  N   UNL     1       1.698   6.494  20.689  0.00  0.00    +0.000 NA
ATOM     12  H   UNL     1       3.651   5.064  16.736  0.00  0.00    +0.000 HD
ENDROOT
BRANCH   1  14
ATOM     13  C   UNL     1       0.944   9.389  21.105  0.00  0.00    +0.000 A 
ATOM     14  C   UNL     1       1.300   8.697  19.952  0.00  0.00    +0.000 A 
ATOM     15  N   UNL     1       0.999   9.511  18.883  0.00  0.00    +0.000 N 
ATOM     16  C   UNL     1       0.449  10.696  19.299  0.00  0.00    +0.000 A 
ATOM     17  C   UNL     1       0.007  11.795  18.554  0.00  0.00    +0.000 A 
ATOM     18  C   UNL     1      -0.487  12.897  19.257  0.00  0.00    +0.000 A 
ATOM     19  C   UNL     1      -0.535  12.896  20.649  0.00  0.00    +0.000 A 
ATOM     20  C   UNL     1      -0.095  11.783  21.376  0.00  0.00    +0.000 A 
ATOM     21  C   UNL     1       0.407  10.654  20.692  0.00  0.00    +0.000 A 
ATOM     22  H   UNL     1       1.183   9.260  17.921  0.00  0.00    +0.000 HD
BRANCH  13  24
ATOM     23  O   UNL     1       1.047   9.630  23.461  0.00  0.00    +0.000 OA
ATOM     24  C   UNL     1       1.140   8.916  22.465  0.00  0.00    +0.000 C 
ENDBRANCH  13  24
ENDBRANCH   1  14
BRANCH   4  25
ATOM     25  C   UNL     1       4.483   6.972  16.608  0.00  0.00    +0.000 C 
BRANCH  25  26
ATOM     26  C   UNL     1       5.421   6.499  15.495  0.00  0.00    +0.000 C 
BRANCH  26  27
ATOM     27  C   UNL     1       6.154   5.208  15.877  0.00  0.00    +0.000 C 
BRANCH  27  28
ATOM     28  N   UNL     1       7.425   5.468  16.573  0.00  0.00    +0.000 NA
ATOM     29  C   UNL     1       7.576   4.615  17.765  0.00  0.00    +0.000 C 
ATOM     30  C   UNL     1       7.267   5.515  18.946  0.00  0.00    +0.000 C 
ATOM     31  C   UNL     1       7.869   6.830  18.507  0.00  0.00    +0.000 C 
ATOM     32  C   UNL     1       7.564   6.868  17.018  0.00  0.00    +0.000 C 
ENDBRANCH  27  28
ENDBRANCH  26  27
ENDBRANCH  25  26
ENDBRANCH   4  25
TORSDOF 6
ENDMDL
