MODEL 1
REMARK VINA RESULT:      -8.2      0.000      0.000
REMARK  Name = 
REMARK  11 active torsions:
REMARK  status: ('A' for Active; 'I' for Inactive)
REMARK    1  A    between atoms: C_1  and  O_2
REMARK    2  A    between atoms: O_2  and  C_3
REMARK    3  A    between atoms: C_6  and  O_7
REMARK    4  A    between atoms: O_7  and  S_8
REMARK    5  A    between atoms: S_8  and  C_11
REMARK    6  A    between atoms: C_14  and  N_15
REMARK    7  A    between atoms: N_18  and  C_19
REMARK    8  A    between atoms: C_19  and  C_20
REMARK    9  A    between atoms: C_19  and  C_21
REMARK   10  A    between atoms: C_27  and  O_28
REMARK   11  A    between atoms: O_28  and  C_29
REMARK                            x       y       z     vdW  Elec       q    Type
REMARK                         _______ _______ _______ _____ _____    ______ ____
ROOT
ATOM      1  C   UNL     1       1.294   9.173  19.749  0.00  0.00    +0.000 A 
ATOM      2  C   UNL     1       1.676   9.246  18.410  0.00  0.00    +0.000 A 
ATOM      3  C   UNL     1       2.370   8.173  17.839  0.00  0.00    +0.000 A 
ATOM      4  C   UNL     1       2.652   7.019  18.583  0.00  0.00    +0.000 A 
ATOM      5  C   UNL     1       2.266   6.976  19.931  0.00  0.00    +0.000 A 
ATOM      6  C   UNL     1       1.601   8.050  20.518  0.00  0.00    +0.000 A 
ENDROOT
BRANCH   4   7
ATOM      7  N   UNL     1       3.266   5.897  17.988  0.00  0.00    +0.000 N 
ATOM      8  C   UNL     1       2.768   4.548  18.145  0.00  0.00    +0.000 C 
ATOM      9  C   UNL     1       3.474   3.789  17.039  0.00  0.00    +0.000 C 
ATOM     10  N   UNL     1       4.692   4.544  16.867  0.00  0.00    +0.000 N 
ATOM     11  C   UNL     1       4.478   5.880  17.257  0.00  0.00    +0.000 C 
ATOM     12  O   UNL     1       5.232   6.808  17.022  0.00  0.00    +0.000 OA
BRANCH  10  13
ATOM     13  C   UNL     1       5.825   4.102  16.059  0.00  0.00    +0.000 C 
ATOM     14  C   UNL     1       5.701   4.608  14.624  0.00  0.00    +0.000 C 
ATOM     15  C   UNL     1       7.161   4.508  16.675  0.00  0.00    +0.000 C 
ENDBRANCH  10  13
ENDBRANCH   4   7
BRANCH   1  16
ATOM     16  S   UNL     1       0.334  10.472  20.491  0.00  0.00    +0.000 S 
ATOM     17  O   UNL     1       1.255  11.246  21.294  0.00  0.00    +0.000 OA
ATOM     18  O   UNL     1      -0.821   9.812  21.077  0.00  0.00    +0.000 OA
BRANCH  16  19
ATOM     19  O   UNL     1      -0.161  11.376  19.220  0.00  0.00    +0.000 OA
BRANCH  19  23
ATOM     20  C   UNL     1      -4.040  11.230  17.664  0.00  0.00    +0.000 A 
ATOM     21  C   UNL     1      -3.724  11.974  18.813  0.00  0.00    +0.000 A 
ATOM     22  C   UNL     1      -2.418  12.002  19.314  0.00  0.00    +0.000 A 
ATOM     23  C   UNL     1      -1.421  11.248  18.703  0.00  0.00    +0.000 A 
ATOM     24  C   UNL     1      -1.749  10.459  17.601  0.00  0.00    +0.000 A 
ATOM     25  C   UNL     1      -3.050  10.430  17.079  0.00  0.00    +0.000 A 
BRANCH  20  27
ATOM     26  C   UNL     1      -6.042  12.448  17.355  0.00  0.00    +0.000 C 
ATOM     27  O   UNL     1      -5.296  11.256  17.121  0.00  0.00    +0.000 OA
ENDBRANCH  20  27
BRANCH  25  28
ATOM     28  O   UNL     1      -3.136   9.594  15.998  0.00  0.00    +0.000 OA
ATOM     29  C   UNL     1      -3.001  10.123  14.691  0.00  0.00    +0.000 C 
ENDBRANCH  25  28
ENDBRANCH  19  23
ENDBRANCH  16  19
ENDBRANCH   1  16
TORSDOF 7
ENDMDL
MODEL 2
REMARK VINA RESULT:      -8.0      3.767      9.055
REMARK  Name = 
REMARK  11 active torsions:
REMARK  status: ('A' for Active; 'I' for Inactive)
REMARK    1  A    between atoms: C_1  and  O_2
REMARK    2  A    between atoms: O_2  and  C_3
REMARK    3  A    between atoms: C_6  and  O_7
REMARK    4  A    between atoms: O_7  and  S_8
REMARK    5  A    between atoms: S_8  and  C_11
REMARK    6  A    between atoms: C_14  and  N_15
REMARK    7  A    between atoms: N_18  and  C_19
REMARK    8  A    between atoms: C_19  and  C_20
REMARK    9  A    between atoms: C_19  and  C_21
REMARK   10  A    between atoms: C_27  and  O_28
REMARK   11  A    between atoms: O_28  and  C_29
REMARK                            x       y       z     vdW  Elec       q    Type
REMARK                         _______ _______ _______ _____ _____    ______ ____
ROOT
ATOM      1  C   UNL     1       2.478   4.995  18.931  0.00  0.00    +0.000 A 
ATOM      2  C   UNL     1       2.248   5.462  20.224  0.00  0.00    +0.000 A 
ATOM      3  C   UNL     1       1.941   6.814  20.418  0.00  0.00    +0.000 A 
ATOM      4  C   UNL     1       1.826   7.690  19.329  0.00  0.00    +0.000 A 
ATOM      5  C   UNL     1       2.072   7.196  18.039  0.00  0.00    +0.000 A 
ATOM      6  C   UNL     1       2.408   5.859  17.837  0.00  0.00    +0.000 A 
ENDROOT
BRANCH   4   7
ATOM      7  N   UNL     1       1.423   9.030  19.507  0.00  0.00    +0.000 N 
ATOM      8  C   UNL     1       1.543  10.035  18.473  0.00  0.00    +0.000 C 
ATOM      9  C   UNL     1       0.640  11.148  18.968  0.00  0.00    +0.000 C 
ATOM     10  N   UNL     1       0.680  10.972  20.401  0.00  0.00    +0.000 N 
ATOM     11  C   UNL     1       0.953   9.623  20.702  0.00  0.00    +0.000 C 
ATOM     12  O   UNL     1       0.829   9.113  21.802  0.00  0.00    +0.000 OA
BRANCH  10  13
ATOM     13  C   UNL     1       0.140  11.929  21.361  0.00  0.00    +0.000 C 
ATOM     14  C   UNL     1       0.767  13.309  21.167  0.00  0.00    +0.000 C 
ATOM     15  C   UNL     1      -1.383  12.002  21.303  0.00  0.00    +0.000 C 
ENDBRANCH  10  13
ENDBRANCH   4   7
BRANCH   1  16
ATOM     16  S   UNL     1       2.783   3.271  18.630  0.00  0.00    +0.000 S 
ATOM     17  O   UNL     1       2.258   2.991  17.312  0.00  0.00    +0.000 OA
ATOM     18  O   UNL     1       2.292   2.580  19.811  0.00  0.00    +0.000 OA
BRANCH  16  19
ATOM     19  O   UNL     1       4.415   3.157  18.592  0.00  0.00    +0.000 OA
BRANCH  19  23
ATOM     20  C   UNL     1       6.946   6.206  17.254  0.00  0.00    +0.000 A 
ATOM     21  C   UNL     1       6.669   6.010  18.618  0.00  0.00    +0.000 A 
ATOM     22  C   UNL     1       5.815   4.985  19.036  0.00  0.00    +0.000 A 
ATOM     23  C   UNL     1       5.189   4.172  18.097  0.00  0.00    +0.000 A 
ATOM     24  C   UNL     1       5.415   4.406  16.742  0.00  0.00    +0.000 A 
ATOM     25  C   UNL     1       6.278   5.422  16.305  0.00  0.00    +0.000 A 
BRANCH  20  27
ATOM     26  C   UNL     1       7.936   8.313  17.666  0.00  0.00    +0.000 C 
ATOM     27  O   UNL     1       7.839   7.157  16.838  0.00  0.00    +0.000 OA
ENDBRANCH  20  27
BRANCH  25  28
ATOM     28  O   UNL     1       6.350   5.462  14.939  0.00  0.00    +0.000 OA
ATOM     29  C   UNL     1       6.151   4.275  14.191  0.00  0.00    +0.000 C 
ENDBRANCH  25  28
ENDBRANCH  19  23
ENDBRANCH  16  19
ENDBRANCH   1  16
TORSDOF 7
ENDMDL
MODEL 3
REMARK VINA RESULT:      -7.9      3.401      8.888
REMARK  Name = 
REMARK  11 active torsions:
REMARK  status: ('A' for Active; 'I' for Inactive)
REMARK    1  A    between atoms: C_1  and  O_2
REMARK    2  A    between atoms: O_2  and  C_3
REMARK    3  A    between atoms: C_6  and  O_7
REMARK    4  A    between atoms: O_7  and  S_8
REMARK    5  A    between atoms: S_8  and  C_11
REMARK    6  A    between atoms: C_14  and  N_15
REMARK    7  A    between atoms: N_18  and  C_19
REMARK    8  A    between atoms: C_19  and  C_20
REMARK    9  A    between atoms: C_19  and  C_21
REMARK   10  A    between atoms: C_27  and  O_28
REMARK   11  A    between atoms: O_28  and  C_29
REMARK                            x       y       z     vdW  Elec       q    Type
REMARK                         _______ _______ _______ _____ _____    ______ ____
ROOT
ATOM      1  C   UNL     1       2.408   4.836  18.979  0.00  0.00    +0.000 A 
ATOM      2  C   UNL     1       2.025   5.110  20.291  0.00  0.00    +0.000 A 
ATOM      3  C   UNL     1       1.707   6.425  20.648  0.00  0.00    +0.000 A 
ATOM      4  C   UNL     1       1.732   7.456  19.699  0.00  0.00    +0.000 A 
ATOM      5  C   UNL     1       2.131   7.155  18.388  0.00  0.00    +0.000 A 
ATOM      6  C   UNL     1       2.478   5.855  18.028  0.00  0.00    +0.000 A 
ENDROOT
BRANCH   4   7
ATOM      7  N   UNL     1       1.321   8.765  20.028  0.00  0.00    +0.000 N 
ATOM      8  C   UNL     1       0.964   9.166  21.372  0.00  0.00    +0.000 C 
ATOM      9  C   UNL     1       0.998  10.681  21.299  0.00  0.00    +0.000 C 
ATOM     10  N   UNL     1       0.692  10.936  19.911  0.00  0.00    +0.000 N 
ATOM     11  C   UNL     1       1.093   9.834  19.130  0.00  0.00    +0.000 C 
ATOM     12  O   UNL     1       1.179   9.832  17.914  0.00  0.00    +0.000 OA
BRANCH  10  13
ATOM     13  C   UNL     1       0.392  12.256  19.366  0.00  0.00    +0.000 C 
ATOM     14  C   UNL     1       1.611  12.843  18.657  0.00  0.00    +0.000 C 
ATOM     15  C   UNL     1      -0.825  12.233  18.446  0.00  0.00    +0.000 C 
ENDBRANCH  10  13
ENDBRANCH   4   7
BRANCH   1  16
ATOM     16  S   UNL     1       2.735   3.168  18.459  0.00  0.00    +0.000 S 
ATOM     17  O   UNL     1       2.243   3.064  17.102  0.00  0.00    +0.000 OA
ATOM     18  O   UNL     1       2.221   2.324  19.524  0.00  0.00    +0.000 OA
BRANCH  16  19
ATOM     19  O   UNL     1       4.368   3.069  18.447  0.00  0.00    +0.000 OA
BRANCH  19  23
ATOM     20  C   UNL     1       6.906   6.153  17.207  0.00  0.00    +0.000 A 
ATOM     21  C   UNL     1       6.703   5.853  18.564  0.00  0.00    +0.000 A 
ATOM     22  C   UNL     1       5.845   4.819  18.950  0.00  0.00    +0.000 A 
ATOM     23  C   UNL     1       5.141   4.101  17.988  0.00  0.00    +0.000 A 
ATOM     24  C   UNL     1       5.295   4.440  16.645  0.00  0.00    +0.000 A 
ATOM     25  C   UNL     1       6.160   5.466  16.240  0.00  0.00    +0.000 A 
BRANCH  20  27
ATOM     26  C   UNL     1       7.855   8.275  17.637  0.00  0.00    +0.000 C 
ATOM     27  O   UNL     1       7.801   7.112  16.814  0.00  0.00    +0.000 OA
ENDBRANCH  20  27
BRANCH  25  28
ATOM     28  O   UNL     1       6.154   5.617  14.880  0.00  0.00    +0.000 OA
ATOM     29  C   UNL     1       6.965   4.776  14.078  0.00  0.00    +0.000 C 
ENDBRANCH  25  28
ENDBRANCH  19  23
ENDBRANCH  16  19
ENDBRANCH   1  16
TORSDOF 7
ENDMDL
MODEL 4
REMARK VINA RESULT:      -7.9      3.695      8.922
REMARK  Name = 
REMARK  11 active torsions:
REMARK  status: ('A' for Active; 'I' for Inactive)
REMARK    1  A    between atoms: C_1  and  O_2
REMARK    2  A    between atoms: O_2  and  C_3
REMARK    3  A    between atoms: C_6  and  O_7
REMARK    4  A    between atoms: O_7  and  S_8
REMARK    5  A    between atoms: S_8  and  C_11
REMARK    6  A    between atoms: C_14  and  N_15
REMARK    7  A    between atoms: N_18  and  C_19
REMARK    8  A    between atoms: C_19  and  C_20
REMARK    9  A    between atoms: C_19  and  C_21
REMARK   10  A    between atoms: C_27  and  O_28
REMARK   11  A    between atoms: O_28  and  C_29
REMARK                            x       y       z     vdW  Elec       q    Type
REMARK                         _______ _______ _______ _____ _____    ______ ____
ROOT
ATOM      1  C   UNL     1       2.847   4.632  19.131  0.00  0.00    +0.000 A 
ATOM      2  C   UNL     1       2.825   5.567  18.098  0.00  0.00    +0.000 A 
ATOM      3  C   UNL     1       2.316   6.847  18.345  0.00  0.00    +0.000 A 
ATOM      4  C   UNL     1       1.865   7.208  19.622  0.00  0.00    +0.000 A 
ATOM      5  C   UNL     1       1.888   6.245  20.642  0.00  0.00    +0.000 A 
ATOM      6  C   UNL     1       2.365   4.959  20.400  0.00  0.00    +0.000 A 
ENDROOT
BRANCH   4   7
ATOM      7  N   UNL     1       1.441   8.524  19.904  0.00  0.00    +0.000 N 
ATOM      8  C   UNL     1       1.023   8.955  21.220  0.00  0.00    +0.000 C 
ATOM      9  C   UNL     1       1.063  10.468  21.116  0.00  0.00    +0.000 C 
ATOM     10  N   UNL     1       0.823  10.693  19.710  0.00  0.00    +0.000 N 
ATOM     11  C   UNL     1       1.257   9.574  18.973  0.00  0.00    +0.000 C 
ATOM     12  O   UNL     1       1.400   9.545  17.762  0.00  0.00    +0.000 OA
BRANCH  10  13
ATOM     13  C   UNL     1       0.551  12.001  19.123  0.00  0.00    +0.000 C 
ATOM     14  C   UNL     1      -0.549  12.727  19.895  0.00  0.00    +0.000 C 
ATOM     15  C   UNL     1       1.811  12.857  19.021  0.00  0.00    +0.000 C 
ENDBRANCH  10  13
ENDBRANCH   4   7
BRANCH   1  16
ATOM     16  S   UNL     1       3.564   3.024  18.886  0.00  0.00    +0.000 S 
ATOM     17  O   UNL     1       3.283   2.661  17.515  0.00  0.00    +0.000 OA
ATOM     18  O   UNL     1       3.096   2.219  20.001  0.00  0.00    +0.000 OA
BRANCH  16  19
ATOM     19  O   UNL     1       5.172   3.278  19.055  0.00  0.00    +0.000 OA
BRANCH  19  23
ATOM     20  C   UNL     1       7.253   6.492  17.373  0.00  0.00    +0.000 A 
ATOM     21  C   UNL     1       7.051   6.376  18.758  0.00  0.00    +0.000 A 
ATOM     22  C   UNL     1       6.348   5.292  19.293  0.00  0.00    +0.000 A 
ATOM     23  C   UNL     1       5.794   4.335  18.448  0.00  0.00    +0.000 A 
ATOM     24  C   UNL     1       5.940   4.484  17.070  0.00  0.00    +0.000 A 
ATOM     25  C   UNL     1       6.653   5.559  16.518  0.00  0.00    +0.000 A 
BRANCH  20  27
ATOM     26  C   UNL     1       8.009   8.722  17.591  0.00  0.00    +0.000 C 
ATOM     27  O   UNL     1       8.004   7.507  16.844  0.00  0.00    +0.000 OA
ENDBRANCH  20  27
BRANCH  25  28
ATOM     28  O   UNL     1       6.670   5.496  15.151  0.00  0.00    +0.000 OA
ATOM     29  C   UNL     1       6.197   4.331  14.497  0.00  0.00    +0.000 C 
ENDBRANCH  25  28
ENDBRANCH  19  23
ENDBRANCH  16  19
ENDBRANCH   1  16
TORSDOF 7
ENDMDL
MODEL 5
REMARK VINA RESULT:      -7.8      3.750      9.011
REMARK  Name = 
REMARK  11 active torsions:
REMARK  status: ('A' for Active; 'I' for Inactive)
REMARK    1  A    between atoms: C_1  and  O_2
REMARK    2  A    between atoms: O_2  and  C_3
REMARK    3  A    between atoms: C_6  and  O_7
REMARK    4  A    between atoms: O_7  and  S_8
REMARK    5  A    between atoms: S_8  and  C_11
REMARK    6  A    between atoms: C_14  and  N_15
REMARK    7  A    between atoms: N_18  and  C_19
REMARK    8  A    between atoms: C_19  and  C_20
REMARK    9  A    between atoms: C_19  and  C_21
REMARK   10  A    between atoms: C_27  and  O_28
REMARK   11  A    between atoms: O_28  and  C_29
REMARK                            x       y       z     vdW  Elec       q    Type
REMARK                         _______ _______ _______ _____ _____    ______ ____
ROOT
ATOM      1  C   UNL     1       2.899   4.601  19.039  0.00  0.00    +0.000 A 
ATOM      2  C   UNL     1       2.684   5.339  17.876  0.00  0.00    +0.000 A 
ATOM      3  C   UNL     1       2.218   6.655  17.978  0.00  0.00    +0.000 A 
ATOM      4  C   UNL     1       2.002   7.247  19.229  0.00  0.00    +0.000 A 
ATOM      5  C   UNL     1       2.216   6.480  20.384  0.00  0.00    +0.000 A 
ATOM      6  C   UNL     1       2.652   5.160  20.294  0.00  0.00    +0.000 A 
ENDROOT
BRANCH   4   7
ATOM      7  N   UNL     1       1.625   8.602  19.342  0.00  0.00    +0.000 N 
ATOM      8  C   UNL     1       1.830   9.570  18.286  0.00  0.00    +0.000 C 
ATOM      9  C   UNL     1       0.929  10.720  18.694  0.00  0.00    +0.000 C 
ATOM     10  N   UNL     1       0.883  10.589  20.131  0.00  0.00    +0.000 N 
ATOM     11  C   UNL     1       1.102   9.245  20.490  0.00  0.00    +0.000 C 
ATOM     12  O   UNL     1       0.903   8.774  21.596  0.00  0.00    +0.000 OA
BRANCH  10  13
ATOM     13  C   UNL     1       0.314  11.590  21.028  0.00  0.00    +0.000 C 
ATOM     14  C   UNL     1       0.984  12.948  20.825  0.00  0.00    +0.000 C 
ATOM     15  C   UNL     1      -1.202  11.695  20.883  0.00  0.00    +0.000 C 
ENDBRANCH  10  13
ENDBRANCH   4   7
BRANCH   1  16
ATOM     16  S   UNL     1       3.574   2.959  18.961  0.00  0.00    +0.000 S 
ATOM     17  O   UNL     1       3.198   2.429  17.669  0.00  0.00    +0.000 OA
ATOM     18  O   UNL     1       3.167   2.315  20.199  0.00  0.00    +0.000 OA
BRANCH  16  19
ATOM     19  O   UNL     1       5.193   3.193  18.994  0.00  0.00    +0.000 OA
BRANCH  19  23
ATOM     20  C   UNL     1       7.122   6.500  17.310  0.00  0.00    +0.000 A 
ATOM     21  C   UNL     1       6.839   6.421  18.684  0.00  0.00    +0.000 A 
ATOM     22  C   UNL     1       6.188   5.304  19.219  0.00  0.00    +0.000 A 
ATOM     23  C   UNL     1       5.770   4.274  18.383  0.00  0.00    +0.000 A 
ATOM     24  C   UNL     1       5.996   4.382  17.012  0.00  0.00    +0.000 A 
ATOM     25  C   UNL     1       6.657   5.489  16.461  0.00  0.00    +0.000 A 
BRANCH  20  27
ATOM     26  C   UNL     1       8.021   8.658  17.666  0.00  0.00    +0.000 C 
ATOM     27  O   UNL     1       7.825   7.552  16.787  0.00  0.00    +0.000 OA
ENDBRANCH  20  27
BRANCH  25  28
ATOM     28  O   UNL     1       6.770   5.376  15.101  0.00  0.00    +0.000 OA
ATOM     29  C   UNL     1       6.012   4.395  14.414  0.00  0.00    +0.000 C 
ENDBRANCH  25  28
ENDBRANCH  19  23
ENDBRANCH  16  19
ENDBRANCH   1  16
TORSDOF 7
ENDMDL
MODEL 6
REMARK VINA RESULT:      -7.8      1.165      2.390
REMARK  Name = 
REMARK  11 active torsions:
REMARK  status: ('A' for Active; 'I' for Inactive)
REMARK    1  A    between atoms: C_1  and  O_2
REMARK    2  A    between atoms: O_2  and  C_3
REMARK    3  A    between atoms: C_6  and  O_7
REMARK    4  A    between atoms: O_7  and  S_8
REMARK    5  A    between atoms: S_8  and  C_11
REMARK    6  A    between atoms: C_14  and  N_15
REMARK    7  A    between atoms: N_18  and  C_19
REMARK    8  A    between atoms: C_19  and  C_20
REMARK    9  A    between atoms: C_19  and  C_21
REMARK   10  A    between atoms: C_27  and  O_28
REMARK   11  A    between atoms: O_28  and  C_29
REMARK                            x       y       z     vdW  Elec       q    Type
REMARK                         _______ _______ _______ _____ _____    ______ ____
ROOT
ATOM      1  C   UNL     1       1.105   9.230  19.779  0.00  0.00    +0.000 A 
ATOM      2  C   UNL     1       1.502   8.139  20.551  0.00  0.00    +0.000 A 
ATOM      3  C   UNL     1       2.219   7.100  19.947  0.00  0.00    +0.000 A 
ATOM      4  C   UNL     1       2.572   7.161  18.592  0.00  0.00    +0.000 A 
ATOM      5  C   UNL     1       2.152   8.265  17.836  0.00  0.00    +0.000 A 
ATOM      6  C   UNL     1       1.413   9.291  18.419  0.00  0.00    +0.000 A 
ENDROOT
BRANCH   4   7
ATOM      7  N   UNL     1       3.376   6.164  18.000  0.00  0.00    +0.000 N 
ATOM      8  C   UNL     1       3.044   4.756  18.036  0.00  0.00    +0.000 C 
ATOM      9  C   UNL     1       3.937   4.164  16.963  0.00  0.00    +0.000 C 
ATOM     10  N   UNL     1       5.059   5.073  16.951  0.00  0.00    +0.000 N 
ATOM     11  C   UNL     1       4.640   6.345  17.390  0.00  0.00    +0.000 C 
ATOM     12  O   UNL     1       5.287   7.372  17.279  0.00  0.00    +0.000 OA
BRANCH  10  13
ATOM     13  C   UNL     1       6.306   4.828  16.234  0.00  0.00    +0.000 C 
ATOM     14  C   UNL     1       7.435   4.488  17.205  0.00  0.00    +0.000 C 
ATOM     15  C   UNL     1       6.152   3.749  15.166  0.00  0.00    +0.000 C 
ENDBRANCH  10  13
ENDBRANCH   4   7
BRANCH   1  16
ATOM     16  S   UNL     1       0.271  10.612  20.522  0.00  0.00    +0.000 S 
ATOM     17  O   UNL     1       1.295  11.396  21.179  0.00  0.00    +0.000 OA
ATOM     18  O   UNL     1      -0.843  10.040  21.259  0.00  0.00    +0.000 OA
BRANCH  16  19
ATOM     19  O   UNL     1      -0.314  11.455  19.247  0.00  0.00    +0.000 OA
BRANCH  19  23
ATOM     20  C   UNL     1      -4.421  11.416  18.458  0.00  0.00    +0.000 A 
ATOM     21  C   UNL     1      -3.511  10.642  17.718  0.00  0.00    +0.000 A 
ATOM     22  C   UNL     1      -2.142  10.678  18.001  0.00  0.00    +0.000 A 
ATOM     23  C   UNL     1      -1.657  11.523  18.995  0.00  0.00    +0.000 A 
ATOM     24  C   UNL     1      -2.553  12.337  19.686  0.00  0.00    +0.000 A 
ATOM     25  C   UNL     1      -3.930  12.305  19.422  0.00  0.00    +0.000 A 
BRANCH  20  27
ATOM     26  C   UNL     1      -6.418  10.204  18.824  0.00  0.00    +0.000 C 
ATOM     27  O   UNL     1      -5.770  11.332  18.240  0.00  0.00    +0.000 OA
ENDBRANCH  20  27
BRANCH  25  28
ATOM     28  O   UNL     1      -4.612  13.181  20.222  0.00  0.00    +0.000 OA
ATOM     29  C   UNL     1      -4.844  12.855  21.582  0.00  0.00    +0.000 C 
ENDBRANCH  25  28
ENDBRANCH  19  23
ENDBRANCH  16  19
ENDBRANCH   1  16
TORSDOF 7
ENDMDL
MODEL 7
REMARK VINA RESULT:      -7.8      2.025      3.080
REMARK  Name = 
REMARK  11 active torsions:
REMARK  status: ('A' for Active; 'I' for Inactive)
REMARK    1  A    between atoms: C_1  and  O_2
REMARK    2  A    between atoms: O_2  and  C_3
REMARK    3  A    between atoms: C_6  and  O_7
REMARK    4  A    between atoms: O_7  and  S_8
REMARK    5  A    between atoms: S_8  and  C_11
REMARK    6  A    between atoms: C_14  and  N_15
REMARK    7  A    between atoms: N_18  and  C_19
REMARK    8  A    between atoms: C_19  and  C_20
REMARK    9  A    between atoms: C_19  and  C_21
REMARK   10  A    between atoms: C_27  and  O_28
REMARK   11  A    between atoms: O_28  and  C_29
REMARK                            x       y       z     vdW  Elec       q    Type
REMARK                         _______ _______ _______ _____ _____    ______ ____
ROOT
ATOM      1  C   UNL     1       0.909  10.109  19.554  0.00  0.00    +0.000 A 
ATOM      2  C   UNL     1       1.548   9.764  18.364  0.00  0.00    +0.000 A 
ATOM      3  C   UNL     1       2.208   8.533  18.276  0.00  0.00    +0.000 A 
ATOM      4  C   UNL     1       2.201   7.633  19.350  0.00  0.00    +0.000 A 
ATOM      5  C   UNL     1       1.559   8.009  20.540  0.00  0.00    +0.000 A 
ATOM      6  C   UNL     1       0.924   9.245  20.649  0.00  0.00    +0.000 A 
ENDROOT
BRANCH   4   7
ATOM      7  N   UNL     1       2.780   6.352  19.236  0.00  0.00    +0.000 N 
ATOM      8  C   UNL     1       3.917   6.072  18.386  0.00  0.00    +0.000 C 
ATOM      9  C   UNL     1       4.407   4.731  18.897  0.00  0.00    +0.000 C 
ATOM     10  N   UNL     1       3.202   4.136  19.426  0.00  0.00    +0.000 N 
ATOM     11  C   UNL     1       2.310   5.152  19.820  0.00  0.00    +0.000 C 
ATOM     12  O   UNL     1       1.315   4.983  20.504  0.00  0.00    +0.000 OA
BRANCH  10  13
ATOM     13  C   UNL     1       3.091   2.744  19.847  0.00  0.00    +0.000 C 
ATOM     14  C   UNL     1       2.336   1.918  18.808  0.00  0.00    +0.000 C 
ATOM     15  C   UNL     1       4.452   2.128  20.159  0.00  0.00    +0.000 C 
ENDBRANCH  10  13
ENDBRANCH   4   7
BRANCH   1  16
ATOM     16  S   UNL     1      -0.015  11.622  19.681  0.00  0.00    +0.000 S 
ATOM     17  O   UNL     1       0.289  12.383  18.490  0.00  0.00    +0.000 OA
ATOM     18  O   UNL     1       0.270  12.137  21.010  0.00  0.00    +0.000 OA
BRANCH  16  19
ATOM     19  O   UNL     1      -1.577  11.139  19.626  0.00  0.00    +0.000 OA
BRANCH  19  23
ATOM     20  C   UNL     1      -3.556  10.451  16.006  0.00  0.00    +0.000 A 
ATOM     21  C   UNL     1      -2.342   9.819  16.325  0.00  0.00    +0.000 A 
ATOM     22  C   UNL     1      -1.700  10.071  17.542  0.00  0.00    +0.000 A 
ATOM     23  C   UNL     1      -2.236  10.994  18.435  0.00  0.00    +0.000 A 
ATOM     24  C   UNL     1      -3.407  11.667  18.090  0.00  0.00    +0.000 A 
ATOM     25  C   UNL     1      -4.070  11.417  16.880  0.00  0.00    +0.000 A 
BRANCH  20  27
ATOM     26  C   UNL     1      -3.424  10.015  13.686  0.00  0.00    +0.000 C 
ATOM     27  O   UNL     1      -4.232  10.155  14.853  0.00  0.00    +0.000 OA
ENDBRANCH  20  27
BRANCH  25  28
ATOM     28  O   UNL     1      -5.195  12.186  16.759  0.00  0.00    +0.000 OA
ATOM     29  C   UNL     1      -6.188  12.139  17.769  0.00  0.00    +0.000 C 
ENDBRANCH  25  28
ENDBRANCH  19  23
ENDBRANCH  16  19
ENDBRANCH   1  16
TORSDOF 7
ENDMDL
MODEL 8
REMARK VINA RESULT:      -7.8      3.771      9.562
REMARK  Name = 
REMARK  11 active torsions:
REMARK  status: ('A' for Active; 'I' for Inactive)
REMARK    1  A    between atoms: C_1  and  O_2
REMARK    2  A    between atoms: O_2  and  C_3
REMARK    3  A    between atoms: C_6  and  O_7
REMARK    4  A    between atoms: O_7  and  S_8
REMARK    5  A    between atoms: S_8  and  C_11
REMARK    6  A    between atoms: C_14  and  N_15
REMARK    7  A    between atoms: N_18  and  C_19
REMARK    8  A    between atoms: C_19  and  C_20
REMARK    9  A    between atoms: C_19  and  C_21
REMARK   10  A    between atoms: C_27  and  O_28
REMARK   11  A    between atoms: O_28  and  C_29
REMARK                            x       y       z     vdW  Elec       q    Type
REMARK                         _______ _______ _______ _____ _____    ______ ____
ROOT
ATOM      1  C   UNL     1       2.741   5.986  19.317  0.00  0.00    +0.000 A 
ATOM      2  C   UNL     1       2.092   6.124  20.543  0.00  0.00    +0.000 A 
ATOM      3  C   UNL     1       1.445   7.329  20.842  0.00  0.00    +0.000 A 
ATOM      4  C   UNL     1       1.409   8.377  19.912  0.00  0.00    +0.000 A 
ATOM      5  C   UNL     1       2.079   8.217  18.690  0.00  0.00    +0.000 A 
ATOM      6  C   UNL     1       2.752   7.033  18.394  0.00  0.00    +0.000 A 
ENDROOT
BRANCH   4   7
ATOM      7  N   UNL     1       0.678   9.556  20.167  0.00  0.00    +0.000 N 
ATOM      8  C   UNL     1      -0.021  10.290  19.135  0.00  0.00    +0.000 C 
ATOM      9  C   UNL     1      -0.952  11.192  19.924  0.00  0.00    +0.000 C 
ATOM     10  N   UNL     1      -0.240  11.367  21.168  0.00  0.00    +0.000 N 
ATOM     11  C   UNL     1       0.592  10.253  21.396  0.00  0.00    +0.000 C 
ATOM     12  O   UNL     1       1.143   9.995  22.452  0.00  0.00    +0.000 OA
BRANCH  10  13
ATOM     13  C   UNL     1      -0.614  12.330  22.199  0.00  0.00    +0.000 C 
ATOM     14  C   UNL     1      -0.938  13.689  21.583  0.00  0.00    +0.000 C 
ATOM     15  C   UNL     1      -1.766  11.826  23.064  0.00  0.00    +0.000 C 
ENDBRANCH  10  13
ENDBRANCH   4   7
BRANCH   1  16
ATOM     16  S   UNL     1       3.500   4.446  18.859  0.00  0.00    +0.000 S 
ATOM     17  O   UNL     1       2.577   3.406  19.259  0.00  0.00    +0.000 OA
ATOM     18  O   UNL     1       4.852   4.510  19.387  0.00  0.00    +0.000 OA
BRANCH  16  19
ATOM     19  O   UNL     1       3.566   4.505  17.225  0.00  0.00    +0.000 OA
BRANCH  19  23
ATOM     20  C   UNL     1       7.051   5.132  15.001  0.00  0.00    +0.000 A 
ATOM     21  C   UNL     1       6.158   4.087  14.710  0.00  0.00    +0.000 A 
ATOM     22  C   UNL     1       5.001   3.899  15.474  0.00  0.00    +0.000 A 
ATOM     23  C   UNL     1       4.746   4.720  16.567  0.00  0.00    +0.000 A 
ATOM     24  C   UNL     1       5.664   5.717  16.893  0.00  0.00    +0.000 A 
ATOM     25  C   UNL     1       6.823   5.927  16.130  0.00  0.00    +0.000 A 
BRANCH  20  27
ATOM     26  C   UNL     1       7.951   5.185  12.814  0.00  0.00    +0.000 C 
ATOM     27  O   UNL     1       8.145   5.373  14.214  0.00  0.00    +0.000 OA
ENDBRANCH  20  27
BRANCH  25  28
ATOM     28  O   UNL     1       7.570   6.958  16.632  0.00  0.00    +0.000 OA
ATOM     29  C   UNL     1       7.747   7.079  18.033  0.00  0.00    +0.000 C 
ENDBRANCH  25  28
ENDBRANCH  19  23
ENDBRANCH  16  19
ENDBRANCH   1  16
TORSDOF 7
ENDMDL
MODEL 9
REMARK VINA RESULT:      -7.7      0.716      1.150
REMARK  Name = 
REMARK  11 active torsions:
REMARK  status: ('A' for Active; 'I' for Inactive)
REMARK    1  A    between atoms: C_1  and  O_2
REMARK    2  A    between atoms: O_2  and  C_3
REMARK    3  A    between atoms: C_6  and  O_7
REMARK    4  A    between atoms: O_7  and  S_8
REMARK    5  A    between atoms: S_8  and  C_11
REMARK    6  A    between atoms: C_14  and  N_15
REMARK    7  A    between atoms: N_18  and  C_19
REMARK    8  A    between atoms: C_19  and  C_20
REMARK    9  A    between atoms: C_19  and  C_21
REMARK   10  A    between atoms: C_27  and  O_28
REMARK   11  A    between atoms: O_28  and  C_29
REMARK                            x       y       z     vdW  Elec       q    Type
REMARK                         _______ _______ _______ _____ _____    ______ ____
ROOT
ATOM      1  C   UNL     1       1.278   8.585  20.194  0.00  0.00    +0.000 A 
ATOM      2  C   UNL     1       1.501   7.363  20.827  0.00  0.00    +0.000 A 
ATOM      3  C   UNL     1       2.157   6.342  20.129  0.00  0.00    +0.000 A 
ATOM      4  C   UNL     1       2.623   6.546  18.823  0.00  0.00    +0.000 A 
ATOM      5  C   UNL     1       2.376   7.782  18.205  0.00  0.00    +0.000 A 
ATOM      6  C   UNL     1       1.698   8.795  18.880  0.00  0.00    +0.000 A 
ENDROOT
BRANCH   4   7
ATOM      7  N   UNL     1       3.369   5.557  18.149  0.00  0.00    +0.000 N 
ATOM      8  C   UNL     1       3.022   4.153  18.173  0.00  0.00    +0.000 C 
ATOM      9  C   UNL     1       3.828   3.579  17.023  0.00  0.00    +0.000 C 
ATOM     10  N   UNL     1       4.957   4.476  16.952  0.00  0.00    +0.000 N 
ATOM     11  C   UNL     1       4.587   5.740  17.452  0.00  0.00    +0.000 C 
ATOM     12  O   UNL     1       5.237   6.763  17.320  0.00  0.00    +0.000 OA
BRANCH  10  13
ATOM     13  C   UNL     1       6.146   4.237  16.140  0.00  0.00    +0.000 C 
ATOM     14  C   UNL     1       6.058   4.984  14.811  0.00  0.00    +0.000 C 
ATOM     15  C   UNL     1       7.430   4.587  16.886  0.00  0.00    +0.000 C 
ENDBRANCH  10  13
ENDBRANCH   4   7
BRANCH   1  16
ATOM     16  S   UNL     1       0.528   9.937  21.070  0.00  0.00    +0.000 S 
ATOM     17  O   UNL     1       1.557  10.483  21.928  0.00  0.00    +0.000 OA
ATOM     18  O   UNL     1      -0.713   9.406  21.609  0.00  0.00    +0.000 OA
BRANCH  16  19
ATOM     19  O   UNL     1       0.175  11.022  19.898  0.00  0.00    +0.000 OA
BRANCH  19  23
ATOM     20  C   UNL     1      -3.651  11.551  18.294  0.00  0.00    +0.000 A 
ATOM     21  C   UNL     1      -3.208  12.266  19.420  0.00  0.00    +0.000 A 
ATOM     22  C   UNL     1      -1.924  12.066  19.937  0.00  0.00    +0.000 A 
ATOM     23  C   UNL     1      -1.084  11.115  19.368  0.00  0.00    +0.000 A 
ATOM     24  C   UNL     1      -1.547  10.361  18.291  0.00  0.00    +0.000 A 
ATOM     25  C   UNL     1      -2.827  10.558  17.752  0.00  0.00    +0.000 A 
BRANCH  20  27
ATOM     26  C   UNL     1      -5.955  11.019  18.254  0.00  0.00    +0.000 C 
ATOM     27  O   UNL     1      -4.877  11.793  17.733  0.00  0.00    +0.000 OA
ENDBRANCH  20  27
BRANCH  25  28
ATOM     28  O   UNL     1      -3.061   9.713  16.702  0.00  0.00    +0.000 OA
ATOM     29  C   UNL     1      -2.847  10.166  15.376  0.00  0.00    +0.000 C 
ENDBRANCH  25  28
ENDBRANCH  19  23
ENDBRANCH  16  19
ENDBRANCH   1  16
TORSDOF 7
ENDMDL
