MODEL 1
REMARK VINA RESULT:      -9.0      0.000      0.000
REMARK  Name = 
REMARK  6 active torsions:
REMARK  status: ('A' for Active; 'I' for Inactive)
REMARK    1  A    between atoms: C_1  and  N_2
REMARK    2  A    between atoms: N_5  and  C_6
REMARK    3  A    between atoms: C_16  and  N_17
REMARK    4  A    between atoms: N_17  and  C_18
REMARK    5  A    between atoms: C_18  and  C_19
REMARK    6  A    between atoms: C_19  and  N_20
REMARK                            x       y       z     vdW  Elec       q    Type
REMARK                         _______ _______ _______ _____ _____    ______ ____
ROOT
ATOM      1  C   UNL     1       5.814   4.795  15.346  0.00  0.00    +0.000 C 
ATOM      2  N   UNL     1       5.580   5.007  16.767  0.00  0.00    +0.000 N 
ATOM      3  C   UNL     1       4.559   4.298  17.406  0.00  0.00    +0.000 C 
ATOM      4  O   UNL     1       3.794   3.556  16.792  0.00  0.00    +0.000 OA
ATOM      5  N   UNL     1       4.388   4.636  18.739  0.00  0.00    +0.000 N 
ATOM      6  C   UNL     1       6.586   5.700  17.479  0.00  0.00    +0.000 A 
ATOM      7  C   UNL     1       6.878   6.998  17.120  0.00  0.00    +0.000 A 
ATOM      8  C   UNL     1       7.807   7.664  17.892  0.00  0.00    +0.000 A 
ATOM      9  N   UNL     1       8.424   7.072  18.922  0.00  0.00    +0.000 NA
ATOM     10  C   UNL     1       8.069   5.813  19.197  0.00  0.00    +0.000 A 
ATOM     11  N   UNL     1       7.147   5.105  18.542  0.00  0.00    +0.000 NA
ATOM     12  H   UNL     1       4.688   5.579  18.953  0.00  0.00    +0.000 HD
ENDROOT
BRANCH   5  13
ATOM     13  C   UNL     1       3.343   4.144  19.551  0.00  0.00    +0.000 A 
ATOM     14  C   UNL     1       3.358   2.878  20.155  0.00  0.00    +0.000 A 
ATOM     15 CL   UNL     1       4.756   1.856  20.172  0.00  0.00    +0.000 Cl
ATOM     16  C   UNL     1       2.261   2.450  20.914  0.00  0.00    +0.000 A 
ATOM     17  C   UNL     1       1.158   3.284  21.097  0.00  0.00    +0.000 A 
ATOM     18  C   UNL     1       1.158   4.565  20.551  0.00  0.00    +0.000 A 
ATOM     19  C   UNL     1       2.250   4.996  19.797  0.00  0.00    +0.000 A 
ATOM     20 CL   UNL     1       2.199   6.599  19.136  0.00  0.00    +0.000 Cl
ENDBRANCH   5  13
BRANCH   8  21
ATOM     21  N   UNL     1       8.058   9.015  17.594  0.00  0.00    +0.000 N 
ATOM     22  H   UNL     1       7.163   9.470  17.426  0.00  0.00    +0.000 HD
BRANCH  21  23
ATOM     23  C   UNL     1       8.856   9.735  18.595  0.00  0.00    +0.000 C 
BRANCH  23  24
ATOM     24  C   UNL     1       9.071  11.200  18.145  0.00  0.00    +0.000 C 
BRANCH  24  25
ATOM     25  N   UNL     1      10.470  11.589  17.891  0.00  0.00    +0.000 NA
ATOM     26  C   UNL     1      11.363  11.403  19.052  0.00  0.00    +0.000 C 
ATOM     27  C   UNL     1      11.184  12.436  20.180  0.00  0.00    +0.000 C 
ATOM     28  O   UNL     1      11.266  13.780  19.690  0.00  0.00    +0.000 OA
ATOM     29  C   UNL     1      10.315  13.999  18.641  0.00  0.00    +0.000 C 
ATOM     30  C   UNL     1      10.539  13.013  17.481  0.00  0.00    +0.000 C 
ENDBRANCH  24  25
ENDBRANCH  23  24
ENDBRANCH  21  23
ENDBRANCH   8  21
TORSDOF 5
ENDMDL
MODEL 2
REMARK VINA RESULT:      -8.8      0.586      1.766
REMARK  Name = 
REMARK  6 active torsions:
REMARK  status: ('A' for Active; 'I' for Inactive)
REMARK    1  A    between atoms: C_1  and  N_2
REMARK    2  A    between atoms: N_5  and  C_6
REMARK    3  A    between atoms: C_16  and  N_17
REMARK    4  A    between atoms: N_17  and  C_18
REMARK    5  A    between atoms: C_18  and  C_19
REMARK    6  A    between atoms: C_19  and  N_20
REMARK                            x       y       z     vdW  Elec       q    Type
REMARK                         _______ _______ _______ _____ _____    ______ ____
ROOT
ATOM      1  C   UNL     1       5.970   4.198  15.422  0.00  0.00    +0.000 C 
ATOM      2  N   UNL     1       5.627   4.534  16.796  0.00  0.00    +0.000 N 
ATOM      3  C   UNL     1       4.567   3.870  17.419  0.00  0.00    +0.000 C 
ATOM      4  O   UNL     1       3.857   3.065  16.820  0.00  0.00    +0.000 OA
ATOM      5  N   UNL     1       4.293   4.325  18.699  0.00  0.00    +0.000 N 
ATOM      6  C   UNL     1       6.571   5.304  17.515  0.00  0.00    +0.000 A 
ATOM      7  C   UNL     1       6.879   6.568  17.063  0.00  0.00    +0.000 A 
ATOM      8  C   UNL     1       7.741   7.315  17.838  0.00  0.00    +0.000 A 
ATOM      9  N   UNL     1       8.283   6.827  18.961  0.00  0.00    +0.000 NA
ATOM     10  C   UNL     1       7.919   5.593  19.322  0.00  0.00    +0.000 A 
ATOM     11  N   UNL     1       7.055   4.815  18.667  0.00  0.00    +0.000 NA
ATOM     12  H   UNL     1       4.567   5.287  18.848  0.00  0.00    +0.000 HD
ENDROOT
BRANCH   5  13
ATOM     13  C   UNL     1       3.193   3.892  19.473  0.00  0.00    +0.000 A 
ATOM     14  C   UNL     1       1.906   4.441  19.372  0.00  0.00    +0.000 A 
ATOM     15 CL   UNL     1       1.450   5.553  18.124  0.00  0.00    +0.000 Cl
ATOM     16  C   UNL     1       0.880   3.981  20.205  0.00  0.00    +0.000 A 
ATOM     17  C   UNL     1       1.119   2.960  21.126  0.00  0.00    +0.000 A 
ATOM     18  C   UNL     1       2.378   2.368  21.195  0.00  0.00    +0.000 A 
ATOM     19  C   UNL     1       3.402   2.821  20.363  0.00  0.00    +0.000 A 
ATOM     20 CL   UNL     1       4.952   2.052  20.490  0.00  0.00    +0.000 Cl
ENDBRANCH   5  13
BRANCH   8  21
ATOM     21  N   UNL     1       8.004   8.636  17.437  0.00  0.00    +0.000 N 
ATOM     22  H   UNL     1       7.130   9.043  17.109  0.00  0.00    +0.000 HD
BRANCH  21  23
ATOM     23  C   UNL     1       8.647   9.478  18.455  0.00  0.00    +0.000 C 
BRANCH  23  24
ATOM     24  C   UNL     1       8.742  10.938  17.950  0.00  0.00    +0.000 C 
BRANCH  24  25
ATOM     25  N   UNL     1      10.100  11.510  17.906  0.00  0.00    +0.000 NA
ATOM     26  C   UNL     1      10.860  11.342  19.162  0.00  0.00    +0.000 C 
ATOM     27  C   UNL     1      10.412  12.256  20.317  0.00  0.00    +0.000 C 
ATOM     28  O   UNL     1      10.380  13.634  19.927  0.00  0.00    +0.000 OA
ATOM     29  C   UNL     1       9.545  13.818  18.778  0.00  0.00    +0.000 C 
ATOM     30  C   UNL     1      10.036  12.960  17.599  0.00  0.00    +0.000 C 
ENDBRANCH  24  25
ENDBRANCH  23  24
ENDBRANCH  21  23
ENDBRANCH   8  21
TORSDOF 5
ENDMDL
MODEL 3
REMARK VINA RESULT:      -8.7      0.615      1.089
REMARK  Name = 
REMARK  6 active torsions:
REMARK  status: ('A' for Active; 'I' for Inactive)
REMARK    1  A    between atoms: C_1  and  N_2
REMARK    2  A    between atoms: N_5  and  C_6
REMARK    3  A    between atoms: C_16  and  N_17
REMARK    4  A    between atoms: N_17  and  C_18
REMARK    5  A    between atoms: C_18  and  C_19
REMARK    6  A    between atoms: C_19  and  N_20
REMARK                            x       y       z     vdW  Elec       q    Type
REMARK                         _______ _______ _______ _____ _____    ______ ____
ROOT
ATOM      1  C   UNL     1       5.689   5.006  15.334  0.00  0.00    +0.000 C 
ATOM      2  N   UNL     1       5.495   5.133  16.770  0.00  0.00    +0.000 N 
ATOM      3  C   UNL     1       4.477   4.405  17.391  0.00  0.00    +0.000 C 
ATOM      4  O   UNL     1       3.682   3.716  16.753  0.00  0.00    +0.000 OA
ATOM      5  N   UNL     1       4.347   4.662  18.746  0.00  0.00    +0.000 N 
ATOM      6  C   UNL     1       6.533   5.762  17.497  0.00  0.00    +0.000 A 
ATOM      7  C   UNL     1       6.841   7.075  17.212  0.00  0.00    +0.000 A 
ATOM      8  C   UNL     1       7.802   7.674  17.998  0.00  0.00    +0.000 A 
ATOM      9  N   UNL     1       8.433   7.007  18.973  0.00  0.00    +0.000 NA
ATOM     10  C   UNL     1       8.060   5.741  19.179  0.00  0.00    +0.000 A 
ATOM     11  N   UNL     1       7.108   5.092  18.506  0.00  0.00    +0.000 NA
ATOM     12  H   UNL     1       4.670   5.584  19.010  0.00  0.00    +0.000 HD
ENDROOT
BRANCH   5  13
ATOM     13  C   UNL     1       3.313   4.139  19.554  0.00  0.00    +0.000 A 
ATOM     14  C   UNL     1       3.332   2.848  20.103  0.00  0.00    +0.000 A 
ATOM     15 CL   UNL     1       4.726   1.822  20.053  0.00  0.00    +0.000 Cl
ATOM     16  C   UNL     1       2.246   2.393  20.861  0.00  0.00    +0.000 A 
ATOM     17  C   UNL     1       1.149   3.222  21.098  0.00  0.00    +0.000 A 
ATOM     18  C   UNL     1       1.146   4.525  20.607  0.00  0.00    +0.000 A 
ATOM     19  C   UNL     1       2.228   4.984  19.854  0.00  0.00    +0.000 A 
ATOM     20 CL   UNL     1       2.173   6.614  19.264  0.00  0.00    +0.000 Cl
ENDBRANCH   5  13
BRANCH   8  21
ATOM     21  N   UNL     1       8.073   9.036  17.777  0.00  0.00    +0.000 N 
ATOM     22  H   UNL     1       7.187   9.505  17.599  0.00  0.00    +0.000 HD
BRANCH  21  23
ATOM     23  C   UNL     1       8.836   9.699  18.843  0.00  0.00    +0.000 C 
BRANCH  23  24
ATOM     24  C   UNL     1       9.614  10.904  18.263  0.00  0.00    +0.000 C 
BRANCH  24  25
ATOM     25  N   UNL     1       9.213  12.227  18.775  0.00  0.00    +0.000 NA
ATOM     26  C   UNL     1       9.323  13.313  17.779  0.00  0.00    +0.000 C 
ATOM     27  C   UNL     1      10.762  13.765  17.470  0.00  0.00    +0.000 C 
ATOM     28  O   UNL     1      11.484  14.100  18.661  0.00  0.00    +0.000 OA
ATOM     29  C   UNL     1      11.480  13.003  19.583  0.00  0.00    +0.000 C 
ATOM     30  C   UNL     1      10.042  12.596  19.949  0.00  0.00    +0.000 C 
ENDBRANCH  24  25
ENDBRANCH  23  24
ENDBRANCH  21  23
ENDBRANCH   8  21
TORSDOF 5
ENDMDL
MODEL 4
REMARK VINA RESULT:      -8.3      0.647      2.021
REMARK  Name = 
REMARK  6 active torsions:
REMARK  status: ('A' for Active; 'I' for Inactive)
REMARK    1  A    between atoms: C_1  and  N_2
REMARK    2  A    between atoms: N_5  and  C_6
REMARK    3  A    between atoms: C_16  and  N_17
REMARK    4  A    between atoms: N_17  and  C_18
REMARK    5  A    between atoms: C_18  and  C_19
REMARK    6  A    between atoms: C_19  and  N_20
REMARK                            x       y       z     vdW  Elec       q    Type
REMARK                         _______ _______ _______ _____ _____    ______ ____
ROOT
ATOM      1  C   UNL     1       5.731   4.879  15.362  0.00  0.00    +0.000 C 
ATOM      2  N   UNL     1       5.493   5.047  16.788  0.00  0.00    +0.000 N 
ATOM      3  C   UNL     1       4.435   4.361  17.392  0.00  0.00    +0.000 C 
ATOM      4  O   UNL     1       3.644   3.678  16.744  0.00  0.00    +0.000 OA
ATOM      5  N   UNL     1       4.267   4.655  18.735  0.00  0.00    +0.000 N 
ATOM      6  C   UNL     1       6.522   5.666  17.534  0.00  0.00    +0.000 A 
ATOM      7  C   UNL     1       6.876   6.962  17.228  0.00  0.00    +0.000 A 
ATOM      8  C   UNL     1       7.826   7.556  18.033  0.00  0.00    +0.000 A 
ATOM      9  N   UNL     1       8.406   6.897  19.044  0.00  0.00    +0.000 NA
ATOM     10  C   UNL     1       7.992   5.646  19.267  0.00  0.00    +0.000 A 
ATOM     11  N   UNL     1       7.046   5.006  18.578  0.00  0.00    +0.000 NA
ATOM     12  H   UNL     1       4.606   5.574  18.988  0.00  0.00    +0.000 HD
ENDROOT
BRANCH   5  13
ATOM     13  C   UNL     1       3.194   4.180  19.520  0.00  0.00    +0.000 A 
ATOM     14  C   UNL     1       1.982   4.868  19.680  0.00  0.00    +0.000 A 
ATOM     15 CL   UNL     1       1.562   6.268  18.750  0.00  0.00    +0.000 Cl
ATOM     16  C   UNL     1       0.982   4.345  20.509  0.00  0.00    +0.000 A 
ATOM     17  C   UNL     1       1.171   3.128  21.165  0.00  0.00    +0.000 A 
ATOM     18  C   UNL     1       2.346   2.409  20.968  0.00  0.00    +0.000 A 
ATOM     19  C   UNL     1       3.343   2.924  20.139  0.00  0.00    +0.000 A 
ATOM     20 CL   UNL     1       4.788   1.989  19.929  0.00  0.00    +0.000 Cl
ENDBRANCH   5  13
BRANCH   8  21
ATOM     21  N   UNL     1       8.141   8.904  17.788  0.00  0.00    +0.000 N 
ATOM     22  H   UNL     1       7.271   9.398  17.598  0.00  0.00    +0.000 HD
BRANCH  21  23
ATOM     23  C   UNL     1       8.920   9.561  18.846  0.00  0.00    +0.000 C 
BRANCH  23  24
ATOM     24  C   UNL     1       9.491  10.902  18.324  0.00  0.00    +0.000 C 
BRANCH  24  25
ATOM     25  N   UNL     1      10.012  11.817  19.356  0.00  0.00    +0.000 NA
ATOM     26  C   UNL     1       9.459  13.185  19.276  0.00  0.00    +0.000 C 
ATOM     27  C   UNL     1      10.003  14.037  18.114  0.00  0.00    +0.000 C 
ATOM     28  O   UNL     1      11.436  14.070  18.102  0.00  0.00    +0.000 OA
ATOM     29  C   UNL     1      11.975  12.743  18.059  0.00  0.00    +0.000 C 
ATOM     30  C   UNL     1      11.489  11.913  19.259  0.00  0.00    +0.000 C 
ENDBRANCH  24  25
ENDBRANCH  23  24
ENDBRANCH  21  23
ENDBRANCH   8  21
TORSDOF 5
ENDMDL
MODEL 5
REMARK VINA RESULT:      -8.1      0.847      1.119
REMARK  Name = 
REMARK  6 active torsions:
REMARK  status: ('A' for Active; 'I' for Inactive)
REMARK    1  A    between atoms: C_1  and  N_2
REMARK    2  A    between atoms: N_5  and  C_6
REMARK    3  A    between atoms: C_16  and  N_17
REMARK    4  A    between atoms: N_17  and  C_18
REMARK    5  A    between atoms: C_18  and  C_19
REMARK    6  A    between atoms: C_19  and  N_20
REMARK                            x       y       z     vdW  Elec       q    Type
REMARK                         _______ _______ _______ _____ _____    ______ ____
ROOT
ATOM      1  C   UNL     1       5.962   4.136  15.560  0.00  0.00    +0.000 C 
ATOM      2  N   UNL     1       5.644   4.511  16.929  0.00  0.00    +0.000 N 
ATOM      3  C   UNL     1       4.622   3.837  17.604  0.00  0.00    +0.000 C 
ATOM      4  O   UNL     1       3.924   2.987  17.055  0.00  0.00    +0.000 OA
ATOM      5  N   UNL     1       4.367   4.330  18.874  0.00  0.00    +0.000 N 
ATOM      6  C   UNL     1       6.580   5.337  17.594  0.00  0.00    +0.000 A 
ATOM      7  C   UNL     1       6.834   6.593  17.088  0.00  0.00    +0.000 A 
ATOM      8  C   UNL     1       7.690   7.396  17.811  0.00  0.00    +0.000 A 
ATOM      9  N   UNL     1       8.277   6.968  18.936  0.00  0.00    +0.000 NA
ATOM     10  C   UNL     1       7.963   5.737  19.352  0.00  0.00    +0.000 A 
ATOM     11  N   UNL     1       7.109   4.908  18.749  0.00  0.00    +0.000 NA
ATOM     12  H   UNL     1       4.613   5.306  18.980  0.00  0.00    +0.000 HD
ENDROOT
BRANCH   5  13
ATOM     13  C   UNL     1       3.303   3.891  19.692  0.00  0.00    +0.000 A 
ATOM     14  C   UNL     1       3.334   2.705  20.440  0.00  0.00    +0.000 A 
ATOM     15 CL   UNL     1       4.766   1.751  20.636  0.00  0.00    +0.000 Cl
ATOM     16  C   UNL     1       2.218   2.322  21.195  0.00  0.00    +0.000 A 
ATOM     17  C   UNL     1       1.078   3.125  21.232  0.00  0.00    +0.000 A 
ATOM     18  C   UNL     1       1.058   4.334  20.540  0.00  0.00    +0.000 A 
ATOM     19  C   UNL     1       2.169   4.720  19.789  0.00  0.00    +0.000 A 
ATOM     20 CL   UNL     1       2.091   6.233  18.945  0.00  0.00    +0.000 Cl
ENDBRANCH   5  13
BRANCH   8  21
ATOM     21  N   UNL     1       7.898   8.709  17.356  0.00  0.00    +0.000 N 
ATOM     22  H   UNL     1       7.024   9.220  17.466  0.00  0.00    +0.000 HD
BRANCH  21  23
ATOM     23  C   UNL     1       9.023   9.414  17.984  0.00  0.00    +0.000 C 
BRANCH  23  24
ATOM     24  C   UNL     1       8.519  10.707  18.670  0.00  0.00    +0.000 C 
BRANCH  24  25
ATOM     25  N   UNL     1       9.547  11.498  19.371  0.00  0.00    +0.000 NA
ATOM     26  C   UNL     1       9.055  12.790  19.893  0.00  0.00    +0.000 C 
ATOM     27  C   UNL     1       8.818  13.872  18.824  0.00  0.00    +0.000 C 
ATOM     28  O   UNL     1       9.972  14.069  17.998  0.00  0.00    +0.000 OA
ATOM     29  C   UNL     1      10.381  12.836  17.394  0.00  0.00    +0.000 C 
ATOM     30  C   UNL     1      10.688  11.774  18.464  0.00  0.00    +0.000 C 
ENDBRANCH  24  25
ENDBRANCH  23  24
ENDBRANCH  21  23
ENDBRANCH   8  21
TORSDOF 5
ENDMDL
MODEL 6
REMARK VINA RESULT:      -7.9      0.652      1.924
REMARK  Name = 
REMARK  6 active torsions:
REMARK  status: ('A' for Active; 'I' for Inactive)
REMARK    1  A    between atoms: C_1  and  N_2
REMARK    2  A    between atoms: N_5  and  C_6
REMARK    3  A    between atoms: C_16  and  N_17
REMARK    4  A    between atoms: N_17  and  C_18
REMARK    5  A    between atoms: C_18  and  C_19
REMARK    6  A    between atoms: C_19  and  N_20
REMARK                            x       y       z     vdW  Elec       q    Type
REMARK                         _______ _______ _______ _____ _____    ______ ____
ROOT
ATOM      1  C   UNL     1       5.863   5.033  15.381  0.00  0.00    +0.000 C 
ATOM      2  N   UNL     1       5.608   5.227  16.800  0.00  0.00    +0.000 N 
ATOM      3  C   UNL     1       4.556   4.537  17.408  0.00  0.00    +0.000 C 
ATOM      4  O   UNL     1       3.782   3.828  16.767  0.00  0.00    +0.000 OA
ATOM      5  N   UNL     1       4.369   4.856  18.743  0.00  0.00    +0.000 N 
ATOM      6  C   UNL     1       6.620   5.878  17.543  0.00  0.00    +0.000 A 
ATOM      7  C   UNL     1       6.956   7.173  17.214  0.00  0.00    +0.000 A 
ATOM      8  C   UNL     1       7.889   7.798  18.015  0.00  0.00    +0.000 A 
ATOM      9  N   UNL     1       8.469   7.170  19.045  0.00  0.00    +0.000 NA
ATOM     10  C   UNL     1       8.073   5.918  19.291  0.00  0.00    +0.000 A 
ATOM     11  N   UNL     1       7.143   5.248  18.606  0.00  0.00    +0.000 NA
ATOM     12  H   UNL     1       4.691   5.786  18.980  0.00  0.00    +0.000 HD
ENDROOT
BRANCH   5  13
ATOM     13  C   UNL     1       3.295   4.381  19.527  0.00  0.00    +0.000 A 
ATOM     14  C   UNL     1       2.147   5.134  19.814  0.00  0.00    +0.000 A 
ATOM     15 CL   UNL     1       1.799   6.649  19.052  0.00  0.00    +0.000 Cl
ATOM     16  C   UNL     1       1.145   4.601  20.634  0.00  0.00    +0.000 A 
ATOM     17  C   UNL     1       1.267   3.312  21.154  0.00  0.00    +0.000 A 
ATOM     18  C   UNL     1       2.374   2.534  20.829  0.00  0.00    +0.000 A 
ATOM     19  C   UNL     1       3.373   3.060  20.008  0.00  0.00    +0.000 A 
ATOM     20 CL   UNL     1       4.733   2.050  19.636  0.00  0.00    +0.000 Cl
ENDBRANCH   5  13
BRANCH   8  21
ATOM     21  N   UNL     1       8.184   9.146  17.745  0.00  0.00    +0.000 N 
ATOM     22  H   UNL     1       7.317   9.610  17.484  0.00  0.00    +0.000 HD
BRANCH  21  23
ATOM     23  C   UNL     1       8.880   9.858  18.826  0.00  0.00    +0.000 C 
BRANCH  23  24
ATOM     24  C   UNL     1      10.028  10.714  18.240  0.00  0.00    +0.000 C 
BRANCH  24  25
ATOM     25  N   UNL     1       9.634  12.032  17.710  0.00  0.00    +0.000 NA
ATOM     26  C   UNL     1      10.773  12.871  17.284  0.00  0.00    +0.000 C 
ATOM     27  C   UNL     1      11.596  13.477  18.436  0.00  0.00    +0.000 C 
ATOM     28  O   UNL     1      10.770  14.184  19.368  0.00  0.00    +0.000 OA
ATOM     29  C   UNL     1       9.733  13.335  19.874  0.00  0.00    +0.000 C 
ATOM     30  C   UNL     1       8.864  12.786  18.729  0.00  0.00    +0.000 C 
ENDBRANCH  24  25
ENDBRANCH  23  24
ENDBRANCH  21  23
ENDBRANCH   8  21
TORSDOF 5
ENDMDL
MODEL 7
REMARK VINA RESULT:      -7.1      6.697      9.328
REMARK  Name = 
REMARK  6 active torsions:
REMARK  status: ('A' for Active; 'I' for Inactive)
REMARK    1  A    between atoms: C_1  and  N_2
REMARK    2  A    between atoms: N_5  and  C_6
REMARK    3  A    between atoms: C_16  and  N_17
REMARK    4  A    between atoms: N_17  and  C_18
REMARK    5  A    between atoms: C_18  and  C_19
REMARK    6  A    between atoms: C_19  and  N_20
REMARK                            x       y       z     vdW  Elec       q    Type
REMARK                         _______ _______ _______ _____ _____    ______ ____
ROOT
ATOM      1  C   UNL     1      -1.643  10.277  17.608  0.00  0.00    +0.000 C 
ATOM      2  N   UNL     1      -0.721  10.690  18.656  0.00  0.00    +0.000 N 
ATOM      3  C   UNL     1      -0.966  11.875  19.355  0.00  0.00    +0.000 C 
ATOM      4  O   UNL     1      -1.893  12.628  19.063  0.00  0.00    +0.000 OA
ATOM      5  N   UNL     1       0.017  12.197  20.278  0.00  0.00    +0.000 N 
ATOM      6  C   UNL     1       0.207   9.721  19.101  0.00  0.00    +0.000 A 
ATOM      7  C   UNL     1       1.124   9.218  18.204  0.00  0.00    +0.000 A 
ATOM      8  C   UNL     1       2.062   8.337  18.699  0.00  0.00    +0.000 A 
ATOM      9  N   UNL     1       2.067   7.958  19.984  0.00  0.00    +0.000 NA
ATOM     10  C   UNL     1       1.142   8.506  20.779  0.00  0.00    +0.000 A 
ATOM     11  N   UNL     1       0.228   9.402  20.405  0.00  0.00    +0.000 NA
ATOM     12  H   UNL     1       0.925  11.816  20.043  0.00  0.00    +0.000 HD
ENDROOT
BRANCH   5  13
ATOM     13  C   UNL     1       0.048  13.404  21.010  0.00  0.00    +0.000 A 
ATOM     14  C   UNL     1       0.631  14.588  20.535  0.00  0.00    +0.000 A 
ATOM     15 CL   UNL     1       1.174  14.783  18.902  0.00  0.00    +0.000 Cl
ATOM     16  C   UNL     1       0.655  15.731  21.343  0.00  0.00    +0.000 A 
ATOM     17  C   UNL     1       0.081  15.712  22.615  0.00  0.00    +0.000 A 
ATOM     18  C   UNL     1      -0.550  14.560  23.074  0.00  0.00    +0.000 A 
ATOM     19  C   UNL     1      -0.580  13.419  22.270  0.00  0.00    +0.000 A 
ATOM     20 CL   UNL     1      -1.377  12.009  22.890  0.00  0.00    +0.000 Cl
ENDBRANCH   5  13
BRANCH   8  21
ATOM     21  N   UNL     1       3.056   7.876  17.818  0.00  0.00    +0.000 N 
ATOM     22  H   UNL     1       3.800   8.571  17.795  0.00  0.00    +0.000 HD
BRANCH  21  23
ATOM     23  C   UNL     1       3.575   6.534  18.114  0.00  0.00    +0.000 C 
BRANCH  23  24
ATOM     24  C   UNL     1       4.566   6.096  17.009  0.00  0.00    +0.000 C 
BRANCH  24  25
ATOM     25  N   UNL     1       4.983   4.683  17.051  0.00  0.00    +0.000 NA
ATOM     26  C   UNL     1       5.981   4.384  18.099  0.00  0.00    +0.000 C 
ATOM     27  C   UNL     1       7.404   4.892  17.802  0.00  0.00    +0.000 C 
ATOM     28  O   UNL     1       7.871   4.452  16.521  0.00  0.00    +0.000 OA
ATOM     29  C   UNL     1       6.962   4.845  15.485  0.00  0.00    +0.000 C 
ATOM     30  C   UNL     1       5.556   4.278  15.744  0.00  0.00    +0.000 C 
ENDBRANCH  24  25
ENDBRANCH  23  24
ENDBRANCH  21  23
ENDBRANCH   8  21
TORSDOF 5
ENDMDL
MODEL 8
REMARK VINA RESULT:      -7.1      6.174      9.039
REMARK  Name = 
REMARK  6 active torsions:
REMARK  status: ('A' for Active; 'I' for Inactive)
REMARK    1  A    between atoms: C_1  and  N_2
REMARK    2  A    between atoms: N_5  and  C_6
REMARK    3  A    between atoms: C_16  and  N_17
REMARK    4  A    between atoms: N_17  and  C_18
REMARK    5  A    between atoms: C_18  and  C_19
REMARK    6  A    between atoms: C_19  and  N_20
REMARK                            x       y       z     vdW  Elec       q    Type
REMARK                         _______ _______ _______ _____ _____    ______ ____
ROOT
ATOM      1  C   UNL     1      -1.191  10.128  17.466  0.00  0.00    +0.000 C 
ATOM      2  N   UNL     1      -0.194  10.512  18.454  0.00  0.00    +0.000 N 
ATOM      3  C   UNL     1      -0.247  11.788  19.021  0.00  0.00    +0.000 C 
ATOM      4  O   UNL     1      -1.063  12.634  18.655  0.00  0.00    +0.000 OA
ATOM      5  N   UNL     1       0.794  12.061  19.893  0.00  0.00    +0.000 N 
ATOM      6  C   UNL     1       0.595   9.471  18.996  0.00  0.00    +0.000 A 
ATOM      7  C   UNL     1       1.407   8.746  18.152  0.00  0.00    +0.000 A 
ATOM      8  C   UNL     1       2.221   7.796  18.733  0.00  0.00    +0.000 A 
ATOM      9  N   UNL     1       2.202   7.561  20.051  0.00  0.00    +0.000 NA
ATOM     10  C   UNL     1       1.386   8.321  20.789  0.00  0.00    +0.000 A 
ATOM     11  N   UNL     1       0.602   9.296  20.326  0.00  0.00    +0.000 NA
ATOM     12  H   UNL     1       1.631  11.528  19.695  0.00  0.00    +0.000 HD
ENDROOT
BRANCH   5  13
ATOM     13  C   UNL     1       1.017  13.322  20.488  0.00  0.00    +0.000 A 
ATOM     14  C   UNL     1       0.336  13.777  21.627  0.00  0.00    +0.000 A 
ATOM     15 CL   UNL     1      -0.692  12.761  22.581  0.00  0.00    +0.000 Cl
ATOM     16  C   UNL     1       0.590  15.059  22.130  0.00  0.00    +0.000 A 
ATOM     17  C   UNL     1       1.535  15.885  21.521  0.00  0.00    +0.000 A 
ATOM     18  C   UNL     1       2.258  15.422  20.426  0.00  0.00    +0.000 A 
ATOM     19  C   UNL     1       2.012  14.143  19.924  0.00  0.00    +0.000 A 
ATOM     20 CL   UNL     1       2.938  13.615  18.556  0.00  0.00    +0.000 Cl
ENDBRANCH   5  13
BRANCH   8  21
ATOM     21  N   UNL     1       3.115   7.103  17.899  0.00  0.00    +0.000 N 
ATOM     22  H   UNL     1       4.055   7.436  18.104  0.00  0.00    +0.000 HD
BRANCH  21  23
ATOM     23  C   UNL     1       3.029   5.638  17.977  0.00  0.00    +0.000 C 
BRANCH  23  24
ATOM     24  C   UNL     1       4.357   5.005  17.497  0.00  0.00    +0.000 C 
BRANCH  24  25
ATOM     25  N   UNL     1       5.355   5.948  16.961  0.00  0.00    +0.000 NA
ATOM     26  C   UNL     1       5.775   5.653  15.576  0.00  0.00    +0.000 C 
ATOM     27  C   UNL     1       6.708   4.437  15.427  0.00  0.00    +0.000 C 
ATOM     28  O   UNL     1       7.848   4.529  16.291  0.00  0.00    +0.000 OA
ATOM     29  C   UNL     1       7.441   4.697  17.654  0.00  0.00    +0.000 C 
ATOM     30  C   UNL     1       6.567   5.953  17.817  0.00  0.00    +0.000 C 
ENDBRANCH  24  25
ENDBRANCH  23  24
ENDBRANCH  21  23
ENDBRANCH   8  21
TORSDOF 5
ENDMDL
MODEL 9
REMARK VINA RESULT:      -7.0      6.737     10.258
REMARK  Name = 
REMARK  6 active torsions:
REMARK  status: ('A' for Active; 'I' for Inactive)
REMARK    1  A    between atoms: C_1  and  N_2
REMARK    2  A    between atoms: N_5  and  C_6
REMARK    3  A    between atoms: C_16  and  N_17
REMARK    4  A    between atoms: N_17  and  C_18
REMARK    5  A    between atoms: C_18  and  C_19
REMARK    6  A    between atoms: C_19  and  N_20
REMARK                            x       y       z     vdW  Elec       q    Type
REMARK                         _______ _______ _______ _____ _____    ______ ____
ROOT
ATOM      1  C   UNL     1      -1.511  10.192  18.126  0.00  0.00    +0.000 C 
ATOM      2  N   UNL     1      -0.643  10.966  19.000  0.00  0.00    +0.000 N 
ATOM      3  C   UNL     1      -0.500  12.339  18.783  0.00  0.00    +0.000 C 
ATOM      4  O   UNL     1      -1.022  12.908  17.826  0.00  0.00    +0.000 OA
ATOM      5  N   UNL     1       0.405  12.952  19.634  0.00  0.00    +0.000 N 
ATOM      6  C   UNL     1      -0.223  10.337  20.195  0.00  0.00    +0.000 A 
ATOM      7  C   UNL     1       0.537   9.190  20.110  0.00  0.00    +0.000 A 
ATOM      8  C   UNL     1       0.994   8.656  21.296  0.00  0.00    +0.000 A 
ATOM      9  N   UNL     1       0.690   9.201  22.480  0.00  0.00    +0.000 NA
ATOM     10  C   UNL     1      -0.047  10.316  22.461  0.00  0.00    +0.000 A 
ATOM     11  N   UNL     1      -0.491  10.935  21.365  0.00  0.00    +0.000 NA
ATOM     12  H   UNL     1       1.119  12.323  19.979  0.00  0.00    +0.000 HD
ENDROOT
BRANCH   5  13
ATOM     13  C   UNL     1       0.804  14.303  19.524  0.00  0.00    +0.000 A 
ATOM     14  C   UNL     1       0.089  15.374  20.080  0.00  0.00    +0.000 A 
ATOM     15 CL   UNL     1      -1.241  15.157  21.168  0.00  0.00    +0.000 Cl
ATOM     16  C   UNL     1       0.534  16.688  19.889  0.00  0.00    +0.000 A 
ATOM     17  C   UNL     1       1.700  16.944  19.167  0.00  0.00    +0.000 A 
ATOM     18  C   UNL     1       2.448  15.885  18.660  0.00  0.00    +0.000 A 
ATOM     19  C   UNL     1       2.011  14.574  18.851  0.00  0.00    +0.000 A 
ATOM     20 CL   UNL     1       2.979  13.292  18.197  0.00  0.00    +0.000 Cl
ENDBRANCH   5  13
BRANCH   8  21
ATOM     21  N   UNL     1       1.838   7.534  21.226  0.00  0.00    +0.000 N 
ATOM     22  H   UNL     1       1.398   6.778  21.747  0.00  0.00    +0.000 HD
BRANCH  21  23
ATOM     23  C   UNL     1       2.204   7.115  19.866  0.00  0.00    +0.000 C 
BRANCH  23  24
ATOM     24  C   UNL     1       2.460   5.590  19.834  0.00  0.00    +0.000 C 
BRANCH  24  25
ATOM     25  N   UNL     1       3.039   5.067  18.583  0.00  0.00    +0.000 NA
ATOM     26  C   UNL     1       3.267   3.607  18.592  0.00  0.00    +0.000 C 
ATOM     27  C   UNL     1       4.461   3.143  19.447  0.00  0.00    +0.000 C 
ATOM     28  O   UNL     1       5.665   3.839  19.104  0.00  0.00    +0.000 OA
ATOM     29  C   UNL     1       5.482   5.256  19.210  0.00  0.00    +0.000 C 
ATOM     30  C   UNL     1       4.335   5.732  18.300  0.00  0.00    +0.000 C 
ENDBRANCH  24  25
ENDBRANCH  23  24
ENDBRANCH  21  23
ENDBRANCH   8  21
TORSDOF 5
ENDMDL
