MODEL 1
REMARK VINA RESULT:      -8.1      0.000      0.000
REMARK  Name = 
REMARK  9 active torsions:
REMARK  status: ('A' for Active; 'I' for Inactive)
REMARK    1  A    between atoms: C_1  and  O_2
REMARK    2  A    between atoms: O_2  and  C_3
REMARK    3  A    between atoms: C_6  and  C_7
REMARK    4  A    between atoms: C_9  and  N_10
REMARK    5  A    between atoms: C_11  and  C_13
REMARK    6  A    between atoms: C_13  and  S_14
REMARK    7  A    between atoms: S_14  and  C_15
REMARK    8  A    between atoms: N_19  and  C_20
REMARK    9  A    between atoms: C_20  and  C_21
REMARK                            x       y       z     vdW  Elec       q    Type
REMARK                         _______ _______ _______ _____ _____    ______ ____
ROOT
ATOM      1  C   UNL     1       1.823   7.625  20.145  0.00  0.00    +0.000 A 
ATOM      2  N   UNL     1       2.099   7.894  18.917  0.00  0.00    +0.000 NA
ATOM      3  C   UNL     1       1.583   9.050  18.358  0.00  0.00    +0.000 A 
ATOM      4  O   UNL     1       1.897   9.366  17.212  0.00  0.00    +0.000 OA
ATOM      5  N   UNL     1       0.712   9.849  19.120  0.00  0.00    +0.000 N 
ATOM      6  C   UNL     1       0.469   9.536  20.445  0.00  0.00    +0.000 A 
ATOM      7  C   UNL     1       0.987   8.453  21.010  0.00  0.00    +0.000 A 
ATOM      8  C   UNL     1       0.635   8.328  22.444  0.00  0.00    +0.000 C 
ATOM      9  C   UNL     1      -0.494   9.357  22.580  0.00  0.00    +0.000 C 
ATOM     10  C   UNL     1      -0.325  10.341  21.416  0.00  0.00    +0.000 C 
ENDROOT
BRANCH   1  11
ATOM     11  S   UNL     1       2.400   6.142  20.867  0.00  0.00    +0.000 S 
BRANCH  11  12
ATOM     12  C   UNL     1       1.810   4.898  19.677  0.00  0.00    +0.000 C 
BRANCH  12  14
ATOM     13  N   UNL     1       3.801   5.229  18.230  0.00  0.00    +0.000 N 
ATOM     14  C   UNL     1       3.025   4.319  18.954  0.00  0.00    +0.000 C 
ATOM     15  O   UNL     1       3.213   3.101  19.009  0.00  0.00    +0.000 OA
ATOM     16  H   UNL     1       3.470   6.184  18.139  0.00  0.00    +0.000 HD
BRANCH  13  23
ATOM     17  C   UNL     1       6.250   4.841  18.016  0.00  0.00    +0.000 A 
ATOM     18  C   UNL     1       7.352   4.502  17.204  0.00  0.00    +0.000 A 
ATOM     19  C   UNL     1       7.208   4.279  15.843  0.00  0.00    +0.000 A 
ATOM     20  C   UNL     1       5.949   4.339  15.267  0.00  0.00    +0.000 A 
ATOM     21  C   UNL     1       5.777   4.078  13.803  0.00  0.00    +0.000 C 
ATOM     22  C   UNL     1       4.837   4.631  16.071  0.00  0.00    +0.000 A 
ATOM     23  C   UNL     1       4.955   4.901  17.446  0.00  0.00    +0.000 A 
BRANCH  17  25
ATOM     24  C   UNL     1       7.694   5.759  19.648  0.00  0.00    +0.000 C 
ATOM     25  O   UNL     1       6.424   5.151  19.352  0.00  0.00    +0.000 OA
ENDBRANCH  17  25
ENDBRANCH  13  23
ENDBRANCH  12  14
ENDBRANCH  11  12
ENDBRANCH   1  11
BRANCH   5  26
ATOM     26  C   UNL     1       0.167  11.071  18.510  0.00  0.00    +0.000 C 
BRANCH  26  27
ATOM     27  C   UNL     1      -1.282  10.912  18.131  0.00  0.00    +0.000 A 
ATOM     28  C   UNL     1      -1.685   9.962  17.190  0.00  0.00    +0.000 A 
ATOM     29  C   UNL     1      -2.988   9.978  16.710  0.00  0.00    +0.000 A 
ATOM     30  C   UNL     1      -3.862  10.924  17.214  0.00  0.00    +0.000 A 
ATOM     31  N   UNL     1      -3.529  11.816  18.177  0.00  0.00    +0.000 NA
ATOM     32  C   UNL     1      -2.257  11.769  18.628  0.00  0.00    +0.000 A 
ENDBRANCH  26  27
ENDBRANCH   5  26
TORSDOF 7
ENDMDL
MODEL 2
REMARK VINA RESULT:      -7.8      2.472      9.501
REMARK  Name = 
REMARK  9 active torsions:
REMARK  status: ('A' for Active; 'I' for Inactive)
REMARK    1  A    between atoms: C_1  and  O_2
REMARK    2  A    between atoms: O_2  and  C_3
REMARK    3  A    between atoms: C_6  and  C_7
REMARK    4  A    between atoms: C_9  and  N_10
REMARK    5  A    between atoms: C_11  and  C_13
REMARK    6  A    between atoms: C_13  and  S_14
REMARK    7  A    between atoms: S_14  and  C_15
REMARK    8  A    between atoms: N_19  and  C_20
REMARK    9  A    between atoms: C_20  and  C_21
REMARK                            x       y       z     vdW  Elec       q    Type
REMARK                         _______ _______ _______ _____ _____    ______ ____
ROOT
ATOM      1  C   UNL     1       3.555   6.684  17.877  0.00  0.00    +0.000 A 
ATOM      2  N   UNL     1       4.651   7.301  17.601  0.00  0.00    +0.000 NA
ATOM      3  C   UNL     1       5.700   6.580  17.058  0.00  0.00    +0.000 A 
ATOM      4  O   UNL     1       6.726   7.163  16.714  0.00  0.00    +0.000 OA
ATOM      5  N   UNL     1       5.566   5.188  16.901  0.00  0.00    +0.000 N 
ATOM      6  C   UNL     1       4.359   4.575  17.182  0.00  0.00    +0.000 A 
ATOM      7  C   UNL     1       3.329   5.257  17.668  0.00  0.00    +0.000 A 
ATOM      8  C   UNL     1       2.123   4.417  17.860  0.00  0.00    +0.000 C 
ATOM      9  C   UNL     1       2.703   3.003  17.734  0.00  0.00    +0.000 C 
ATOM     10  C   UNL     1       4.017   3.142  16.956  0.00  0.00    +0.000 C 
ENDROOT
BRANCH   1  11
ATOM     11  S   UNL     1       2.232   7.545  18.625  0.00  0.00    +0.000 S 
BRANCH  11  12
ATOM     12  C   UNL     1       2.235   9.109  17.696  0.00  0.00    +0.000 C 
BRANCH  12  14
ATOM     13  N   UNL     1      -0.166   9.740  17.705  0.00  0.00    +0.000 N 
ATOM     14  C   UNL     1       1.105   9.984  18.234  0.00  0.00    +0.000 C 
ATOM     15  O   UNL     1       1.386  10.868  19.047  0.00  0.00    +0.000 OA
ATOM     16  H   UNL     1      -0.254   9.084  16.937  0.00  0.00    +0.000 HD
BRANCH  13  23
ATOM     17  C   UNL     1      -2.537  10.352  17.256  0.00  0.00    +0.000 A 
ATOM     18  C   UNL     1      -3.687  11.077  17.625  0.00  0.00    +0.000 A 
ATOM     19  C   UNL     1      -3.679  11.947  18.706  0.00  0.00    +0.000 A 
ATOM     20  C   UNL     1      -2.532  12.076  19.474  0.00  0.00    +0.000 A 
ATOM     21  C   UNL     1      -2.517  12.996  20.656  0.00  0.00    +0.000 C 
ATOM     22  C   UNL     1      -1.394  11.326  19.144  0.00  0.00    +0.000 A 
ATOM     23  C   UNL     1      -1.358  10.466  18.032  0.00  0.00    +0.000 A 
BRANCH  17  25
ATOM     24  C   UNL     1      -2.905  10.259  14.921  0.00  0.00    +0.000 C 
ATOM     25  O   UNL     1      -2.534   9.559  16.122  0.00  0.00    +0.000 OA
ENDBRANCH  17  25
ENDBRANCH  13  23
ENDBRANCH  12  14
ENDBRANCH  11  12
ENDBRANCH   1  11
BRANCH   5  26
ATOM     26  C   UNL     1       6.692   4.436  16.328  0.00  0.00    +0.000 C 
BRANCH  26  27
ATOM     27  C   UNL     1       6.709   4.510  14.823  0.00  0.00    +0.000 A 
ATOM     28  C   UNL     1       5.912   3.666  14.047  0.00  0.00    +0.000 A 
ATOM     29  C   UNL     1       6.101   3.613  12.672  0.00  0.00    +0.000 A 
ATOM     30  C   UNL     1       7.059   4.436  12.108  0.00  0.00    +0.000 A 
ATOM     31  N   UNL     1       7.803   5.317  12.818  0.00  0.00    +0.000 NA
ATOM     32  C   UNL     1       7.590   5.349  14.151  0.00  0.00    +0.000 A 
ENDBRANCH  26  27
ENDBRANCH   5  26
TORSDOF 7
ENDMDL
MODEL 3
REMARK VINA RESULT:      -7.4      2.623      9.266
REMARK  Name = 
REMARK  9 active torsions:
REMARK  status: ('A' for Active; 'I' for Inactive)
REMARK    1  A    between atoms: C_1  and  O_2
REMARK    2  A    between atoms: O_2  and  C_3
REMARK    3  A    between atoms: C_6  and  C_7
REMARK    4  A    between atoms: C_9  and  N_10
REMARK    5  A    between atoms: C_11  and  C_13
REMARK    6  A    between atoms: C_13  and  S_14
REMARK    7  A    between atoms: S_14  and  C_15
REMARK    8  A    between atoms: N_19  and  C_20
REMARK    9  A    between atoms: C_20  and  C_21
REMARK                            x       y       z     vdW  Elec       q    Type
REMARK                         _______ _______ _______ _____ _____    ______ ____
ROOT
ATOM      1  C   UNL     1       3.535   6.620  17.953  0.00  0.00    +0.000 A 
ATOM      2  N   UNL     1       4.624   7.252  17.681  0.00  0.00    +0.000 NA
ATOM      3  C   UNL     1       5.678   6.549  17.127  0.00  0.00    +0.000 A 
ATOM      4  O   UNL     1       6.698   7.146  16.786  0.00  0.00    +0.000 OA
ATOM      5  N   UNL     1       5.558   5.157  16.953  0.00  0.00    +0.000 N 
ATOM      6  C   UNL     1       4.359   4.529  17.231  0.00  0.00    +0.000 A 
ATOM      7  C   UNL     1       3.323   5.194  17.728  0.00  0.00    +0.000 A 
ATOM      8  C   UNL     1       2.126   4.339  17.913  0.00  0.00    +0.000 C 
ATOM      9  C   UNL     1       2.720   2.934  17.768  0.00  0.00    +0.000 C 
ATOM     10  C   UNL     1       4.031   3.095  16.989  0.00  0.00    +0.000 C 
ENDROOT
BRANCH   1  11
ATOM     11  S   UNL     1       2.206   7.459  18.715  0.00  0.00    +0.000 S 
BRANCH  11  12
ATOM     12  C   UNL     1       2.078   8.958  17.692  0.00  0.00    +0.000 C 
BRANCH  12  14
ATOM     13  N   UNL     1       1.364  10.624  19.388  0.00  0.00    +0.000 N 
ATOM     14  C   UNL     1       0.989   9.848  18.287  0.00  0.00    +0.000 C 
ATOM     15  O   UNL     1      -0.144   9.790  17.804  0.00  0.00    +0.000 OA
ATOM     16  H   UNL     1       2.285  10.485  19.790  0.00  0.00    +0.000 HD
BRANCH  13  23
ATOM     17  C   UNL     1      -0.155  11.070  21.310  0.00  0.00    +0.000 A 
ATOM     18  C   UNL     1      -0.988  11.968  22.007  0.00  0.00    +0.000 A 
ATOM     19  C   UNL     1      -1.228  13.250  21.533  0.00  0.00    +0.000 A 
ATOM     20  C   UNL     1      -0.602  13.682  20.375  0.00  0.00    +0.000 A 
ATOM     21  C   UNL     1      -0.837  15.070  19.865  0.00  0.00    +0.000 C 
ATOM     22  C   UNL     1       0.264  12.813  19.695  0.00  0.00    +0.000 A 
ATOM     23  C   UNL     1       0.498  11.496  20.127  0.00  0.00    +0.000 A 
BRANCH  17  25
ATOM     24  C   UNL     1      -0.209   9.595  23.158  0.00  0.00    +0.000 C 
ATOM     25  O   UNL     1       0.002   9.767  21.745  0.00  0.00    +0.000 OA
ENDBRANCH  17  25
ENDBRANCH  13  23
ENDBRANCH  12  14
ENDBRANCH  11  12
ENDBRANCH   1  11
BRANCH   5  26
ATOM     26  C   UNL     1       6.690   4.424  16.368  0.00  0.00    +0.000 C 
BRANCH  26  27
ATOM     27  C   UNL     1       6.687   4.494  14.864  0.00  0.00    +0.000 A 
ATOM     28  C   UNL     1       5.874   3.653  14.100  0.00  0.00    +0.000 A 
ATOM     29  C   UNL     1       6.043   3.595  12.723  0.00  0.00    +0.000 A 
ATOM     30  C   UNL     1       6.999   4.410  12.144  0.00  0.00    +0.000 A 
ATOM     31  N   UNL     1       7.759   5.288  12.841  0.00  0.00    +0.000 NA
ATOM     32  C   UNL     1       7.564   5.325  14.177  0.00  0.00    +0.000 A 
ENDBRANCH  26  27
ENDBRANCH   5  26
TORSDOF 7
ENDMDL
MODEL 4
REMARK VINA RESULT:      -7.4      2.448      9.179
REMARK  Name = 
REMARK  9 active torsions:
REMARK  status: ('A' for Active; 'I' for Inactive)
REMARK    1  A    between atoms: C_1  and  O_2
REMARK    2  A    between atoms: O_2  and  C_3
REMARK    3  A    between atoms: C_6  and  C_7
REMARK    4  A    between atoms: C_9  and  N_10
REMARK    5  A    between atoms: C_11  and  C_13
REMARK    6  A    between atoms: C_13  and  S_14
REMARK    7  A    between atoms: S_14  and  C_15
REMARK    8  A    between atoms: N_19  and  C_20
REMARK    9  A    between atoms: C_20  and  C_21
REMARK                            x       y       z     vdW  Elec       q    Type
REMARK                         _______ _______ _______ _____ _____    ______ ____
ROOT
ATOM      1  C   UNL     1       3.432   6.830  17.836  0.00  0.00    +0.000 A 
ATOM      2  N   UNL     1       4.561   7.387  17.565  0.00  0.00    +0.000 NA
ATOM      3  C   UNL     1       5.584   6.603  17.063  0.00  0.00    +0.000 A 
ATOM      4  O   UNL     1       6.643   7.127  16.723  0.00  0.00    +0.000 OA
ATOM      5  N   UNL     1       5.387   5.215  16.941  0.00  0.00    +0.000 N 
ATOM      6  C   UNL     1       4.148   4.668  17.215  0.00  0.00    +0.000 A 
ATOM      7  C   UNL     1       3.143   5.410  17.661  0.00  0.00    +0.000 A 
ATOM      8  C   UNL     1       1.895   4.633  17.852  0.00  0.00    +0.000 C 
ATOM      9  C   UNL     1       2.409   3.191  17.776  0.00  0.00    +0.000 C 
ATOM     10  C   UNL     1       3.743   3.246  17.021  0.00  0.00    +0.000 C 
ENDROOT
BRANCH   1  11
ATOM     11  S   UNL     1       2.138   7.773  18.534  0.00  0.00    +0.000 S 
BRANCH  11  12
ATOM     12  C   UNL     1       2.636   9.467  18.096  0.00  0.00    +0.000 C 
BRANCH  12  14
ATOM     13  N   UNL     1       0.167   9.710  18.000  0.00  0.00    +0.000 N 
ATOM     14  C   UNL     1       1.396  10.358  18.156  0.00  0.00    +0.000 C 
ATOM     15  O   UNL     1       1.554  11.574  18.283  0.00  0.00    +0.000 OA
ATOM     16  H   UNL     1       0.164   8.725  17.759  0.00  0.00    +0.000 HD
BRANCH  13  23
ATOM     17  C   UNL     1      -1.625  11.034  19.112  0.00  0.00    +0.000 A 
ATOM     18  C   UNL     1      -2.887  11.658  19.039  0.00  0.00    +0.000 A 
ATOM     19  C   UNL     1      -3.671  11.573  17.898  0.00  0.00    +0.000 A 
ATOM     20  C   UNL     1      -3.192  10.904  16.783  0.00  0.00    +0.000 A 
ATOM     21  C   UNL     1      -4.020  10.825  15.538  0.00  0.00    +0.000 C 
ATOM     22  C   UNL     1      -1.919  10.317  16.827  0.00  0.00    +0.000 A 
ATOM     23  C   UNL     1      -1.116  10.351  17.980  0.00  0.00    +0.000 A 
BRANCH  17  25
ATOM     24  C   UNL     1      -0.959  12.298  20.997  0.00  0.00    +0.000 C 
ATOM     25  O   UNL     1      -0.895  11.049  20.286  0.00  0.00    +0.000 OA
ENDBRANCH  17  25
ENDBRANCH  13  23
ENDBRANCH  12  14
ENDBRANCH  11  12
ENDBRANCH   1  11
BRANCH   5  26
ATOM     26  C   UNL     1       6.487   4.395  16.411  0.00  0.00    +0.000 C 
BRANCH  26  27
ATOM     27  C   UNL     1       6.560   4.457  14.908  0.00  0.00    +0.000 A 
ATOM     28  C   UNL     1       5.780   3.618  14.110  0.00  0.00    +0.000 A 
ATOM     29  C   UNL     1       6.017   3.551  12.743  0.00  0.00    +0.000 A 
ATOM     30  C   UNL     1       7.007   4.356  12.208  0.00  0.00    +0.000 A 
ATOM     31  N   UNL     1       7.737   5.233  12.938  0.00  0.00    +0.000 NA
ATOM     32  C   UNL     1       7.476   5.279  14.262  0.00  0.00    +0.000 A 
ENDBRANCH  26  27
ENDBRANCH   5  26
TORSDOF 7
ENDMDL
MODEL 5
REMARK VINA RESULT:      -7.3      2.707      9.421
REMARK  Name = 
REMARK  9 active torsions:
REMARK  status: ('A' for Active; 'I' for Inactive)
REMARK    1  A    between atoms: C_1  and  O_2
REMARK    2  A    between atoms: O_2  and  C_3
REMARK    3  A    between atoms: C_6  and  C_7
REMARK    4  A    between atoms: C_9  and  N_10
REMARK    5  A    between atoms: C_11  and  C_13
REMARK    6  A    between atoms: C_13  and  S_14
REMARK    7  A    between atoms: S_14  and  C_15
REMARK    8  A    between atoms: N_19  and  C_20
REMARK    9  A    between atoms: C_20  and  C_21
REMARK                            x       y       z     vdW  Elec       q    Type
REMARK                         _______ _______ _______ _____ _____    ______ ____
ROOT
ATOM      1  C   UNL     1       3.458   6.579  17.865  0.00  0.00    +0.000 A 
ATOM      2  N   UNL     1       4.532   7.235  17.592  0.00  0.00    +0.000 NA
ATOM      3  C   UNL     1       5.609   6.551  17.058  0.00  0.00    +0.000 A 
ATOM      4  O   UNL     1       6.616   7.169  16.718  0.00  0.00    +0.000 OA
ATOM      5  N   UNL     1       5.527   5.154  16.906  0.00  0.00    +0.000 N 
ATOM      6  C   UNL     1       4.342   4.499  17.184  0.00  0.00    +0.000 A 
ATOM      7  C   UNL     1       3.285   5.144  17.661  0.00  0.00    +0.000 A 
ATOM      8  C   UNL     1       2.109   4.261  17.849  0.00  0.00    +0.000 C 
ATOM      9  C   UNL     1       2.741   2.870  17.732  0.00  0.00    +0.000 C 
ATOM     10  C   UNL     1       4.054   3.053  16.962  0.00  0.00    +0.000 C 
ENDROOT
BRANCH   1  11
ATOM     11  S   UNL     1       2.100   7.394  18.602  0.00  0.00    +0.000 S 
BRANCH  11  12
ATOM     12  C   UNL     1       2.086   8.977  17.705  0.00  0.00    +0.000 C 
BRANCH  12  14
ATOM     13  N   UNL     1       1.627  11.366  18.201  0.00  0.00    +0.000 N 
ATOM     14  C   UNL     1       1.492  10.041  18.626  0.00  0.00    +0.000 C 
ATOM     15  O   UNL     1       0.988   9.678  19.691  0.00  0.00    +0.000 OA
ATOM     16  H   UNL     1       2.186  11.557  17.376  0.00  0.00    +0.000 HD
BRANCH  13  23
ATOM     17  C   UNL     1      -0.081  13.112  18.683  0.00  0.00    +0.000 A 
ATOM     18  C   UNL     1      -0.475  14.241  19.429  0.00  0.00    +0.000 A 
ATOM     19  C   UNL     1       0.370  14.826  20.360  0.00  0.00    +0.000 A 
ATOM     20  C   UNL     1       1.614  14.266  20.604  0.00  0.00    +0.000 A 
ATOM     21  C   UNL     1       2.528  14.875  21.622  0.00  0.00    +0.000 C 
ATOM     22  C   UNL     1       2.002  13.115  19.901  0.00  0.00    +0.000 A 
ATOM     23  C   UNL     1       1.184  12.522  18.924  0.00  0.00    +0.000 A 
BRANCH  17  25
ATOM     24  C   UNL     1      -1.935  11.730  18.188  0.00  0.00    +0.000 C 
ATOM     25  O   UNL     1      -0.898  12.596  17.694  0.00  0.00    +0.000 OA
ENDBRANCH  17  25
ENDBRANCH  13  23
ENDBRANCH  12  14
ENDBRANCH  11  12
ENDBRANCH   1  11
BRANCH   5  26
ATOM     26  C   UNL     1       6.683   4.441  16.343  0.00  0.00    +0.000 C 
BRANCH  26  27
ATOM     27  C   UNL     1       6.700   4.500  14.838  0.00  0.00    +0.000 A 
ATOM     28  C   UNL     1       5.908   3.644  14.070  0.00  0.00    +0.000 A 
ATOM     29  C   UNL     1       6.096   3.578  12.696  0.00  0.00    +0.000 A 
ATOM     30  C   UNL     1       7.050   4.400  12.124  0.00  0.00    +0.000 A 
ATOM     31  N   UNL     1       7.789   5.293  12.824  0.00  0.00    +0.000 NA
ATOM     32  C   UNL     1       7.576   5.337  14.157  0.00  0.00    +0.000 A 
ENDBRANCH  26  27
ENDBRANCH   5  26
TORSDOF 7
ENDMDL
MODEL 6
REMARK VINA RESULT:      -7.3      2.707      9.234
REMARK  Name = 
REMARK  9 active torsions:
REMARK  status: ('A' for Active; 'I' for Inactive)
REMARK    1  A    between atoms: C_1  and  O_2
REMARK    2  A    between atoms: O_2  and  C_3
REMARK    3  A    between atoms: C_6  and  C_7
REMARK    4  A    between atoms: C_9  and  N_10
REMARK    5  A    between atoms: C_11  and  C_13
REMARK    6  A    between atoms: C_13  and  S_14
REMARK    7  A    between atoms: S_14  and  C_15
REMARK    8  A    between atoms: N_19  and  C_20
REMARK    9  A    between atoms: C_20  and  C_21
REMARK                            x       y       z     vdW  Elec       q    Type
REMARK                         _______ _______ _______ _____ _____    ______ ____
ROOT
ATOM      1  C   UNL     1       3.566   6.569  18.018  0.00  0.00    +0.000 A 
ATOM      2  N   UNL     1       4.643   7.216  17.731  0.00  0.00    +0.000 NA
ATOM      3  C   UNL     1       5.697   6.528  17.158  0.00  0.00    +0.000 A 
ATOM      4  O   UNL     1       6.703   7.140  16.804  0.00  0.00    +0.000 OA
ATOM      5  N   UNL     1       5.593   5.136  16.982  0.00  0.00    +0.000 N 
ATOM      6  C   UNL     1       4.406   4.491  17.277  0.00  0.00    +0.000 A 
ATOM      7  C   UNL     1       3.370   5.141  17.791  0.00  0.00    +0.000 A 
ATOM      8  C   UNL     1       2.187   4.270  17.993  0.00  0.00    +0.000 C 
ATOM      9  C   UNL     1       2.797   2.873  17.834  0.00  0.00    +0.000 C 
ATOM     10  C   UNL     1       4.093   3.054  17.035  0.00  0.00    +0.000 C 
ENDROOT
BRANCH   1  11
ATOM     11  S   UNL     1       2.238   7.388  18.804  0.00  0.00    +0.000 S 
BRANCH  11  12
ATOM     12  C   UNL     1       1.878   8.726  17.624  0.00  0.00    +0.000 C 
BRANCH  12  14
ATOM     13  N   UNL     1       1.564  10.314  19.506  0.00  0.00    +0.000 N 
ATOM     14  C   UNL     1       1.022   9.771  18.337  0.00  0.00    +0.000 C 
ATOM     15  O   UNL     1      -0.093  10.028  17.878  0.00  0.00    +0.000 OA
ATOM     16  H   UNL     1       2.428   9.924  19.868  0.00  0.00    +0.000 HD
BRANCH  13  23
ATOM     17  C   UNL     1       1.226  12.656  20.282  0.00  0.00    +0.000 A 
ATOM     18  C   UNL     1       0.558  13.561  21.130  0.00  0.00    +0.000 A 
ATOM     19  C   UNL     1      -0.357  13.126  22.078  0.00  0.00    +0.000 A 
ATOM     20  C   UNL     1      -0.664  11.778  22.167  0.00  0.00    +0.000 A 
ATOM     21  C   UNL     1      -1.666  11.298  23.171  0.00  0.00    +0.000 C 
ATOM     22  C   UNL     1      -0.039  10.870  21.298  0.00  0.00    +0.000 A 
ATOM     23  C   UNL     1       0.921  11.275  20.355  0.00  0.00    +0.000 A 
BRANCH  17  25
ATOM     24  C   UNL     1       1.838  14.276  18.672  0.00  0.00    +0.000 C 
ATOM     25  O   UNL     1       2.203  13.094  19.407  0.00  0.00    +0.000 OA
ENDBRANCH  17  25
ENDBRANCH  13  23
ENDBRANCH  12  14
ENDBRANCH  11  12
ENDBRANCH   1  11
BRANCH   5  26
ATOM     26  C   UNL     1       6.725   4.419  16.377  0.00  0.00    +0.000 C 
BRANCH  26  27
ATOM     27  C   UNL     1       6.703   4.503  14.873  0.00  0.00    +0.000 A 
ATOM     28  C   UNL     1       5.880   3.669  14.113  0.00  0.00    +0.000 A 
ATOM     29  C   UNL     1       6.032   3.624  12.733  0.00  0.00    +0.000 A 
ATOM     30  C   UNL     1       6.981   4.443  12.149  0.00  0.00    +0.000 A 
ATOM     31  N   UNL     1       7.750   5.314  12.844  0.00  0.00    +0.000 NA
ATOM     32  C   UNL     1       7.572   5.340  14.183  0.00  0.00    +0.000 A 
ENDBRANCH  26  27
ENDBRANCH   5  26
TORSDOF 7
ENDMDL
MODEL 7
REMARK VINA RESULT:      -7.3      3.110      4.981
REMARK  Name = 
REMARK  9 active torsions:
REMARK  status: ('A' for Active; 'I' for Inactive)
REMARK    1  A    between atoms: C_1  and  O_2
REMARK    2  A    between atoms: O_2  and  C_3
REMARK    3  A    between atoms: C_6  and  C_7
REMARK    4  A    between atoms: C_9  and  N_10
REMARK    5  A    between atoms: C_11  and  C_13
REMARK    6  A    between atoms: C_13  and  S_14
REMARK    7  A    between atoms: S_14  and  C_15
REMARK    8  A    between atoms: N_19  and  C_20
REMARK    9  A    between atoms: C_20  and  C_21
REMARK                            x       y       z     vdW  Elec       q    Type
REMARK                         _______ _______ _______ _____ _____    ______ ____
ROOT
ATOM      1  C   UNL     1      -0.302  10.606  21.108  0.00  0.00    +0.000 A 
ATOM      2  N   UNL     1       0.207  11.510  21.871  0.00  0.00    +0.000 NA
ATOM      3  C   UNL     1       0.212  12.822  21.434  0.00  0.00    +0.000 A 
ATOM      4  O   UNL     1       0.621  13.711  22.178  0.00  0.00    +0.000 OA
ATOM      5  N   UNL     1      -0.262  13.115  20.142  0.00  0.00    +0.000 N 
ATOM      6  C   UNL     1      -0.828  12.117  19.371  0.00  0.00    +0.000 A 
ATOM      7  C   UNL     1      -0.877  10.859  19.790  0.00  0.00    +0.000 A 
ATOM      8  C   UNL     1      -1.560   9.959  18.830  0.00  0.00    +0.000 C 
ATOM      9  C   UNL     1      -1.615  10.831  17.570  0.00  0.00    +0.000 C 
ATOM     10  C   UNL     1      -1.483  12.284  18.042  0.00  0.00    +0.000 C 
ENDROOT
BRANCH   1  11
ATOM     11  S   UNL     1      -0.268   8.929  21.596  0.00  0.00    +0.000 S 
BRANCH  11  12
ATOM     12  C   UNL     1       1.515   8.567  21.551  0.00  0.00    +0.000 C 
BRANCH  12  14
ATOM     13  N   UNL     1       2.330   6.586  20.296  0.00  0.00    +0.000 N 
ATOM     14  C   UNL     1       1.829   7.889  20.219  0.00  0.00    +0.000 C 
ATOM     15  O   UNL     1       1.674   8.537  19.181  0.00  0.00    +0.000 OA
ATOM     16  H   UNL     1       2.551   6.204  21.209  0.00  0.00    +0.000 HD
BRANCH  13  23
ATOM     17  C   UNL     1       2.070   4.567  18.862  0.00  0.00    +0.000 A 
ATOM     18  C   UNL     1       2.494   3.816  17.747  0.00  0.00    +0.000 A 
ATOM     19  C   UNL     1       3.582   4.208  16.981  0.00  0.00    +0.000 A 
ATOM     20  C   UNL     1       4.244   5.388  17.281  0.00  0.00    +0.000 A 
ATOM     21  C   UNL     1       5.406   5.833  16.448  0.00  0.00    +0.000 C 
ATOM     22  C   UNL     1       3.804   6.169  18.361  0.00  0.00    +0.000 A 
ATOM     23  C   UNL     1       2.730   5.779  19.180  0.00  0.00    +0.000 A 
BRANCH  17  25
ATOM     24  C   UNL     1       0.856   2.690  19.634  0.00  0.00    +0.000 C 
ATOM     25  O   UNL     1       1.043   4.116  19.670  0.00  0.00    +0.000 OA
ENDBRANCH  17  25
ENDBRANCH  13  23
ENDBRANCH  12  14
ENDBRANCH  11  12
ENDBRANCH   1  11
BRANCH   5  26
ATOM     26  C   UNL     1      -0.244  14.514  19.690  0.00  0.00    +0.000 C 
BRANCH  26  27
ATOM     27  C   UNL     1       1.036  14.857  18.973  0.00  0.00    +0.000 A 
ATOM     28  C   UNL     1       1.909  13.859  18.534  0.00  0.00    +0.000 A 
ATOM     29  C   UNL     1       3.170  14.205  18.066  0.00  0.00    +0.000 A 
ATOM     30  C   UNL     1       3.508  15.545  18.017  0.00  0.00    +0.000 A 
ATOM     31  N   UNL     1       2.665  16.545  18.368  0.00  0.00    +0.000 NA
ATOM     32  C   UNL     1       1.443  16.175  18.811  0.00  0.00    +0.000 A 
ENDBRANCH  26  27
ENDBRANCH   5  26
TORSDOF 7
ENDMDL
MODEL 8
REMARK VINA RESULT:      -7.3      2.631      9.354
REMARK  Name = 
REMARK  9 active torsions:
REMARK  status: ('A' for Active; 'I' for Inactive)
REMARK    1  A    between atoms: C_1  and  O_2
REMARK    2  A    between atoms: O_2  and  C_3
REMARK    3  A    between atoms: C_6  and  C_7
REMARK    4  A    between atoms: C_9  and  N_10
REMARK    5  A    between atoms: C_11  and  C_13
REMARK    6  A    between atoms: C_13  and  S_14
REMARK    7  A    between atoms: S_14  and  C_15
REMARK    8  A    between atoms: N_19  and  C_20
REMARK    9  A    between atoms: C_20  and  C_21
REMARK                            x       y       z     vdW  Elec       q    Type
REMARK                         _______ _______ _______ _____ _____    ______ ____
ROOT
ATOM      1  C   UNL     1       3.441   6.354  17.867  0.00  0.00    +0.000 A 
ATOM      2  N   UNL     1       4.463   7.072  17.553  0.00  0.00    +0.000 NA
ATOM      3  C   UNL     1       5.564   6.450  16.993  0.00  0.00    +0.000 A 
ATOM      4  O   UNL     1       6.519   7.125  16.613  0.00  0.00    +0.000 OA
ATOM      5  N   UNL     1       5.566   5.049  16.860  0.00  0.00    +0.000 N 
ATOM      6  C   UNL     1       4.434   4.324  17.183  0.00  0.00    +0.000 A 
ATOM      7  C   UNL     1       3.354   4.909  17.685  0.00  0.00    +0.000 A 
ATOM      8  C   UNL     1       2.243   3.956  17.922  0.00  0.00    +0.000 C 
ATOM      9  C   UNL     1       2.958   2.606  17.802  0.00  0.00    +0.000 C 
ATOM     10  C   UNL     1       4.232   2.860  16.987  0.00  0.00    +0.000 C 
ENDROOT
BRANCH   1  11
ATOM     11  S   UNL     1       2.058   7.092  18.637  0.00  0.00    +0.000 S 
BRANCH  11  12
ATOM     12  C   UNL     1       2.033   8.736  17.856  0.00  0.00    +0.000 C 
BRANCH  12  14
ATOM     13  N   UNL     1       0.859  10.895  18.212  0.00  0.00    +0.000 N 
ATOM     14  C   UNL     1       1.284   9.691  18.784  0.00  0.00    +0.000 C 
ATOM     15  O   UNL     1       1.149   9.373  19.967  0.00  0.00    +0.000 OA
ATOM     16  H   UNL     1       1.151  11.112  17.265  0.00  0.00    +0.000 HD
BRANCH  13  23
ATOM     17  C   UNL     1       0.865  13.103  19.362  0.00  0.00    +0.000 A 
ATOM     18  C   UNL     1       0.150  14.119  20.027  0.00  0.00    +0.000 A 
ATOM     19  C   UNL     1      -1.206  13.996  20.292  0.00  0.00    +0.000 A 
ATOM     20  C   UNL     1      -1.892  12.874  19.856  0.00  0.00    +0.000 A 
ATOM     21  C   UNL     1      -3.360  12.740  20.118  0.00  0.00    +0.000 C 
ATOM     22  C   UNL     1      -1.201  11.874  19.154  0.00  0.00    +0.000 A 
ATOM     23  C   UNL     1       0.180  11.951  18.904  0.00  0.00    +0.000 A 
BRANCH  17  25
ATOM     24  C   UNL     1       2.625  14.122  18.155  0.00  0.00    +0.000 C 
ATOM     25  O   UNL     1       2.233  13.198  19.186  0.00  0.00    +0.000 OA
ENDBRANCH  17  25
ENDBRANCH  13  23
ENDBRANCH  12  14
ENDBRANCH  11  12
ENDBRANCH   1  11
BRANCH   5  26
ATOM     26  C   UNL     1       6.747   4.403  16.269  0.00  0.00    +0.000 C 
BRANCH  26  27
ATOM     27  C   UNL     1       6.727   4.464  14.764  0.00  0.00    +0.000 A 
ATOM     28  C   UNL     1       5.915   3.610  14.015  0.00  0.00    +0.000 A 
ATOM     29  C   UNL     1       6.069   3.547  12.636  0.00  0.00    +0.000 A 
ATOM     30  C   UNL     1       7.009   4.370  12.041  0.00  0.00    +0.000 A 
ATOM     31  N   UNL     1       7.766   5.261  12.725  0.00  0.00    +0.000 NA
ATOM     32  C   UNL     1       7.585   5.303  14.063  0.00  0.00    +0.000 A 
ENDBRANCH  26  27
ENDBRANCH   5  26
TORSDOF 7
ENDMDL
MODEL 9
REMARK VINA RESULT:      -7.2      2.724      4.428
REMARK  Name = 
REMARK  9 active torsions:
REMARK  status: ('A' for Active; 'I' for Inactive)
REMARK    1  A    between atoms: C_1  and  O_2
REMARK    2  A    between atoms: O_2  and  C_3
REMARK    3  A    between atoms: C_6  and  C_7
REMARK    4  A    between atoms: C_9  and  N_10
REMARK    5  A    between atoms: C_11  and  C_13
REMARK    6  A    between atoms: C_13  and  S_14
REMARK    7  A    between atoms: S_14  and  C_15
REMARK    8  A    between atoms: N_19  and  C_20
REMARK    9  A    between atoms: C_20  and  C_21
REMARK                            x       y       z     vdW  Elec       q    Type
REMARK                         _______ _______ _______ _____ _____    ______ ____
ROOT
ATOM      1  C   UNL     1      -0.835  10.687  19.504  0.00  0.00    +0.000 A 
ATOM      2  N   UNL     1      -1.370  10.136  18.471  0.00  0.00    +0.000 NA
ATOM      3  C   UNL     1      -2.583  10.620  18.015  0.00  0.00    +0.000 A 
ATOM      4  O   UNL     1      -3.074  10.162  16.984  0.00  0.00    +0.000 OA
ATOM      5  N   UNL     1      -3.231  11.639  18.738  0.00  0.00    +0.000 N 
ATOM      6  C   UNL     1      -2.602  12.219  19.824  0.00  0.00    +0.000 A 
ATOM      7  C   UNL     1      -1.420  11.795  20.253  0.00  0.00    +0.000 A 
ATOM      8  C   UNL     1      -0.910  12.580  21.402  0.00  0.00    +0.000 C 
ATOM      9  C   UNL     1      -2.161  13.352  21.834  0.00  0.00    +0.000 C 
ATOM     10  C   UNL     1      -3.094  13.382  20.617  0.00  0.00    +0.000 C 
ENDROOT
BRANCH   1  11
ATOM     11  S   UNL     1       0.663  10.061  20.150  0.00  0.00    +0.000 S 
BRANCH  11  12
ATOM     12  C   UNL     1       1.449   9.372  18.661  0.00  0.00    +0.000 C 
BRANCH  12  14
ATOM     13  N   UNL     1       2.220   7.133  17.913  0.00  0.00    +0.000 N 
ATOM     14  C   UNL     1       1.966   7.975  19.001  0.00  0.00    +0.000 C 
ATOM     15  O   UNL     1       2.076   7.664  20.189  0.00  0.00    +0.000 OA
ATOM     16  H   UNL     1       1.957   7.446  16.985  0.00  0.00    +0.000 HD
BRANCH  13  23
ATOM     17  C   UNL     1       4.017   5.417  17.760  0.00  0.00    +0.000 A 
ATOM     18  C   UNL     1       4.410   4.068  17.867  0.00  0.00    +0.000 A 
ATOM     19  C   UNL     1       3.493   3.066  18.150  0.00  0.00    +0.000 A 
ATOM     20  C   UNL     1       2.166   3.396  18.381  0.00  0.00    +0.000 A 
ATOM     21  C   UNL     1       1.171   2.326  18.709  0.00  0.00    +0.000 C 
ATOM     22  C   UNL     1       1.770   4.740  18.321  0.00  0.00    +0.000 A 
ATOM     23  C   UNL     1       2.667   5.773  17.999  0.00  0.00    +0.000 A 
BRANCH  17  25
ATOM     24  C   UNL     1       5.273   6.359  15.991  0.00  0.00    +0.000 C 
ATOM     25  O   UNL     1       4.925   6.391  17.387  0.00  0.00    +0.000 OA
ENDBRANCH  17  25
ENDBRANCH  13  23
ENDBRANCH  12  14
ENDBRANCH  11  12
ENDBRANCH   1  11
BRANCH   5  26
ATOM     26  C   UNL     1      -4.522  12.137  18.244  0.00  0.00    +0.000 C 
BRANCH  26  27
ATOM     27  C   UNL     1      -5.682  11.514  18.975  0.00  0.00    +0.000 A 
ATOM     28  C   UNL     1      -6.267  12.143  20.076  0.00  0.00    +0.000 A 
ATOM     29  C   UNL     1      -7.191  11.455  20.852  0.00  0.00    +0.000 A 
ATOM     30  C   UNL     1      -7.531  10.166  20.481  0.00  0.00    +0.000 A 
ATOM     31  N   UNL     1      -7.038   9.548  19.381  0.00  0.00    +0.000 NA
ATOM     32  C   UNL     1      -6.149  10.247  18.644  0.00  0.00    +0.000 A 
ENDBRANCH  26  27
ENDBRANCH   5  26
TORSDOF 7
ENDMDL
