MODEL 1
REMARK VINA RESULT:      -8.4      0.000      0.000
REMARK  Name = 
REMARK  6 active torsions:
REMARK  status: ('A' for Active; 'I' for Inactive)
REMARK    1  A    between atoms: O_1  and  C_2
REMARK    2  A    between atoms: C_2  and  C_3
REMARK    3  A    between atoms: C_2  and  C_16
REMARK    4  A    between atoms: C_6  and  C_7
REMARK    5  A    between atoms: C_7  and  N_8
REMARK    6  A    between atoms: C_18  and  C_19
REMARK                            x       y       z     vdW  Elec       q    Type
REMARK                         _______ _______ _______ _____ _____    ______ ____
ROOT
ATOM      1  C   UNL     1       7.457   4.677  17.711  0.00  0.00    +0.000 C 
ENDROOT
BRANCH   1   2
ATOM      2  C   UNL     1       7.687   6.167  17.859  0.00  0.00    +0.000 A 
ATOM      3  C   UNL     1       7.172   7.082  16.926  0.00  0.00    +0.000 A 
ATOM      4  C   UNL     1       7.401   8.451  17.072  0.00  0.00    +0.000 A 
ATOM      5  C   UNL     1       8.144   8.939  18.153  0.00  0.00    +0.000 A 
ATOM      6  C   UNL     1       8.663   8.029  19.084  0.00  0.00    +0.000 A 
ATOM      7  C   UNL     1       8.435   6.657  18.939  0.00  0.00    +0.000 A 
BRANCH   5   8
ATOM      8  C   UNL     1       8.402  10.422  18.302  0.00  0.00    +0.000 C 
BRANCH   8   9
ATOM      9  N   UNL     1       9.741  10.762  18.834  0.00  0.00    +0.000 NA
ATOM     10  C   UNL     1      10.503  11.553  17.849  0.00  0.00    +0.000 C 
ATOM     11  C   UNL     1      11.816  12.111  18.402  0.00  0.00    +0.000 C 
ATOM     12  C   UNL     1      11.578  12.906  19.676  0.00  0.00    +0.000 C 
ATOM     13  C   UNL     1      10.875  12.019  20.692  0.00  0.00    +0.000 C 
ATOM     14  C   UNL     1       9.572  11.464  20.117  0.00  0.00    +0.000 C 
ENDBRANCH   8   9
ENDBRANCH   5   8
ENDBRANCH   1   2
BRANCH   1  15
ATOM     15  C   UNL     1       6.032   4.246  17.881  0.00  0.00    +0.000 A 
ATOM     16  N   UNL     1       5.312   4.214  18.988  0.00  0.00    +0.000 NA
ATOM     17  C   UNL     1       4.110   3.635  18.641  0.00  0.00    +0.000 A 
ATOM     18  C   UNL     1       4.091   3.342  17.296  0.00  0.00    +0.000 A 
ATOM     19  N   UNL     1       5.310   3.738  16.827  0.00  0.00    +0.000 N 
ATOM     20  H   UNL     1       5.666   3.656  15.884  0.00  0.00    +0.000 HD
BRANCH  17  21
ATOM     21  C   UNL     1       3.045   3.392  19.596  0.00  0.00    +0.000 A 
ATOM     22  C   UNL     1       3.316   2.664  20.764  0.00  0.00    +0.000 A 
ATOM     23  C   UNL     1       2.304   2.402  21.694  0.00  0.00    +0.000 A 
ATOM     24  C   UNL     1       1.006   2.858  21.464  0.00  0.00    +0.000 A 
ATOM     25  C   UNL     1       0.722   3.576  20.305  0.00  0.00    +0.000 A 
ATOM     26  C   UNL     1       1.737   3.841  19.384  0.00  0.00    +0.000 A 
ATOM     27  F   UNL     1       1.408   4.521  18.274  0.00  0.00    +0.000 F 
ENDBRANCH  17  21
ENDBRANCH   1  15
BRANCH   1  28
ATOM     28  O   UNL     1       7.893   4.239  16.415  0.00  0.00    +0.000 OA
ATOM     29  H   UNL     1       7.141   3.761  16.023  0.00  0.00    +0.000 HD
ENDBRANCH   1  28
TORSDOF 6
ENDMDL
MODEL 2
REMARK VINA RESULT:      -8.3      0.950      1.325
REMARK  Name = 
REMARK  6 active torsions:
REMARK  status: ('A' for Active; 'I' for Inactive)
REMARK    1  A    between atoms: O_1  and  C_2
REMARK    2  A    between atoms: C_2  and  C_3
REMARK    3  A    between atoms: C_2  and  C_16
REMARK    4  A    between atoms: C_6  and  C_7
REMARK    5  A    between atoms: C_7  and  N_8
REMARK    6  A    between atoms: C_18  and  C_19
REMARK                            x       y       z     vdW  Elec       q    Type
REMARK                         _______ _______ _______ _____ _____    ______ ____
ROOT
ATOM      1  C   UNL     1       7.510   4.767  17.840  0.00  0.00    +0.000 C 
ENDROOT
BRANCH   1   2
ATOM      2  C   UNL     1       7.732   6.262  17.941  0.00  0.00    +0.000 A 
ATOM      3  C   UNL     1       7.185   7.146  16.996  0.00  0.00    +0.000 A 
ATOM      4  C   UNL     1       7.407   8.521  17.098  0.00  0.00    +0.000 A 
ATOM      5  C   UNL     1       8.176   9.044  18.145  0.00  0.00    +0.000 A 
ATOM      6  C   UNL     1       8.726   8.164  19.086  0.00  0.00    +0.000 A 
ATOM      7  C   UNL     1       8.506   6.788  18.985  0.00  0.00    +0.000 A 
BRANCH   5   8
ATOM      8  C   UNL     1       8.426  10.533  18.245  0.00  0.00    +0.000 C 
BRANCH   8   9
ATOM      9  N   UNL     1       9.676  10.899  18.949  0.00  0.00    +0.000 NA
ATOM     10  C   UNL     1      10.674  11.415  17.994  0.00  0.00    +0.000 C 
ATOM     11  C   UNL     1      11.917  11.999  18.669  0.00  0.00    +0.000 C 
ATOM     12  C   UNL     1      11.535  13.061  19.689  0.00  0.00    +0.000 C 
ATOM     13  C   UNL     1      10.580  12.454  20.704  0.00  0.00    +0.000 C 
ATOM     14  C   UNL     1       9.351  11.868  20.009  0.00  0.00    +0.000 C 
ENDBRANCH   8   9
ENDBRANCH   5   8
ENDBRANCH   1   2
BRANCH   1  15
ATOM     15  C   UNL     1       6.082   4.337  17.990  0.00  0.00    +0.000 A 
ATOM     16  N   UNL     1       5.366   4.247  19.096  0.00  0.00    +0.000 NA
ATOM     17  C   UNL     1       4.158   3.698  18.721  0.00  0.00    +0.000 A 
ATOM     18  C   UNL     1       4.132   3.482  17.362  0.00  0.00    +0.000 A 
ATOM     19  N   UNL     1       5.352   3.896  16.911  0.00  0.00    +0.000 N 
ATOM     20  H   UNL     1       5.706   3.866  15.964  0.00  0.00    +0.000 HD
BRANCH  17  21
ATOM     21  C   UNL     1       3.094   3.408  19.664  0.00  0.00    +0.000 A 
ATOM     22  C   UNL     1       1.831   3.992  19.483  0.00  0.00    +0.000 A 
ATOM     23  C   UNL     1       0.792   3.743  20.385  0.00  0.00    +0.000 A 
ATOM     24  C   UNL     1       1.003   2.911  21.484  0.00  0.00    +0.000 A 
ATOM     25  C   UNL     1       2.254   2.330  21.679  0.00  0.00    +0.000 A 
ATOM     26  C   UNL     1       3.286   2.577  20.773  0.00  0.00    +0.000 A 
ATOM     27  F   UNL     1       4.478   2.008  21.015  0.00  0.00    +0.000 F 
ENDBRANCH  17  21
ENDBRANCH   1  15
BRANCH   1  28
ATOM     28  O   UNL     1       7.979   4.284  16.571  0.00  0.00    +0.000 OA
ATOM     29  H   UNL     1       7.397   3.541  16.332  0.00  0.00    +0.000 HD
ENDBRANCH   1  28
TORSDOF 6
ENDMDL
MODEL 3
REMARK VINA RESULT:      -8.0      7.850     10.631
REMARK  Name = 
REMARK  6 active torsions:
REMARK  status: ('A' for Active; 'I' for Inactive)
REMARK    1  A    between atoms: O_1  and  C_2
REMARK    2  A    between atoms: C_2  and  C_3
REMARK    3  A    between atoms: C_2  and  C_16
REMARK    4  A    between atoms: C_6  and  C_7
REMARK    5  A    between atoms: C_7  and  N_8
REMARK    6  A    between atoms: C_18  and  C_19
REMARK                            x       y       z     vdW  Elec       q    Type
REMARK                         _______ _______ _______ _____ _____    ______ ____
ROOT
ATOM      1  C   UNL     1       0.179  11.247  18.761  0.00  0.00    +0.000 C 
ENDROOT
BRANCH   1   2
ATOM      2  C   UNL     1       0.886   9.922  18.959  0.00  0.00    +0.000 A 
ATOM      3  C   UNL     1       0.884   9.272  20.204  0.00  0.00    +0.000 A 
ATOM      4  C   UNL     1       1.549   8.056  20.372  0.00  0.00    +0.000 A 
ATOM      5  C   UNL     1       2.228   7.460  19.302  0.00  0.00    +0.000 A 
ATOM      6  C   UNL     1       2.236   8.109  18.060  0.00  0.00    +0.000 A 
ATOM      7  C   UNL     1       1.571   9.326  17.890  0.00  0.00    +0.000 A 
BRANCH   5   8
ATOM      8  C   UNL     1       2.958   6.148  19.490  0.00  0.00    +0.000 C 
BRANCH   8   9
ATOM      9  N   UNL     1       2.216   4.959  19.013  0.00  0.00    +0.000 NA
ATOM     10  C   UNL     1       3.129   4.014  18.344  0.00  0.00    +0.000 C 
ATOM     11  C   UNL     1       2.474   2.674  18.003  0.00  0.00    +0.000 C 
ATOM     12  C   UNL     1       1.843   2.045  19.235  0.00  0.00    +0.000 C 
ATOM     13  C   UNL     1       0.842   3.021  19.833  0.00  0.00    +0.000 C 
ATOM     14  C   UNL     1       1.513   4.355  20.158  0.00  0.00    +0.000 C 
ENDBRANCH   8   9
ENDBRANCH   5   8
ENDBRANCH   1   2
BRANCH   1  15
ATOM     15  C   UNL     1      -1.265  11.131  18.377  0.00  0.00    +0.000 A 
ATOM     16  N   UNL     1      -2.259  11.950  18.672  0.00  0.00    +0.000 NA
ATOM     17  C   UNL     1      -3.401  11.347  18.191  0.00  0.00    +0.000 A 
ATOM     18  C   UNL     1      -3.088  10.160  17.567  0.00  0.00    +0.000 A 
ATOM     19  N   UNL     1      -1.734  10.039  17.687  0.00  0.00    +0.000 N 
ATOM     20  H   UNL     1      -1.150   9.278  17.368  0.00  0.00    +0.000 HD
BRANCH  17  21
ATOM     21  C   UNL     1      -4.724  11.922  18.343  0.00  0.00    +0.000 A 
ATOM     22  C   UNL     1      -5.542  12.085  17.215  0.00  0.00    +0.000 A 
ATOM     23  C   UNL     1      -6.816  12.652  17.330  0.00  0.00    +0.000 A 
ATOM     24  C   UNL     1      -7.286  13.069  18.575  0.00  0.00    +0.000 A 
ATOM     25  C   UNL     1      -6.481  12.920  19.703  0.00  0.00    +0.000 A 
ATOM     26  C   UNL     1      -5.214  12.348  19.582  0.00  0.00    +0.000 A 
ATOM     27  F   UNL     1      -4.470  12.243  20.696  0.00  0.00    +0.000 F 
ENDBRANCH  17  21
ENDBRANCH   1  15
BRANCH   1  28
ATOM     28  O   UNL     1       0.248  12.026  19.966  0.00  0.00    +0.000 OA
ATOM     29  H   UNL     1      -0.672  12.233  20.208  0.00  0.00    +0.000 HD
ENDBRANCH   1  28
TORSDOF 6
ENDMDL
MODEL 4
REMARK VINA RESULT:      -8.0      7.791     10.528
REMARK  Name = 
REMARK  6 active torsions:
REMARK  status: ('A' for Active; 'I' for Inactive)
REMARK    1  A    between atoms: O_1  and  C_2
REMARK    2  A    between atoms: C_2  and  C_3
REMARK    3  A    between atoms: C_2  and  C_16
REMARK    4  A    between atoms: C_6  and  C_7
REMARK    5  A    between atoms: C_7  and  N_8
REMARK    6  A    between atoms: C_18  and  C_19
REMARK                            x       y       z     vdW  Elec       q    Type
REMARK                         _______ _______ _______ _____ _____    ______ ____
ROOT
ATOM      1  C   UNL     1       0.351  11.524  18.886  0.00  0.00    +0.000 C 
ENDROOT
BRANCH   1   2
ATOM      2  C   UNL     1       1.015  10.168  19.005  0.00  0.00    +0.000 A 
ATOM      3  C   UNL     1       1.694   9.589  17.920  0.00  0.00    +0.000 A 
ATOM      4  C   UNL     1       2.292   8.334  18.042  0.00  0.00    +0.000 A 
ATOM      5  C   UNL     1       2.230   7.629  19.250  0.00  0.00    +0.000 A 
ATOM      6  C   UNL     1       1.550   8.201  20.333  0.00  0.00    +0.000 A 
ATOM      7  C   UNL     1       0.949   9.457  20.212  0.00  0.00    +0.000 A 
BRANCH   5   8
ATOM      8  C   UNL     1       2.869   6.264  19.377  0.00  0.00    +0.000 C 
BRANCH   8   9
ATOM      9  N   UNL     1       1.907   5.149  19.533  0.00  0.00    +0.000 NA
ATOM     10  C   UNL     1       2.016   4.209  18.403  0.00  0.00    +0.000 C 
ATOM     11  C   UNL     1       1.198   2.930  18.594  0.00  0.00    +0.000 C 
ATOM     12  C   UNL     1       1.548   2.249  19.907  0.00  0.00    +0.000 C 
ATOM     13  C   UNL     1       1.329   3.229  21.049  0.00  0.00    +0.000 C 
ATOM     14  C   UNL     1       2.147   4.502  20.835  0.00  0.00    +0.000 C 
ENDBRANCH   8   9
ENDBRANCH   5   8
ENDBRANCH   1   2
BRANCH   1  15
ATOM     15  C   UNL     1      -1.076  11.481  18.427  0.00  0.00    +0.000 A 
ATOM     16  N   UNL     1      -2.157  11.868  19.079  0.00  0.00    +0.000 NA
ATOM     17  C   UNL     1      -3.225  11.517  18.281  0.00  0.00    +0.000 A 
ATOM     18  C   UNL     1      -2.780  10.937  17.114  0.00  0.00    +0.000 A 
ATOM     19  N   UNL     1      -1.419  10.925  17.217  0.00  0.00    +0.000 N 
ATOM     20  H   UNL     1      -0.751  10.552  16.557  0.00  0.00    +0.000 HD
BRANCH  17  21
ATOM     21  C   UNL     1      -4.606  11.749  18.660  0.00  0.00    +0.000 A 
ATOM     22  C   UNL     1      -5.636  11.398  17.773  0.00  0.00    +0.000 A 
ATOM     23  C   UNL     1      -6.975  11.624  18.107  0.00  0.00    +0.000 A 
ATOM     24  C   UNL     1      -7.303  12.211  19.329  0.00  0.00    +0.000 A 
ATOM     25  C   UNL     1      -6.290  12.570  20.216  0.00  0.00    +0.000 A 
ATOM     26  C   UNL     1      -4.956  12.336  19.880  0.00  0.00    +0.000 A 
ATOM     27  F   UNL     1      -4.017  12.717  20.761  0.00  0.00    +0.000 F 
ENDBRANCH  17  21
ENDBRANCH   1  15
BRANCH   1  28
ATOM     28  O   UNL     1       0.380  12.198  20.154  0.00  0.00    +0.000 OA
ATOM     29  H   UNL     1       0.538  13.138  19.956  0.00  0.00    +0.000 HD
ENDBRANCH   1  28
TORSDOF 6
ENDMDL
MODEL 5
REMARK VINA RESULT:      -7.9      0.959      1.430
REMARK  Name = 
REMARK  6 active torsions:
REMARK  status: ('A' for Active; 'I' for Inactive)
REMARK    1  A    between atoms: O_1  and  C_2
REMARK    2  A    between atoms: C_2  and  C_3
REMARK    3  A    between atoms: C_2  and  C_16
REMARK    4  A    between atoms: C_6  and  C_7
REMARK    5  A    between atoms: C_7  and  N_8
REMARK    6  A    between atoms: C_18  and  C_19
REMARK                            x       y       z     vdW  Elec       q    Type
REMARK                         _______ _______ _______ _____ _____    ______ ____
ROOT
ATOM      1  C   UNL     1       7.448   4.700  18.021  0.00  0.00    +0.000 C 
ENDROOT
BRANCH   1   2
ATOM      2  C   UNL     1       7.735   6.186  18.075  0.00  0.00    +0.000 A 
ATOM      3  C   UNL     1       8.483   6.749  19.122  0.00  0.00    +0.000 A 
ATOM      4  C   UNL     1       8.730   8.122  19.161  0.00  0.00    +0.000 A 
ATOM      5  C   UNL     1       8.240   8.964  18.156  0.00  0.00    +0.000 A 
ATOM      6  C   UNL     1       7.489   8.407  17.112  0.00  0.00    +0.000 A 
ATOM      7  C   UNL     1       7.240   7.033  17.072  0.00  0.00    +0.000 A 
BRANCH   5   8
ATOM      8  C   UNL     1       8.499  10.454  18.208  0.00  0.00    +0.000 C 
BRANCH   8   9
ATOM      9  N   UNL     1       9.767  10.834  18.872  0.00  0.00    +0.000 NA
ATOM     10  C   UNL     1      10.655  11.536  17.926  0.00  0.00    +0.000 C 
ATOM     11  C   UNL     1      11.897  12.135  18.589  0.00  0.00    +0.000 C 
ATOM     12  C   UNL     1      11.515  13.036  19.753  0.00  0.00    +0.000 C 
ATOM     13  C   UNL     1      10.680  12.240  20.744  0.00  0.00    +0.000 C 
ATOM     14  C   UNL     1       9.450  11.643  20.060  0.00  0.00    +0.000 C 
ENDBRANCH   8   9
ENDBRANCH   5   8
ENDBRANCH   1   2
BRANCH   1  15
ATOM     15  C   UNL     1       6.003   4.350  17.833  0.00  0.00    +0.000 A 
ATOM     16  N   UNL     1       5.053   4.277  18.748  0.00  0.00    +0.000 NA
ATOM     17  C   UNL     1       3.933   3.808  18.094  0.00  0.00    +0.000 A 
ATOM     18  C   UNL     1       4.203   3.624  16.756  0.00  0.00    +0.000 A 
ATOM     19  N   UNL     1       5.513   3.976  16.604  0.00  0.00    +0.000 N 
ATOM     20  H   UNL     1       6.068   3.947  15.760  0.00  0.00    +0.000 HD
BRANCH  17  21
ATOM     21  C   UNL     1       2.671   3.559  18.765  0.00  0.00    +0.000 A 
ATOM     22  C   UNL     1       1.863   2.491  18.345  0.00  0.00    +0.000 A 
ATOM     23  C   UNL     1       0.634   2.238  18.963  0.00  0.00    +0.000 A 
ATOM     24  C   UNL     1       0.194   3.054  20.005  0.00  0.00    +0.000 A 
ATOM     25  C   UNL     1       0.983   4.121  20.427  0.00  0.00    +0.000 A 
ATOM     26  C   UNL     1       2.211   4.366  19.811  0.00  0.00    +0.000 A 
ATOM     27  F   UNL     1       2.926   5.418  20.242  0.00  0.00    +0.000 F 
ENDBRANCH  17  21
ENDBRANCH   1  15
BRANCH   1  28
ATOM     28  O   UNL     1       8.186   4.095  16.948  0.00  0.00    +0.000 OA
ATOM     29  H   UNL     1       8.047   3.135  17.031  0.00  0.00    +0.000 HD
ENDBRANCH   1  28
TORSDOF 6
ENDMDL
MODEL 6
REMARK VINA RESULT:      -7.9      7.797     10.655
REMARK  Name = 
REMARK  6 active torsions:
REMARK  status: ('A' for Active; 'I' for Inactive)
REMARK    1  A    between atoms: O_1  and  C_2
REMARK    2  A    between atoms: C_2  and  C_3
REMARK    3  A    between atoms: C_2  and  C_16
REMARK    4  A    between atoms: C_6  and  C_7
REMARK    5  A    between atoms: C_7  and  N_8
REMARK    6  A    between atoms: C_18  and  C_19
REMARK                            x       y       z     vdW  Elec       q    Type
REMARK                         _______ _______ _______ _____ _____    ______ ____
ROOT
ATOM      1  C   UNL     1       1.139  10.565  18.769  0.00  0.00    +0.000 C 
ENDROOT
BRANCH   1   2
ATOM      2  C   UNL     1      -0.348  10.609  18.484  0.00  0.00    +0.000 A 
ATOM      3  C   UNL     1      -0.929   9.788  17.504  0.00  0.00    +0.000 A 
ATOM      4  C   UNL     1      -2.299   9.848  17.247  0.00  0.00    +0.000 A 
ATOM      5  C   UNL     1      -3.122  10.725  17.962  0.00  0.00    +0.000 A 
ATOM      6  C   UNL     1      -2.545  11.550  18.938  0.00  0.00    +0.000 A 
ATOM      7  C   UNL     1      -1.173  11.492  19.196  0.00  0.00    +0.000 A 
BRANCH   5   8
ATOM      8  C   UNL     1      -4.605  10.798  17.673  0.00  0.00    +0.000 C 
BRANCH   8   9
ATOM      9  N   UNL     1      -5.271  12.017  18.186  0.00  0.00    +0.000 NA
ATOM     10  C   UNL     1      -5.965  12.725  17.094  0.00  0.00    +0.000 C 
ATOM     11  C   UNL     1      -6.841  13.882  17.579  0.00  0.00    +0.000 C 
ATOM     12  C   UNL     1      -7.826  13.413  18.639  0.00  0.00    +0.000 C 
ATOM     13  C   UNL     1      -7.056  12.775  19.785  0.00  0.00    +0.000 C 
ATOM     14  C   UNL     1      -6.180  11.630  19.278  0.00  0.00    +0.000 C 
ENDBRANCH   8   9
ENDBRANCH   5   8
ENDBRANCH   1   2
BRANCH   1  15
ATOM     15  C   UNL     1       1.700   9.186  18.941  0.00  0.00    +0.000 A 
ATOM     16  N   UNL     1       2.329   8.441  18.049  0.00  0.00    +0.000 NA
ATOM     17  C   UNL     1       2.538   7.221  18.657  0.00  0.00    +0.000 A 
ATOM     18  C   UNL     1       2.057   7.240  19.946  0.00  0.00    +0.000 A 
ATOM     19  N   UNL     1       1.534   8.489  20.115  0.00  0.00    +0.000 N 
ATOM     20  H   UNL     1       1.069   8.861  20.932  0.00  0.00    +0.000 HD
BRANCH  17  21
ATOM     21  C   UNL     1       3.182   6.105  17.989  0.00  0.00    +0.000 A 
ATOM     22  C   UNL     1       4.438   6.290  17.389  0.00  0.00    +0.000 A 
ATOM     23  C   UNL     1       5.075   5.236  16.726  0.00  0.00    +0.000 A 
ATOM     24  C   UNL     1       4.462   3.985  16.647  0.00  0.00    +0.000 A 
ATOM     25  C   UNL     1       3.213   3.791  17.233  0.00  0.00    +0.000 A 
ATOM     26  C   UNL     1       2.585   4.844  17.899  0.00  0.00    +0.000 A 
ATOM     27  F   UNL     1       1.374   4.610  18.431  0.00  0.00    +0.000 F 
ENDBRANCH  17  21
ENDBRANCH   1  15
BRANCH   1  28
ATOM     28  O   UNL     1       1.864  11.200  17.703  0.00  0.00    +0.000 OA
ATOM     29  H   UNL     1       1.974  10.525  17.011  0.00  0.00    +0.000 HD
ENDBRANCH   1  28
TORSDOF 6
ENDMDL
MODEL 7
REMARK VINA RESULT:      -7.8      7.391     10.435
REMARK  Name = 
REMARK  6 active torsions:
REMARK  status: ('A' for Active; 'I' for Inactive)
REMARK    1  A    between atoms: O_1  and  C_2
REMARK    2  A    between atoms: C_2  and  C_3
REMARK    3  A    between atoms: C_2  and  C_16
REMARK    4  A    between atoms: C_6  and  C_7
REMARK    5  A    between atoms: C_7  and  N_8
REMARK    6  A    between atoms: C_18  and  C_19
REMARK                            x       y       z     vdW  Elec       q    Type
REMARK                         _______ _______ _______ _____ _____    ______ ____
ROOT
ATOM      1  C   UNL     1       1.334  10.262  18.561  0.00  0.00    +0.000 C 
ENDROOT
BRANCH   1   2
ATOM      2  C   UNL     1      -0.152  10.467  18.347  0.00  0.00    +0.000 A 
ATOM      3  C   UNL     1      -0.871  11.424  19.082  0.00  0.00    +0.000 A 
ATOM      4  C   UNL     1      -2.242  11.593  18.879  0.00  0.00    +0.000 A 
ATOM      5  C   UNL     1      -2.925  10.815  17.938  0.00  0.00    +0.000 A 
ATOM      6  C   UNL     1      -2.212   9.857  17.206  0.00  0.00    +0.000 A 
ATOM      7  C   UNL     1      -0.840   9.685  17.408  0.00  0.00    +0.000 A 
BRANCH   5   8
ATOM      8  C   UNL     1      -4.413  10.992  17.729  0.00  0.00    +0.000 C 
BRANCH   8   9
ATOM      9  N   UNL     1      -5.172  11.310  18.961  0.00  0.00    +0.000 NA
ATOM     10  C   UNL     1      -5.499  12.746  19.011  0.00  0.00    +0.000 C 
ATOM     11  C   UNL     1      -6.452  13.114  20.151  0.00  0.00    +0.000 C 
ATOM     12  C   UNL     1      -7.713  12.267  20.102  0.00  0.00    +0.000 C 
ATOM     13  C   UNL     1      -7.327  10.797  20.148  0.00  0.00    +0.000 C 
ATOM     14  C   UNL     1      -6.369  10.453  19.008  0.00  0.00    +0.000 C 
ENDBRANCH   8   9
ENDBRANCH   5   8
ENDBRANCH   1   2
BRANCH   1  15
ATOM     15  C   UNL     1       1.714   8.885  19.014  0.00  0.00    +0.000 A 
ATOM     16  N   UNL     1       2.312   7.932  18.323  0.00  0.00    +0.000 NA
ATOM     17  C   UNL     1       2.333   6.825  19.145  0.00  0.00    +0.000 A 
ATOM     18  C   UNL     1       1.767   7.124  20.364  0.00  0.00    +0.000 A 
ATOM     19  N   UNL     1       1.385   8.431  20.269  0.00  0.00    +0.000 N 
ATOM     20  H   UNL     1       0.910   8.990  20.966  0.00  0.00    +0.000 HD
BRANCH  17  21
ATOM     21  C   UNL     1       2.886   5.548  18.737  0.00  0.00    +0.000 A 
ATOM     22  C   UNL     1       4.148   5.157  19.212  0.00  0.00    +0.000 A 
ATOM     23  C   UNL     1       4.712   3.938  18.824  0.00  0.00    +0.000 A 
ATOM     24  C   UNL     1       4.026   3.095  17.949  0.00  0.00    +0.000 A 
ATOM     25  C   UNL     1       2.776   3.474  17.465  0.00  0.00    +0.000 A 
ATOM     26  C   UNL     1       2.214   4.689  17.861  0.00  0.00    +0.000 A 
ATOM     27  F   UNL     1       1.016   5.016  17.352  0.00  0.00    +0.000 F 
ENDBRANCH  17  21
ENDBRANCH   1  15
BRANCH   1  28
ATOM     28  O   UNL     1       2.048  10.533  17.344  0.00  0.00    +0.000 OA
ATOM     29  H   UNL     1       1.508  10.161  16.625  0.00  0.00    +0.000 HD
ENDBRANCH   1  28
TORSDOF 6
ENDMDL
MODEL 8
REMARK VINA RESULT:      -7.8      7.497     10.450
REMARK  Name = 
REMARK  6 active torsions:
REMARK  status: ('A' for Active; 'I' for Inactive)
REMARK    1  A    between atoms: O_1  and  C_2
REMARK    2  A    between atoms: C_2  and  C_3
REMARK    3  A    between atoms: C_2  and  C_16
REMARK    4  A    between atoms: C_6  and  C_7
REMARK    5  A    between atoms: C_7  and  N_8
REMARK    6  A    between atoms: C_18  and  C_19
REMARK                            x       y       z     vdW  Elec       q    Type
REMARK                         _______ _______ _______ _____ _____    ______ ____
ROOT
ATOM      1  C   UNL     1       1.292  10.256  18.597  0.00  0.00    +0.000 C 
ENDROOT
BRANCH   1   2
ATOM      2  C   UNL     1      -0.178  10.594  18.450  0.00  0.00    +0.000 A 
ATOM      3  C   UNL     1      -1.027   9.826  17.637  0.00  0.00    +0.000 A 
ATOM      4  C   UNL     1      -2.376  10.157  17.505  0.00  0.00    +0.000 A 
ATOM      5  C   UNL     1      -2.910  11.259  18.184  0.00  0.00    +0.000 A 
ATOM      6  C   UNL     1      -2.065  12.030  18.993  0.00  0.00    +0.000 A 
ATOM      7  C   UNL     1      -0.714  11.701  19.125  0.00  0.00    +0.000 A 
BRANCH   5   8
ATOM      8  C   UNL     1      -4.371  11.622  18.029  0.00  0.00    +0.000 C 
BRANCH   8   9
ATOM      9  N   UNL     1      -5.161  11.529  19.278  0.00  0.00    +0.000 NA
ATOM     10  C   UNL     1      -5.453  12.874  19.807  0.00  0.00    +0.000 C 
ATOM     11  C   UNL     1      -6.434  12.866  20.982  0.00  0.00    +0.000 C 
ATOM     12  C   UNL     1      -7.715  12.131  20.619  0.00  0.00    +0.000 C 
ATOM     13  C   UNL     1      -7.368  10.720  20.170  0.00  0.00    +0.000 C 
ATOM     14  C   UNL     1      -6.381  10.750  19.003  0.00  0.00    +0.000 C 
ENDBRANCH   8   9
ENDBRANCH   5   8
ENDBRANCH   1   2
BRANCH   1  15
ATOM     15  C   UNL     1       1.568   8.988  19.346  0.00  0.00    +0.000 A 
ATOM     16  N   UNL     1       2.203   7.910  18.923  0.00  0.00    +0.000 NA
ATOM     17  C   UNL     1       2.091   6.983  19.938  0.00  0.00    +0.000 A 
ATOM     18  C   UNL     1       1.405   7.521  21.003  0.00  0.00    +0.000 A 
ATOM     19  N   UNL     1       1.084   8.791  20.618  0.00  0.00    +0.000 N 
ATOM     20  H   UNL     1       0.557   9.481  21.135  0.00  0.00    +0.000 HD
BRANCH  17  21
ATOM     21  C   UNL     1       2.638   5.643  19.849  0.00  0.00    +0.000 A 
ATOM     22  C   UNL     1       3.967   5.464  19.435  0.00  0.00    +0.000 A 
ATOM     23  C   UNL     1       4.516   4.182  19.325  0.00  0.00    +0.000 A 
ATOM     24  C   UNL     1       3.741   3.061  19.622  0.00  0.00    +0.000 A 
ATOM     25  C   UNL     1       2.418   3.224  20.028  0.00  0.00    +0.000 A 
ATOM     26  C   UNL     1       1.878   4.506  20.141  0.00  0.00    +0.000 A 
ATOM     27  F   UNL     1       0.593   4.608  20.519  0.00  0.00    +0.000 F 
ENDBRANCH  17  21
ENDBRANCH   1  15
BRANCH   1  28
ATOM     28  O   UNL     1       1.901  10.139  17.301  0.00  0.00    +0.000 OA
ATOM     29  H   UNL     1       1.627  10.927  16.801  0.00  0.00    +0.000 HD
ENDBRANCH   1  28
TORSDOF 6
ENDMDL
MODEL 9
REMARK VINA RESULT:      -7.8      6.470      8.554
REMARK  Name = 
REMARK  6 active torsions:
REMARK  status: ('A' for Active; 'I' for Inactive)
REMARK    1  A    between atoms: O_1  and  C_2
REMARK    2  A    between atoms: C_2  and  C_3
REMARK    3  A    between atoms: C_2  and  C_16
REMARK    4  A    between atoms: C_6  and  C_7
REMARK    5  A    between atoms: C_7  and  N_8
REMARK    6  A    between atoms: C_18  and  C_19
REMARK                            x       y       z     vdW  Elec       q    Type
REMARK                         _______ _______ _______ _____ _____    ______ ____
ROOT
ATOM      1  C   UNL     1       1.100   9.016  20.876  0.00  0.00    +0.000 C 
ENDROOT
BRANCH   1   2
ATOM      2  C   UNL     1       1.741   7.883  20.102  0.00  0.00    +0.000 A 
ATOM      3  C   UNL     1       1.855   6.596  20.652  0.00  0.00    +0.000 A 
ATOM      4  C   UNL     1       2.457   5.564  19.930  0.00  0.00    +0.000 A 
ATOM      5  C   UNL     1       2.955   5.792  18.641  0.00  0.00    +0.000 A 
ATOM      6  C   UNL     1       2.847   7.076  18.091  0.00  0.00    +0.000 A 
ATOM      7  C   UNL     1       2.245   8.110  18.813  0.00  0.00    +0.000 A 
BRANCH   5   8
ATOM      8  C   UNL     1       3.618   4.675  17.865  0.00  0.00    +0.000 C 
BRANCH   8   9
ATOM      9  N   UNL     1       5.096   4.758  17.813  0.00  0.00    +0.000 NA
ATOM     10  C   UNL     1       5.526   5.586  16.671  0.00  0.00    +0.000 C 
ATOM     11  C   UNL     1       7.028   5.884  16.667  0.00  0.00    +0.000 C 
ATOM     12  C   UNL     1       7.465   6.501  17.986  0.00  0.00    +0.000 C 
ATOM     13  C   UNL     1       7.082   5.567  19.123  0.00  0.00    +0.000 C 
ATOM     14  C   UNL     1       5.582   5.275  19.103  0.00  0.00    +0.000 C 
ENDBRANCH   8   9
ENDBRANCH   5   8
ENDBRANCH   1   2
BRANCH   1  15
ATOM     15  C   UNL     1       0.295   9.964  20.040  0.00  0.00    +0.000 A 
ATOM     16  N   UNL     1      -0.880   9.759  19.472  0.00  0.00    +0.000 NA
ATOM     17  C   UNL     1      -1.140  10.887  18.722  0.00  0.00    +0.000 A 
ATOM     18  C   UNL     1      -0.120  11.801  18.864  0.00  0.00    +0.000 A 
ATOM     19  N   UNL     1       0.778  11.207  19.704  0.00  0.00    +0.000 N 
ATOM     20  H   UNL     1       1.667  11.572  20.018  0.00  0.00    +0.000 HD
BRANCH  17  21
ATOM     21  C   UNL     1      -2.334  11.042  17.914  0.00  0.00    +0.000 A 
ATOM     22  C   UNL     1      -2.327  10.611  16.578  0.00  0.00    +0.000 A 
ATOM     23  C   UNL     1      -3.460  10.763  15.772  0.00  0.00    +0.000 A 
ATOM     24  C   UNL     1      -4.613  11.353  16.288  0.00  0.00    +0.000 A 
ATOM     25  C   UNL     1      -4.632  11.791  17.611  0.00  0.00    +0.000 A 
ATOM     26  C   UNL     1      -3.500  11.632  18.413  0.00  0.00    +0.000 A 
ATOM     27  F   UNL     1      -3.563  12.086  19.675  0.00  0.00    +0.000 F 
ENDBRANCH  17  21
ENDBRANCH   1  15
BRANCH   1  28
ATOM     28  O   UNL     1       0.235   8.490  21.894  0.00  0.00    +0.000 OA
ATOM     29  H   UNL     1      -0.091   7.637  21.558  0.00  0.00    +0.000 HD
ENDBRANCH   1  28
TORSDOF 6
ENDMDL
