MODEL 1
REMARK VINA RESULT:      -8.5      0.000      0.000
REMARK  Name = 
REMARK  2 active torsions:
REMARK  status: ('A' for Active; 'I' for Inactive)
REMARK    1  A    between atoms: C_4  and  C_5
REMARK    2  A    between atoms: C_13  and  C_14
REMARK                            x       y       z     vdW  Elec       q    Type
REMARK                         _______ _______ _______ _____ _____    ______ ____
ROOT
ATOM      1  C   UNL     1      -1.005  13.356  19.644  0.00  0.00    +0.000 A 
ATOM      2  N   UNL     1      -0.927  14.671  19.234  0.00  0.00    +0.000 N 
ATOM      3  C   UNL     1       0.383  15.038  19.022  0.00  0.00    +0.000 A 
ATOM      4  C   UNL     1       0.927  16.258  18.601  0.00  0.00    +0.000 A 
ATOM      5  C   UNL     1       2.318  16.336  18.459  0.00  0.00    +0.000 A 
ATOM      6  C   UNL     1       3.132  15.241  18.733  0.00  0.00    +0.000 A 
ATOM      7  C   UNL     1       2.573  14.031  19.159  0.00  0.00    +0.000 A 
ATOM      8  C   UNL     1       1.174  13.923  19.306  0.00  0.00    +0.000 A 
ATOM      9  C   UNL     1       0.288  12.876  19.700  0.00  0.00    +0.000 A 
ATOM     10  H   UNL     1      -1.716  15.289  19.106  0.00  0.00    +0.000 HD
ENDROOT
BRANCH   1  14
ATOM     11  O   UNL     1      -4.674  12.616  22.529  0.00  0.00    +0.000 OA
ATOM     12  C   UNL     1      -4.216  12.515  21.397  0.00  0.00    +0.000 C 
ATOM     13  C   UNL     1      -2.842  12.962  21.101  0.00  0.00    +0.000 C 
ATOM     14  C   UNL     1      -2.291  12.807  19.891  0.00  0.00    +0.000 C 
ATOM     15  C   UNL     1      -3.027  12.103  18.799  0.00  0.00    +0.000 C 
ATOM     16  O   UNL     1      -2.497  11.834  17.727  0.00  0.00    +0.000 OA
ATOM     17  C   UNL     1      -4.447  11.778  19.033  0.00  0.00    +0.000 A 
ATOM     18  C   UNL     1      -5.224  11.280  17.978  0.00  0.00    +0.000 A 
ATOM     19  C   UNL     1      -6.582  11.023  18.170  0.00  0.00    +0.000 A 
ATOM     20  C   UNL     1      -7.167  11.258  19.414  0.00  0.00    +0.000 A 
ATOM     21  C   UNL     1      -6.392  11.738  20.472  0.00  0.00    +0.000 A 
ATOM     22  C   UNL     1      -5.028  11.995  20.282  0.00  0.00    +0.000 A 
ENDBRANCH   1  14
BRANCH   9  23
ATOM     23  C   UNL     1       0.664  11.552  20.080  0.00  0.00    +0.000 C 
ATOM     24  C   UNL     1       0.416  11.077  21.308  0.00  0.00    +0.000 C 
ATOM     25  C   UNL     1       0.745   9.699  21.707  0.00  0.00    +0.000 C 
ATOM     26  O   UNL     1       0.590   9.333  22.867  0.00  0.00    +0.000 OA
ATOM     27  C   UNL     1       1.250   8.788  20.668  0.00  0.00    +0.000 A 
ATOM     28  C   UNL     1       1.427   7.430  20.964  0.00  0.00    +0.000 A 
ATOM     29  C   UNL     1       1.896   6.558  19.982  0.00  0.00    +0.000 A 
ATOM     30  C   UNL     1       2.207   7.040  18.711  0.00  0.00    +0.000 A 
ATOM     31  C   UNL     1       2.035   8.394  18.416  0.00  0.00    +0.000 A 
ATOM     32  C   UNL     1       1.544   9.267  19.395  0.00  0.00    +0.000 A 
ATOM     33  C   UNL     1       1.321  10.687  19.053  0.00  0.00    +0.000 C 
ATOM     34  O   UNL     1       1.663  11.115  17.957  0.00  0.00    +0.000 OA
ENDBRANCH   9  23
TORSDOF 2
ENDMDL
MODEL 2
REMARK VINA RESULT:      -8.5      1.090      1.982
REMARK  Name = 
REMARK  2 active torsions:
REMARK  status: ('A' for Active; 'I' for Inactive)
REMARK    1  A    between atoms: C_4  and  C_5
REMARK    2  A    between atoms: C_13  and  C_14
REMARK                            x       y       z     vdW  Elec       q    Type
REMARK                         _______ _______ _______ _____ _____    ______ ____
ROOT
ATOM      1  C   UNL     1      -0.565  12.962  18.822  0.00  0.00    +0.000 A 
ATOM      2  N   UNL     1      -0.423  14.308  18.560  0.00  0.00    +0.000 N 
ATOM      3  C   UNL     1       0.856  14.728  18.848  0.00  0.00    +0.000 A 
ATOM      4  C   UNL     1       1.443  15.995  18.733  0.00  0.00    +0.000 A 
ATOM      5  C   UNL     1       2.790  16.124  19.095  0.00  0.00    +0.000 A 
ATOM      6  C   UNL     1       3.517  15.032  19.559  0.00  0.00    +0.000 A 
ATOM      7  C   UNL     1       2.914  13.775  19.675  0.00  0.00    +0.000 A 
ATOM      8  C   UNL     1       1.560  13.616  19.313  0.00  0.00    +0.000 A 
ATOM      9  C   UNL     1       0.652  12.515  19.295  0.00  0.00    +0.000 A 
ATOM     10  H   UNL     1      -1.152  14.913  18.206  0.00  0.00    +0.000 HD
ENDROOT
BRANCH   1  14
ATOM     11  O   UNL     1      -3.219   9.852  16.452  0.00  0.00    +0.000 OA
ATOM     12  C   UNL     1      -3.154  10.668  17.364  0.00  0.00    +0.000 C 
ATOM     13  C   UNL     1      -1.907  11.415  17.615  0.00  0.00    +0.000 C 
ATOM     14  C   UNL     1      -1.823  12.358  18.561  0.00  0.00    +0.000 C 
ATOM     15  C   UNL     1      -3.022  12.748  19.362  0.00  0.00    +0.000 C 
ATOM     16  O   UNL     1      -3.003  13.694  20.140  0.00  0.00    +0.000 OA
ATOM     17  C   UNL     1      -4.234  11.918  19.223  0.00  0.00    +0.000 A 
ATOM     18  C   UNL     1      -5.320  12.134  20.081  0.00  0.00    +0.000 A 
ATOM     19  C   UNL     1      -6.450  11.320  19.999  0.00  0.00    +0.000 A 
ATOM     20  C   UNL     1      -6.500  10.290  19.060  0.00  0.00    +0.000 A 
ATOM     21  C   UNL     1      -5.426  10.081  18.193  0.00  0.00    +0.000 A 
ATOM     22  C   UNL     1      -4.292  10.900  18.272  0.00  0.00    +0.000 A 
ENDBRANCH   1  14
BRANCH   9  23
ATOM     23  C   UNL     1       0.946  11.174  19.689  0.00  0.00    +0.000 C 
ATOM     24  C   UNL     1       0.596  10.703  20.893  0.00  0.00    +0.000 C 
ATOM     25  C   UNL     1       0.839   9.310  21.302  0.00  0.00    +0.000 C 
ATOM     26  O   UNL     1       0.590   8.944  22.445  0.00  0.00    +0.000 OA
ATOM     27  C   UNL     1       1.376   8.384  20.293  0.00  0.00    +0.000 A 
ATOM     28  C   UNL     1       1.475   7.019  20.589  0.00  0.00    +0.000 A 
ATOM     29  C   UNL     1       1.974   6.133  19.634  0.00  0.00    +0.000 A 
ATOM     30  C   UNL     1       2.391   6.609  18.390  0.00  0.00    +0.000 A 
ATOM     31  C   UNL     1       2.296   7.970  18.096  0.00  0.00    +0.000 A 
ATOM     32  C   UNL     1       1.775   8.858  19.046  0.00  0.00    +0.000 A 
ATOM     33  C   UNL     1       1.636  10.287  18.702  0.00  0.00    +0.000 C 
ATOM     34  O   UNL     1       2.069  10.707  17.635  0.00  0.00    +0.000 OA
ENDBRANCH   9  23
TORSDOF 2
ENDMDL
MODEL 3
REMARK VINA RESULT:      -8.4      2.544      6.159
REMARK  Name = 
REMARK  2 active torsions:
REMARK  status: ('A' for Active; 'I' for Inactive)
REMARK    1  A    between atoms: C_4  and  C_5
REMARK    2  A    between atoms: C_13  and  C_14
REMARK                            x       y       z     vdW  Elec       q    Type
REMARK                         _______ _______ _______ _____ _____    ______ ____
ROOT
ATOM      1  C   UNL     1      -1.200  14.802  21.347  0.00  0.00    +0.000 A 
ATOM      2  N   UNL     1      -1.752  15.455  22.430  0.00  0.00    +0.000 N 
ATOM      3  C   UNL     1      -2.512  14.589  23.184  0.00  0.00    +0.000 A 
ATOM      4  C   UNL     1      -3.243  14.810  24.358  0.00  0.00    +0.000 A 
ATOM      5  C   UNL     1      -3.921  13.720  24.919  0.00  0.00    +0.000 A 
ATOM      6  C   UNL     1      -3.874  12.462  24.325  0.00  0.00    +0.000 A 
ATOM      7  C   UNL     1      -3.145  12.259  23.148  0.00  0.00    +0.000 A 
ATOM      8  C   UNL     1      -2.448  13.339  22.565  0.00  0.00    +0.000 A 
ATOM      9  C   UNL     1      -1.624  13.490  21.410  0.00  0.00    +0.000 A 
ATOM     10  H   UNL     1      -1.623  16.433  22.648  0.00  0.00    +0.000 HD
ENDROOT
BRANCH   1  14
ATOM     11  O   UNL     1       3.047  15.679  19.469  0.00  0.00    +0.000 OA
ATOM     12  C   UNL     1       1.845  15.916  19.455  0.00  0.00    +0.000 C 
ATOM     13  C   UNL     1       0.940  15.261  20.418  0.00  0.00    +0.000 C 
ATOM     14  C   UNL     1      -0.367  15.547  20.470  0.00  0.00    +0.000 C 
ATOM     15  C   UNL     1      -0.956  16.604  19.596  0.00  0.00    +0.000 C 
ATOM     16  O   UNL     1      -2.118  16.974  19.716  0.00  0.00    +0.000 OA
ATOM     17  C   UNL     1      -0.098  17.166  18.535  0.00  0.00    +0.000 A 
ATOM     18  C   UNL     1      -0.656  18.027  17.581  0.00  0.00    +0.000 A 
ATOM     19  C   UNL     1       0.129  18.520  16.538  0.00  0.00    +0.000 A 
ATOM     20  C   UNL     1       1.473  18.158  16.446  0.00  0.00    +0.000 A 
ATOM     21  C   UNL     1       2.037  17.313  17.404  0.00  0.00    +0.000 A 
ATOM     22  C   UNL     1       1.250  16.819  18.453  0.00  0.00    +0.000 A 
ENDBRANCH   1  14
BRANCH   9  23
ATOM     23  C   UNL     1      -1.284  12.464  20.477  0.00  0.00    +0.000 C 
ATOM     24  C   UNL     1      -1.821  12.424  19.250  0.00  0.00    +0.000 C 
ATOM     25  C   UNL     1      -1.446  11.409  18.253  0.00  0.00    +0.000 C 
ATOM     26  O   UNL     1      -2.029  11.348  17.176  0.00  0.00    +0.000 OA
ATOM     27  C   UNL     1      -0.350  10.488  18.592  0.00  0.00    +0.000 A 
ATOM     28  C   UNL     1       0.145   9.612  17.618  0.00  0.00    +0.000 A 
ATOM     29  C   UNL     1       1.191   8.743  17.928  0.00  0.00    +0.000 A 
ATOM     30  C   UNL     1       1.732   8.733  19.214  0.00  0.00    +0.000 A 
ATOM     31  C   UNL     1       1.237   9.603  20.187  0.00  0.00    +0.000 A 
ATOM     32  C   UNL     1       0.201  10.492  19.871  0.00  0.00    +0.000 A 
ATOM     33  C   UNL     1      -0.279  11.440  20.896  0.00  0.00    +0.000 C 
ATOM     34  O   UNL     1       0.154  11.376  22.041  0.00  0.00    +0.000 OA
ENDBRANCH   9  23
TORSDOF 2
ENDMDL
MODEL 4
REMARK VINA RESULT:      -8.4      0.895      5.900
REMARK  Name = 
REMARK  2 active torsions:
REMARK  status: ('A' for Active; 'I' for Inactive)
REMARK    1  A    between atoms: C_4  and  C_5
REMARK    2  A    between atoms: C_13  and  C_14
REMARK                            x       y       z     vdW  Elec       q    Type
REMARK                         _______ _______ _______ _____ _____    ______ ____
ROOT
ATOM      1  C   UNL     1       0.898  12.629  19.466  0.00  0.00    +0.000 A 
ATOM      2  N   UNL     1       1.961  13.436  19.116  0.00  0.00    +0.000 N 
ATOM      3  C   UNL     1       1.527  14.707  18.809  0.00  0.00    +0.000 A 
ATOM      4  C   UNL     1       2.247  15.841  18.411  0.00  0.00    +0.000 A 
ATOM      5  C   UNL     1       1.528  17.019  18.175  0.00  0.00    +0.000 A 
ATOM      6  C   UNL     1       0.145  17.059  18.324  0.00  0.00    +0.000 A 
ATOM      7  C   UNL     1      -0.561  15.915  18.714  0.00  0.00    +0.000 A 
ATOM      8  C   UNL     1       0.140  14.716  18.964  0.00  0.00    +0.000 A 
ATOM      9  C   UNL     1      -0.241  13.403  19.373  0.00  0.00    +0.000 A 
ATOM     10  H   UNL     1       2.927  13.145  19.085  0.00  0.00    +0.000 HD
ENDROOT
BRANCH   1  14
ATOM     11  O   UNL     1       0.672   9.097  22.597  0.00  0.00    +0.000 OA
ATOM     12  C   UNL     1       0.959   9.449  21.459  0.00  0.00    +0.000 C 
ATOM     13  C   UNL     1       0.807  10.858  21.048  0.00  0.00    +0.000 C 
ATOM     14  C   UNL     1       1.171  11.285  19.833  0.00  0.00    +0.000 C 
ATOM     15  C   UNL     1       1.819  10.359  18.857  0.00  0.00    +0.000 C 
ATOM     16  O   UNL     1       2.278  10.756  17.792  0.00  0.00    +0.000 OA
ATOM     17  C   UNL     1       1.849   8.924  19.197  0.00  0.00    +0.000 A 
ATOM     18  C   UNL     1       2.285   7.998  18.239  0.00  0.00    +0.000 A 
ATOM     19  C   UNL     1       2.264   6.632  18.526  0.00  0.00    +0.000 A 
ATOM     20  C   UNL     1       1.812   6.188  19.768  0.00  0.00    +0.000 A 
ATOM     21  C   UNL     1       1.393   7.109  20.731  0.00  0.00    +0.000 A 
ATOM     22  C   UNL     1       1.415   8.480  20.445  0.00  0.00    +0.000 A 
ENDBRANCH   1  14
BRANCH   9  23
ATOM     23  C   UNL     1      -1.569  12.959  19.649  0.00  0.00    +0.000 C 
ATOM     24  C   UNL     1      -2.175  13.235  20.812  0.00  0.00    +0.000 C 
ATOM     25  C   UNL     1      -3.562  12.835  21.100  0.00  0.00    +0.000 C 
ATOM     26  O   UNL     1      -4.047  13.023  22.210  0.00  0.00    +0.000 OA
ATOM     27  C   UNL     1      -4.336  12.218  20.011  0.00  0.00    +0.000 A 
ATOM     28  C   UNL     1      -5.702  11.966  20.190  0.00  0.00    +0.000 A 
ATOM     29  C   UNL     1      -6.445  11.391  19.159  0.00  0.00    +0.000 A 
ATOM     30  C   UNL     1      -5.824  11.049  17.957  0.00  0.00    +0.000 A 
ATOM     31  C   UNL     1      -4.462  11.296  17.780  0.00  0.00    +0.000 A 
ATOM     32  C   UNL     1      -3.719  11.894  18.806  0.00  0.00    +0.000 A 
ATOM     33  C   UNL     1      -2.290  12.194  18.586  0.00  0.00    +0.000 C 
ATOM     34  O   UNL     1      -1.738  11.827  17.555  0.00  0.00    +0.000 OA
ENDBRANCH   9  23
TORSDOF 2
ENDMDL
MODEL 5
REMARK VINA RESULT:      -8.4      4.139      8.579
REMARK  Name = 
REMARK  2 active torsions:
REMARK  status: ('A' for Active; 'I' for Inactive)
REMARK    1  A    between atoms: C_4  and  C_5
REMARK    2  A    between atoms: C_13  and  C_14
REMARK                            x       y       z     vdW  Elec       q    Type
REMARK                         _______ _______ _______ _____ _____    ______ ____
ROOT
ATOM      1  C   UNL     1       2.320   6.084  19.906  0.00  0.00    +0.000 A 
ATOM      2  N   UNL     1       1.577   5.437  20.872  0.00  0.00    +0.000 N 
ATOM      3  C   UNL     1       2.001   4.136  21.022  0.00  0.00    +0.000 A 
ATOM      4  C   UNL     1       1.544   3.125  21.878  0.00  0.00    +0.000 A 
ATOM      5  C   UNL     1       2.186   1.881  21.818  0.00  0.00    +0.000 A 
ATOM      6  C   UNL     1       3.236   1.656  20.932  0.00  0.00    +0.000 A 
ATOM      7  C   UNL     1       3.675   2.674  20.078  0.00  0.00    +0.000 A 
ATOM      8  C   UNL     1       3.050   3.938  20.122  0.00  0.00    +0.000 A 
ATOM      9  C   UNL     1       3.236   5.170  19.426  0.00  0.00    +0.000 A 
ATOM     10  H   UNL     1       0.822   5.851  21.401  0.00  0.00    +0.000 HD
ENDROOT
BRANCH   1  14
ATOM     11  O   UNL     1       2.256   9.767  16.947  0.00  0.00    +0.000 OA
ATOM     12  C   UNL     1       1.933   9.317  18.040  0.00  0.00    +0.000 C 
ATOM     13  C   UNL     1       2.309   7.944  18.427  0.00  0.00    +0.000 C 
ATOM     14  C   UNL     1       2.026   7.447  19.637  0.00  0.00    +0.000 C 
ATOM     15  C   UNL     1       1.376   8.293  20.681  0.00  0.00    +0.000 C 
ATOM     16  O   UNL     1       1.227   7.903  21.833  0.00  0.00    +0.000 OA
ATOM     17  C   UNL     1       0.869   9.616  20.268  0.00  0.00    +0.000 A 
ATOM     18  C   UNL     1       0.097  10.369  21.163  0.00  0.00    +0.000 A 
ATOM     19  C   UNL     1      -0.438  11.595  20.765  0.00  0.00    +0.000 A 
ATOM     20  C   UNL     1      -0.203  12.073  19.477  0.00  0.00    +0.000 A 
ATOM     21  C   UNL     1       0.579  11.333  18.588  0.00  0.00    +0.000 A 
ATOM     22  C   UNL     1       1.119  10.103  18.986  0.00  0.00    +0.000 A 
ENDBRANCH   1  14
BRANCH   9  23
ATOM     23  C   UNL     1       4.206   5.425  18.410  0.00  0.00    +0.000 C 
ATOM     24  C   UNL     1       5.262   6.219  18.631  0.00  0.00    +0.000 C 
ATOM     25  C   UNL     1       6.304   6.455  17.619  0.00  0.00    +0.000 C 
ATOM     26  O   UNL     1       7.203   7.262  17.826  0.00  0.00    +0.000 OA
ATOM     27  C   UNL     1       6.229   5.684  16.367  0.00  0.00    +0.000 A 
ATOM     28  C   UNL     1       7.280   5.758  15.445  0.00  0.00    +0.000 A 
ATOM     29  C   UNL     1       7.222   5.023  14.261  0.00  0.00    +0.000 A 
ATOM     30  C   UNL     1       6.109   4.228  13.987  0.00  0.00    +0.000 A 
ATOM     31  C   UNL     1       5.059   4.156  14.904  0.00  0.00    +0.000 A 
ATOM     32  C   UNL     1       5.126   4.877  16.104  0.00  0.00    +0.000 A 
ATOM     33  C   UNL     1       4.030   4.753  17.086  0.00  0.00    +0.000 C 
ATOM     34  O   UNL     1       3.026   4.109  16.807  0.00  0.00    +0.000 OA
ENDBRANCH   9  23
TORSDOF 2
ENDMDL
MODEL 6
REMARK VINA RESULT:      -8.2      3.574      7.588
REMARK  Name = 
REMARK  2 active torsions:
REMARK  status: ('A' for Active; 'I' for Inactive)
REMARK    1  A    between atoms: C_4  and  C_5
REMARK    2  A    between atoms: C_13  and  C_14
REMARK                            x       y       z     vdW  Elec       q    Type
REMARK                         _______ _______ _______ _____ _____    ______ ____
ROOT
ATOM      1  C   UNL     1      -3.371  12.880  22.592  0.00  0.00    +0.000 A 
ATOM      2  N   UNL     1      -4.621  12.343  22.362  0.00  0.00    +0.000 N 
ATOM      3  C   UNL     1      -5.607  13.204  22.790  0.00  0.00    +0.000 A 
ATOM      4  C   UNL     1      -7.002  13.077  22.753  0.00  0.00    +0.000 A 
ATOM      5  C   UNL     1      -7.765  14.136  23.258  0.00  0.00    +0.000 A 
ATOM      6  C   UNL     1      -7.158  15.273  23.784  0.00  0.00    +0.000 A 
ATOM      7  C   UNL     1      -5.764  15.381  23.821  0.00  0.00    +0.000 A 
ATOM      8  C   UNL     1      -4.970  14.330  23.314  0.00  0.00    +0.000 A 
ATOM      9  C   UNL     1      -3.566  14.110  23.186  0.00  0.00    +0.000 A 
ATOM     10  H   UNL     1      -4.799  11.442  21.940  0.00  0.00    +0.000 HD
ENDROOT
BRANCH   1  14
ATOM     11  O   UNL     1       0.141   9.885  23.604  0.00  0.00    +0.000 OA
ATOM     12  C   UNL     1      -0.470  10.502  22.741  0.00  0.00    +0.000 C 
ATOM     13  C   UNL     1      -1.589  11.392  23.104  0.00  0.00    +0.000 C 
ATOM     14  C   UNL     1      -2.235  12.127  22.191  0.00  0.00    +0.000 C 
ATOM     15  C   UNL     1      -1.800  12.133  20.763  0.00  0.00    +0.000 C 
ATOM     16  O   UNL     1      -2.290  12.894  19.937  0.00  0.00    +0.000 OA
ATOM     17  C   UNL     1      -0.779  11.146  20.359  0.00  0.00    +0.000 A 
ATOM     18  C   UNL     1      -0.469  10.993  19.001  0.00  0.00    +0.000 A 
ATOM     19  C   UNL     1       0.452  10.025  18.598  0.00  0.00    +0.000 A 
ATOM     20  C   UNL     1       1.066   9.209  19.548  0.00  0.00    +0.000 A 
ATOM     21  C   UNL     1       0.771   9.370  20.904  0.00  0.00    +0.000 A 
ATOM     22  C   UNL     1      -0.151  10.344  21.310  0.00  0.00    +0.000 A 
ENDBRANCH   1  14
BRANCH   9  23
ATOM     23  C   UNL     1      -2.532  15.006  23.593  0.00  0.00    +0.000 C 
ATOM     24  C   UNL     1      -1.971  14.926  24.807  0.00  0.00    +0.000 C 
ATOM     25  C   UNL     1      -0.867  15.802  25.231  0.00  0.00    +0.000 C 
ATOM     26  O   UNL     1      -0.445  15.761  26.381  0.00  0.00    +0.000 OA
ATOM     27  C   UNL     1      -0.291  16.711  24.227  0.00  0.00    +0.000 A 
ATOM     28  C   UNL     1       0.859  17.448  24.539  0.00  0.00    +0.000 A 
ATOM     29  C   UNL     1       1.417  18.304  23.590  0.00  0.00    +0.000 A 
ATOM     30  C   UNL     1       0.820  18.441  22.336  0.00  0.00    +0.000 A 
ATOM     31  C   UNL     1      -0.328  17.710  22.026  0.00  0.00    +0.000 A 
ATOM     32  C   UNL     1      -0.878  16.833  22.970  0.00  0.00    +0.000 A 
ATOM     33  C   UNL     1      -2.063  16.031  22.611  0.00  0.00    +0.000 C 
ATOM     34  O   UNL     1      -2.622  16.209  21.534  0.00  0.00    +0.000 OA
ENDBRANCH   9  23
TORSDOF 2
ENDMDL
MODEL 7
REMARK VINA RESULT:      -8.2      4.047      8.023
REMARK  Name = 
REMARK  2 active torsions:
REMARK  status: ('A' for Active; 'I' for Inactive)
REMARK    1  A    between atoms: C_4  and  C_5
REMARK    2  A    between atoms: C_13  and  C_14
REMARK                            x       y       z     vdW  Elec       q    Type
REMARK                         _______ _______ _______ _____ _____    ______ ____
ROOT
ATOM      1  C   UNL     1      -3.417  12.928  22.606  0.00  0.00    +0.000 A 
ATOM      2  N   UNL     1      -4.664  12.358  22.447  0.00  0.00    +0.000 N 
ATOM      3  C   UNL     1      -5.651  13.223  22.864  0.00  0.00    +0.000 A 
ATOM      4  C   UNL     1      -7.043  13.071  22.883  0.00  0.00    +0.000 A 
ATOM      5  C   UNL     1      -7.810  14.142  23.359  0.00  0.00    +0.000 A 
ATOM      6  C   UNL     1      -7.207  15.314  23.805  0.00  0.00    +0.000 A 
ATOM      7  C   UNL     1      -5.814  15.448  23.787  0.00  0.00    +0.000 A 
ATOM      8  C   UNL     1      -5.018  14.386  23.308  0.00  0.00    +0.000 A 
ATOM      9  C   UNL     1      -3.616  14.184  23.143  0.00  0.00    +0.000 A 
ATOM     10  H   UNL     1      -4.839  11.434  22.078  0.00  0.00    +0.000 HD
ENDROOT
BRANCH   1  14
ATOM     11  O   UNL     1       0.104   9.945  23.621  0.00  0.00    +0.000 OA
ATOM     12  C   UNL     1      -0.512  10.556  22.756  0.00  0.00    +0.000 C 
ATOM     13  C   UNL     1      -1.631  11.446  23.119  0.00  0.00    +0.000 C 
ATOM     14  C   UNL     1      -2.282  12.176  22.205  0.00  0.00    +0.000 C 
ATOM     15  C   UNL     1      -1.852  12.174  20.775  0.00  0.00    +0.000 C 
ATOM     16  O   UNL     1      -2.346  12.930  19.947  0.00  0.00    +0.000 OA
ATOM     17  C   UNL     1      -0.831  11.187  20.372  0.00  0.00    +0.000 A 
ATOM     18  C   UNL     1      -0.525  11.027  19.013  0.00  0.00    +0.000 A 
ATOM     19  C   UNL     1       0.396  10.058  18.613  0.00  0.00    +0.000 A 
ATOM     20  C   UNL     1       1.015   9.249  19.565  0.00  0.00    +0.000 A 
ATOM     21  C   UNL     1       0.725   9.417  20.921  0.00  0.00    +0.000 A 
ATOM     22  C   UNL     1      -0.198  10.391  21.325  0.00  0.00    +0.000 A 
ENDBRANCH   1  14
BRANCH   9  23
ATOM     23  C   UNL     1      -2.586  15.118  23.467  0.00  0.00    +0.000 C 
ATOM     24  C   UNL     1      -1.948  15.817  22.519  0.00  0.00    +0.000 C 
ATOM     25  C   UNL     1      -0.921  16.825  22.831  0.00  0.00    +0.000 C 
ATOM     26  O   UNL     1      -0.294  17.374  21.932  0.00  0.00    +0.000 OA
ATOM     27  C   UNL     1      -0.689  17.150  24.247  0.00  0.00    +0.000 A 
ATOM     28  C   UNL     1       0.162  18.210  24.584  0.00  0.00    +0.000 A 
ATOM     29  C   UNL     1       0.380  18.530  25.923  0.00  0.00    +0.000 A 
ATOM     30  C   UNL     1      -0.235  17.784  26.929  0.00  0.00    +0.000 A 
ATOM     31  C   UNL     1      -1.080  16.725  26.594  0.00  0.00    +0.000 A 
ATOM     32  C   UNL     1      -1.318  16.415  25.249  0.00  0.00    +0.000 A 
ATOM     33  C   UNL     1      -2.252  15.323  24.910  0.00  0.00    +0.000 C 
ATOM     34  O   UNL     1      -2.732  14.629  25.798  0.00  0.00    +0.000 OA
ENDBRANCH   9  23
TORSDOF 2
ENDMDL
MODEL 8
REMARK VINA RESULT:      -8.1      3.047      5.675
REMARK  Name = 
REMARK  2 active torsions:
REMARK  status: ('A' for Active; 'I' for Inactive)
REMARK    1  A    between atoms: C_4  and  C_5
REMARK    2  A    between atoms: C_13  and  C_14
REMARK                            x       y       z     vdW  Elec       q    Type
REMARK                         _______ _______ _______ _____ _____    ______ ____
ROOT
ATOM      1  C   UNL     1      -2.612  13.522  21.553  0.00  0.00    +0.000 A 
ATOM      2  N   UNL     1      -3.254  13.371  22.765  0.00  0.00    +0.000 N 
ATOM      3  C   UNL     1      -2.680  14.177  23.723  0.00  0.00    +0.000 A 
ATOM      4  C   UNL     1      -3.003  14.350  25.075  0.00  0.00    +0.000 A 
ATOM      5  C   UNL     1      -2.240  15.261  25.816  0.00  0.00    +0.000 A 
ATOM      6  C   UNL     1      -1.193  15.966  25.229  0.00  0.00    +0.000 A 
ATOM      7  C   UNL     1      -0.878  15.776  23.879  0.00  0.00    +0.000 A 
ATOM      8  C   UNL     1      -1.634  14.867  23.108  0.00  0.00    +0.000 A 
ATOM      9  C   UNL     1      -1.601  14.442  21.747  0.00  0.00    +0.000 A 
ATOM     10  H   UNL     1      -4.036  12.756  22.936  0.00  0.00    +0.000 HD
ENDROOT
BRANCH   1  14
ATOM     11  O   UNL     1      -6.017  12.521  18.433  0.00  0.00    +0.000 OA
ATOM     12  C   UNL     1      -4.857  12.342  18.786  0.00  0.00    +0.000 C 
ATOM     13  C   UNL     1      -4.332  13.000  19.998  0.00  0.00    +0.000 C 
ATOM     14  C   UNL     1      -3.090  12.775  20.445  0.00  0.00    +0.000 C 
ATOM     15  C   UNL     1      -2.201  11.783  19.770  0.00  0.00    +0.000 C 
ATOM     16  O   UNL     1      -1.113  11.465  20.235  0.00  0.00    +0.000 OA
ATOM     17  C   UNL     1      -2.657  11.224  18.483  0.00  0.00    +0.000 A 
ATOM     18  C   UNL     1      -1.783  10.430  17.728  0.00  0.00    +0.000 A 
ATOM     19  C   UNL     1      -2.180   9.943  16.482  0.00  0.00    +0.000 A 
ATOM     20  C   UNL     1      -3.449  10.244  15.987  0.00  0.00    +0.000 A 
ATOM     21  C   UNL     1      -4.328  11.022  16.744  0.00  0.00    +0.000 A 
ATOM     22  C   UNL     1      -3.932  11.510  17.997  0.00  0.00    +0.000 A 
ENDBRANCH   1  14
BRANCH   9  23
ATOM     23  C   UNL     1      -0.688  14.892  20.746  0.00  0.00    +0.000 C 
ATOM     24  C   UNL     1      -1.058  15.765  19.799  0.00  0.00    +0.000 C 
ATOM     25  C   UNL     1      -0.121  16.285  18.789  0.00  0.00    +0.000 C 
ATOM     26  O   UNL     1      -0.521  17.008  17.883  0.00  0.00    +0.000 OA
ATOM     27  C   UNL     1       1.297  15.916  18.917  0.00  0.00    +0.000 A 
ATOM     28  C   UNL     1       2.246  16.511  18.076  0.00  0.00    +0.000 A 
ATOM     29  C   UNL     1       3.594  16.174  18.197  0.00  0.00    +0.000 A 
ATOM     30  C   UNL     1       3.995  15.230  19.143  0.00  0.00    +0.000 A 
ATOM     31  C   UNL     1       3.050  14.633  19.978  0.00  0.00    +0.000 A 
ATOM     32  C   UNL     1       1.699  14.987  19.873  0.00  0.00    +0.000 A 
ATOM     33  C   UNL     1       0.717  14.383  20.797  0.00  0.00    +0.000 C 
ATOM     34  O   UNL     1       1.068  13.505  21.576  0.00  0.00    +0.000 OA
ENDBRANCH   9  23
TORSDOF 2
ENDMDL
MODEL 9
REMARK VINA RESULT:      -8.1      1.190      6.082
REMARK  Name = 
REMARK  2 active torsions:
REMARK  status: ('A' for Active; 'I' for Inactive)
REMARK    1  A    between atoms: C_4  and  C_5
REMARK    2  A    between atoms: C_13  and  C_14
REMARK                            x       y       z     vdW  Elec       q    Type
REMARK                         _______ _______ _______ _____ _____    ______ ____
ROOT
ATOM      1  C   UNL     1       0.962  12.501  19.552  0.00  0.00    +0.000 A 
ATOM      2  N   UNL     1       1.990  13.405  19.722  0.00  0.00    +0.000 N 
ATOM      3  C   UNL     1       1.583  14.676  19.380  0.00  0.00    +0.000 A 
ATOM      4  C   UNL     1       2.283  15.889  19.399  0.00  0.00    +0.000 A 
ATOM      5  C   UNL     1       1.596  17.043  19.001  0.00  0.00    +0.000 A 
ATOM      6  C   UNL     1       0.266  16.984  18.595  0.00  0.00    +0.000 A 
ATOM      7  C   UNL     1      -0.417  15.763  18.575  0.00  0.00    +0.000 A 
ATOM      8  C   UNL     1       0.250  14.586  18.975  0.00  0.00    +0.000 A 
ATOM      9  C   UNL     1      -0.124  13.213  19.085  0.00  0.00    +0.000 A 
ATOM     10  H   UNL     1       2.918  13.177  20.050  0.00  0.00    +0.000 HD
ENDROOT
BRANCH   1  14
ATOM     11  O   UNL     1       0.653   8.881  22.573  0.00  0.00    +0.000 OA
ATOM     12  C   UNL     1       0.951   9.261  21.447  0.00  0.00    +0.000 C 
ATOM     13  C   UNL     1       0.829  10.685  21.079  0.00  0.00    +0.000 C 
ATOM     14  C   UNL     1       1.206  11.141  19.879  0.00  0.00    +0.000 C 
ATOM     15  C   UNL     1       1.839  10.233  18.877  0.00  0.00    +0.000 C 
ATOM     16  O   UNL     1       2.310  10.652  17.826  0.00  0.00    +0.000 OA
ATOM     17  C   UNL     1       1.838   8.787  19.173  0.00  0.00    +0.000 A 
ATOM     18  C   UNL     1       2.258   7.882  18.189  0.00  0.00    +0.000 A 
ATOM     19  C   UNL     1       2.208   6.509  18.434  0.00  0.00    +0.000 A 
ATOM     20  C   UNL     1       1.743   6.036  19.661  0.00  0.00    +0.000 A 
ATOM     21  C   UNL     1       1.339   6.936  20.649  0.00  0.00    +0.000 A 
ATOM     22  C   UNL     1       1.391   8.315  20.406  0.00  0.00    +0.000 A 
ENDBRANCH   1  14
BRANCH   9  23
ATOM     23  C   UNL     1      -1.404  12.661  18.775  0.00  0.00    +0.000 C 
ATOM     24  C   UNL     1      -1.587  11.865  17.713  0.00  0.00    +0.000 C 
ATOM     25  C   UNL     1      -2.883  11.240  17.403  0.00  0.00    +0.000 C 
ATOM     26  O   UNL     1      -3.033  10.596  16.371  0.00  0.00    +0.000 OA
ATOM     27  C   UNL     1      -3.975  11.410  18.374  0.00  0.00    +0.000 A 
ATOM     28  C   UNL     1      -5.173  10.707  18.200  0.00  0.00    +0.000 A 
ATOM     29  C   UNL     1      -6.209  10.854  19.122  0.00  0.00    +0.000 A 
ATOM     30  C   UNL     1      -6.059  11.717  20.209  0.00  0.00    +0.000 A 
ATOM     31  C   UNL     1      -4.867  12.421  20.381  0.00  0.00    +0.000 A 
ATOM     32  C   UNL     1      -3.817  12.258  19.468  0.00  0.00    +0.000 A 
ATOM     33  C   UNL     1      -2.544  12.972  19.691  0.00  0.00    +0.000 C 
ATOM     34  O   UNL     1      -2.446  13.780  20.607  0.00  0.00    +0.000 OA
ENDBRANCH   9  23
TORSDOF 2
ENDMDL
