MODEL 1
REMARK VINA RESULT:      -7.6      0.000      0.000
REMARK  Name = 
REMARK  4 active torsions:
REMARK  status: ('A' for Active; 'I' for Inactive)
REMARK    1  A    between atoms: C_1  and  C_2
REMARK    2  A    between atoms: C_4  and  C_5
REMARK    3  A    between atoms: N_15  and  C_16
REMARK    4  A    between atoms: C_16  and  C_17
REMARK                            x       y       z     vdW  Elec       q    Type
REMARK                         _______ _______ _______ _____ _____    ______ ____
ROOT
ATOM      1  C   UNL     1       6.392   4.964  14.683  0.00  0.00    +0.000 C 
ATOM      2  C   UNL     1       5.491   5.051  15.881  0.00  0.00    +0.000 A 
ATOM      3  C   UNL     1       5.283   3.943  16.695  0.00  0.00    +0.000 A 
ATOM      4  C   UNL     1       4.437   4.036  17.813  0.00  0.00    +0.000 A 
ATOM      5  C   UNL     1       4.246   2.841  18.705  0.00  0.00    +0.000 C 
ATOM      6  C   UNL     1       3.813   5.290  18.051  0.00  0.00    +0.000 A 
ATOM      7  C   UNL     1       4.121   6.318  17.171  0.00  0.00    +0.000 A 
ATOM      8  N   UNL     1       4.925   6.251  16.093  0.00  0.00    +0.000 NA
ATOM      9  S   UNL     1       3.393   7.789  17.577  0.00  0.00    +0.000 S 
ATOM     10  C   UNL     1       2.580   7.104  18.929  0.00  0.00    +0.000 A 
ATOM     11  C   UNL     1       1.735   7.727  19.866  0.00  0.00    +0.000 A 
ATOM     12  N   UNL     1       1.471   9.096  19.824  0.00  0.00    +0.000 N 
ATOM     13  C   UNL     1       1.124   9.716  21.113  0.00  0.00    +0.000 C 
ATOM     14  C   UNL     1       1.093  11.262  20.950  0.00  0.00    +0.000 C 
ATOM     15  N   UNL     1       0.235  11.778  19.844  0.00  0.00    +0.000 NA
ATOM     16  C   UNL     1       0.603  11.044  18.607  0.00  0.00    +0.000 C 
ATOM     17  C   UNL     1       0.568   9.503  18.732  0.00  0.00    +0.000 C 
ATOM     18  N   UNL     1       1.264   6.961  20.878  0.00  0.00    +0.000 NA
ATOM     19  C   UNL     1       1.591   5.662  20.913  0.00  0.00    +0.000 A 
ATOM     20  N   UNL     1       2.383   4.994  20.069  0.00  0.00    +0.000 NA
ATOM     21  C   UNL     1       2.894   5.755  19.064  0.00  0.00    +0.000 A 
ENDROOT
BRANCH  15  22
ATOM     22  C   UNL     1      -1.191  11.628  20.194  0.00  0.00    +0.000 C 
BRANCH  22  23
ATOM     23  C   UNL     1      -1.729  12.702  21.122  0.00  0.00    +0.000 A 
ATOM     24  C   UNL     1      -2.014  13.976  20.594  0.00  0.00    +0.000 A 
ATOM     25  C   UNL     1      -2.476  15.010  21.412  0.00  0.00    +0.000 A 
ATOM     26  C   UNL     1      -2.669  14.790  22.772  0.00  0.00    +0.000 A 
ATOM     27  C   UNL     1      -2.395  13.537  23.315  0.00  0.00    +0.000 A 
ATOM     28  C   UNL     1      -1.919  12.501  22.501  0.00  0.00    +0.000 A 
ATOM     29 CL   UNL     1      -1.577  10.996  23.280  0.00  0.00    +0.000 Cl
ENDBRANCH  22  23
ENDBRANCH  15  22
TORSDOF 2
ENDMDL
MODEL 2
REMARK VINA RESULT:      -7.6      1.179      1.395
REMARK  Name = 
REMARK  4 active torsions:
REMARK  status: ('A' for Active; 'I' for Inactive)
REMARK    1  A    between atoms: C_1  and  C_2
REMARK    2  A    between atoms: C_4  and  C_5
REMARK    3  A    between atoms: N_15  and  C_16
REMARK    4  A    between atoms: C_16  and  C_17
REMARK                            x       y       z     vdW  Elec       q    Type
REMARK                         _______ _______ _______ _____ _____    ______ ____
ROOT
ATOM      1  C   UNL     1       6.552   5.067  14.561  0.00  0.00    +0.000 C 
ATOM      2  C   UNL     1       5.580   4.953  15.700  0.00  0.00    +0.000 A 
ATOM      3  C   UNL     1       5.228   3.708  16.211  0.00  0.00    +0.000 A 
ATOM      4  C   UNL     1       4.316   3.613  17.275  0.00  0.00    +0.000 A 
ATOM      5  C   UNL     1       3.969   2.264  17.841  0.00  0.00    +0.000 C 
ATOM      6  C   UNL     1       3.780   4.828  17.779  0.00  0.00    +0.000 A 
ATOM      7  C   UNL     1       4.229   6.001  17.191  0.00  0.00    +0.000 A 
ATOM      8  N   UNL     1       5.098   6.116  16.169  0.00  0.00    +0.000 NA
ATOM      9  S   UNL     1       3.594   7.396  17.905  0.00  0.00    +0.000 S 
ATOM     10  C   UNL     1       2.637   6.491  19.009  0.00  0.00    +0.000 A 
ATOM     11  C   UNL     1       1.781   6.951  20.027  0.00  0.00    +0.000 A 
ATOM     12  N   UNL     1       1.631   8.309  20.305  0.00  0.00    +0.000 N 
ATOM     13  C   UNL     1       1.246   8.636  21.687  0.00  0.00    +0.000 C 
ATOM     14  C   UNL     1       1.350  10.173  21.902  0.00  0.00    +0.000 C 
ATOM     15  N   UNL     1       0.615  11.015  20.914  0.00  0.00    +0.000 NA
ATOM     16  C   UNL     1       1.008  10.563  19.555  0.00  0.00    +0.000 C 
ATOM     17  C   UNL     1       0.842   9.047  19.302  0.00  0.00    +0.000 C 
ATOM     18  N   UNL     1       1.182   6.015  20.800  0.00  0.00    +0.000 NA
ATOM     19  C   UNL     1       1.400   4.720  20.535  0.00  0.00    +0.000 A 
ATOM     20  N   UNL     1       2.193   4.199  19.594  0.00  0.00    +0.000 NA
ATOM     21  C   UNL     1       2.832   5.124  18.829  0.00  0.00    +0.000 A 
ENDROOT
BRANCH  15  22
ATOM     22  C   UNL     1      -0.840  10.921  21.147  0.00  0.00    +0.000 C 
BRANCH  22  23
ATOM     23  C   UNL     1      -1.479  12.199  21.660  0.00  0.00    +0.000 A 
ATOM     24  C   UNL     1      -1.026  12.744  22.876  0.00  0.00    +0.000 A 
ATOM     25  C   UNL     1      -1.605  13.899  23.410  0.00  0.00    +0.000 A 
ATOM     26  C   UNL     1      -2.642  14.534  22.736  0.00  0.00    +0.000 A 
ATOM     27  C   UNL     1      -3.104  14.013  21.530  0.00  0.00    +0.000 A 
ATOM     28  C   UNL     1      -2.536  12.850  20.998  0.00  0.00    +0.000 A 
ATOM     29 CL   UNL     1      -3.205  12.267  19.514  0.00  0.00    +0.000 Cl
ENDBRANCH  22  23
ENDBRANCH  15  22
TORSDOF 2
ENDMDL
MODEL 3
REMARK VINA RESULT:      -7.5      3.072      9.689
REMARK  Name = 
REMARK  4 active torsions:
REMARK  status: ('A' for Active; 'I' for Inactive)
REMARK    1  A    between atoms: C_1  and  C_2
REMARK    2  A    between atoms: C_4  and  C_5
REMARK    3  A    between atoms: N_15  and  C_16
REMARK    4  A    between atoms: C_16  and  C_17
REMARK                            x       y       z     vdW  Elec       q    Type
REMARK                         _______ _______ _______ _____ _____    ______ ____
ROOT
ATOM      1  C   UNL     1      -1.442  15.235  25.030  0.00  0.00    +0.000 C 
ATOM      2  C   UNL     1      -1.693  14.502  23.744  0.00  0.00    +0.000 A 
ATOM      3  C   UNL     1      -2.782  14.826  22.942  0.00  0.00    +0.000 A 
ATOM      4  C   UNL     1      -3.009  14.133  21.742  0.00  0.00    +0.000 A 
ATOM      5  C   UNL     1      -4.170  14.515  20.867  0.00  0.00    +0.000 C 
ATOM      6  C   UNL     1      -2.092  13.100  21.408  0.00  0.00    +0.000 A 
ATOM      7  C   UNL     1      -1.038  12.891  22.286  0.00  0.00    +0.000 A 
ATOM      8  N   UNL     1      -0.805  13.540  23.442  0.00  0.00    +0.000 NA
ATOM      9  S   UNL     1       0.040  11.697  21.768  0.00  0.00    +0.000 S 
ATOM     10  C   UNL     1      -0.886  11.359  20.360  0.00  0.00    +0.000 A 
ATOM     11  C   UNL     1      -0.627  10.442  19.324  0.00  0.00    +0.000 A 
ATOM     12  N   UNL     1       0.532   9.665  19.303  0.00  0.00    +0.000 N 
ATOM     13  C   UNL     1       0.988   9.242  17.969  0.00  0.00    +0.000 C 
ATOM     14  C   UNL     1       2.398   8.597  18.086  0.00  0.00    +0.000 C 
ATOM     15  N   UNL     1       2.523   7.495  19.084  0.00  0.00    +0.000 NA
ATOM     16  C   UNL     1       1.971   7.987  20.372  0.00  0.00    +0.000 C 
ATOM     17  C   UNL     1       0.540   8.566  20.285  0.00  0.00    +0.000 C 
ATOM     18  N   UNL     1      -1.499  10.414  18.291  0.00  0.00    +0.000 NA
ATOM     19  C   UNL     1      -2.569  11.220  18.324  0.00  0.00    +0.000 A 
ATOM     20  N   UNL     1      -2.889  12.116  19.262  0.00  0.00    +0.000 NA
ATOM     21  C   UNL     1      -2.005  12.184  20.294  0.00  0.00    +0.000 A 
ENDROOT
BRANCH  15  22
ATOM     22  C   UNL     1       1.836   6.283  18.594  0.00  0.00    +0.000 C 
BRANCH  22  23
ATOM     23  C   UNL     1       2.161   5.019  19.369  0.00  0.00    +0.000 A 
ATOM     24  C   UNL     1       1.211   4.518  20.280  0.00  0.00    +0.000 A 
ATOM     25  C   UNL     1       1.475   3.378  21.044  0.00  0.00    +0.000 A 
ATOM     26  C   UNL     1       2.688   2.713  20.907  0.00  0.00    +0.000 A 
ATOM     27  C   UNL     1       3.641   3.189  20.010  0.00  0.00    +0.000 A 
ATOM     28  C   UNL     1       3.386   4.338  19.251  0.00  0.00    +0.000 A 
ATOM     29 CL   UNL     1       4.647   4.866  18.193  0.00  0.00    +0.000 Cl
ENDBRANCH  22  23
ENDBRANCH  15  22
TORSDOF 2
ENDMDL
MODEL 4
REMARK VINA RESULT:      -7.4      1.022      1.334
REMARK  Name = 
REMARK  4 active torsions:
REMARK  status: ('A' for Active; 'I' for Inactive)
REMARK    1  A    between atoms: C_1  and  C_2
REMARK    2  A    between atoms: C_4  and  C_5
REMARK    3  A    between atoms: N_15  and  C_16
REMARK    4  A    between atoms: C_16  and  C_17
REMARK                            x       y       z     vdW  Elec       q    Type
REMARK                         _______ _______ _______ _____ _____    ______ ____
ROOT
ATOM      1  C   UNL     1       6.386   5.096  14.773  0.00  0.00    +0.000 C 
ATOM      2  C   UNL     1       5.475   5.181  15.964  0.00  0.00    +0.000 A 
ATOM      3  C   UNL     1       5.262   4.072  16.776  0.00  0.00    +0.000 A 
ATOM      4  C   UNL     1       4.406   4.163  17.886  0.00  0.00    +0.000 A 
ATOM      5  C   UNL     1       4.210   2.968  18.776  0.00  0.00    +0.000 C 
ATOM      6  C   UNL     1       3.778   5.415  18.118  0.00  0.00    +0.000 A 
ATOM      7  C   UNL     1       4.091   6.445  17.242  0.00  0.00    +0.000 A 
ATOM      8  N   UNL     1       4.904   6.380  16.171  0.00  0.00    +0.000 NA
ATOM      9  S   UNL     1       3.356   7.913  17.642  0.00  0.00    +0.000 S 
ATOM     10  C   UNL     1       2.533   7.227  18.986  0.00  0.00    +0.000 A 
ATOM     11  C   UNL     1       1.678   7.848  19.916  0.00  0.00    +0.000 A 
ATOM     12  N   UNL     1       1.411   9.216  19.872  0.00  0.00    +0.000 N 
ATOM     13  C   UNL     1       1.052   9.835  21.158  0.00  0.00    +0.000 C 
ATOM     14  C   UNL     1       1.019  11.381  20.996  0.00  0.00    +0.000 C 
ATOM     15  N   UNL     1       0.170  11.896  19.882  0.00  0.00    +0.000 NA
ATOM     16  C   UNL     1       0.550  11.163  18.648  0.00  0.00    +0.000 C 
ATOM     17  C   UNL     1       0.518   9.622  18.772  0.00  0.00    +0.000 C 
ATOM     18  N   UNL     1       1.200   7.081  20.923  0.00  0.00    +0.000 NA
ATOM     19  C   UNL     1       1.529   5.782  20.961  0.00  0.00    +0.000 A 
ATOM     20  N   UNL     1       2.330   5.116  20.124  0.00  0.00    +0.000 NA
ATOM     21  C   UNL     1       2.848   5.878  19.124  0.00  0.00    +0.000 A 
ENDROOT
BRANCH  15  22
ATOM     22  C   UNL     1      -1.259  11.743  20.219  0.00  0.00    +0.000 C 
BRANCH  22  23
ATOM     23  C   UNL     1      -1.742  12.644  21.341  0.00  0.00    +0.000 A 
ATOM     24  C   UNL     1      -2.292  12.055  22.496  0.00  0.00    +0.000 A 
ATOM     25  C   UNL     1      -2.784  12.841  23.541  0.00  0.00    +0.000 A 
ATOM     26  C   UNL     1      -2.730  14.228  23.457  0.00  0.00    +0.000 A 
ATOM     27  C   UNL     1      -2.189  14.831  22.324  0.00  0.00    +0.000 A 
ATOM     28  C   UNL     1      -1.706  14.048  21.268  0.00  0.00    +0.000 A 
ATOM     29 CL   UNL     1      -1.086  14.895  19.894  0.00  0.00    +0.000 Cl
ENDBRANCH  22  23
ENDBRANCH  15  22
TORSDOF 2
ENDMDL
MODEL 5
REMARK VINA RESULT:      -7.4      2.532      9.806
REMARK  Name = 
REMARK  4 active torsions:
REMARK  status: ('A' for Active; 'I' for Inactive)
REMARK    1  A    between atoms: C_1  and  C_2
REMARK    2  A    between atoms: C_4  and  C_5
REMARK    3  A    between atoms: N_15  and  C_16
REMARK    4  A    between atoms: C_16  and  C_17
REMARK                            x       y       z     vdW  Elec       q    Type
REMARK                         _______ _______ _______ _____ _____    ______ ____
ROOT
ATOM      1  C   UNL     1      -1.503  15.225  25.079  0.00  0.00    +0.000 C 
ATOM      2  C   UNL     1      -1.748  14.532  23.771  0.00  0.00    +0.000 A 
ATOM      3  C   UNL     1      -2.832  14.883  22.973  0.00  0.00    +0.000 A 
ATOM      4  C   UNL     1      -3.053  14.226  21.751  0.00  0.00    +0.000 A 
ATOM      5  C   UNL     1      -4.208  14.637  20.881  0.00  0.00    +0.000 C 
ATOM      6  C   UNL     1      -2.136  13.201  21.392  0.00  0.00    +0.000 A 
ATOM      7  C   UNL     1      -1.089  12.964  22.270  0.00  0.00    +0.000 A 
ATOM      8  N   UNL     1      -0.860  13.577  23.446  0.00  0.00    +0.000 NA
ATOM      9  S   UNL     1      -0.010  11.783  21.723  0.00  0.00    +0.000 S 
ATOM     10  C   UNL     1      -0.928  11.490  20.299  0.00  0.00    +0.000 A 
ATOM     11  C   UNL     1      -0.664  10.603  19.238  0.00  0.00    +0.000 A 
ATOM     12  N   UNL     1       0.493   9.824  19.200  0.00  0.00    +0.000 N 
ATOM     13  C   UNL     1       0.956   9.440  17.857  0.00  0.00    +0.000 C 
ATOM     14  C   UNL     1       2.364   8.789  17.964  0.00  0.00    +0.000 C 
ATOM     15  N   UNL     1       2.481   7.657  18.929  0.00  0.00    +0.000 NA
ATOM     16  C   UNL     1       1.922   8.112  20.228  0.00  0.00    +0.000 C 
ATOM     17  C   UNL     1       0.493   8.696  20.149  0.00  0.00    +0.000 C 
ATOM     18  N   UNL     1      -1.530  10.608  18.199  0.00  0.00    +0.000 NA
ATOM     19  C   UNL     1      -2.598  11.416  18.250  0.00  0.00    +0.000 A 
ATOM     20  N   UNL     1      -2.923  12.284  19.212  0.00  0.00    +0.000 NA
ATOM     21  C   UNL     1      -2.045  12.319  20.251  0.00  0.00    +0.000 A 
ENDROOT
BRANCH  15  22
ATOM     22  C   UNL     1       1.794   6.462  18.399  0.00  0.00    +0.000 C 
BRANCH  22  23
ATOM     23  C   UNL     1       2.594   5.177  18.505  0.00  0.00    +0.000 A 
ATOM     24  C   UNL     1       3.566   4.900  17.525  0.00  0.00    +0.000 A 
ATOM     25  C   UNL     1       4.305   3.714  17.556  0.00  0.00    +0.000 A 
ATOM     26  C   UNL     1       4.092   2.786  18.570  0.00  0.00    +0.000 A 
ATOM     27  C   UNL     1       3.137   3.041  19.551  0.00  0.00    +0.000 A 
ATOM     28  C   UNL     1       2.385   4.222  19.517  0.00  0.00    +0.000 A 
ATOM     29 CL   UNL     1       1.202   4.426  20.760  0.00  0.00    +0.000 Cl
ENDBRANCH  22  23
ENDBRANCH  15  22
TORSDOF 2
ENDMDL
MODEL 6
REMARK VINA RESULT:      -7.3      2.783      9.962
REMARK  Name = 
REMARK  4 active torsions:
REMARK  status: ('A' for Active; 'I' for Inactive)
REMARK    1  A    between atoms: C_1  and  C_2
REMARK    2  A    between atoms: C_4  and  C_5
REMARK    3  A    between atoms: N_15  and  C_16
REMARK    4  A    between atoms: C_16  and  C_17
REMARK                            x       y       z     vdW  Elec       q    Type
REMARK                         _______ _______ _______ _____ _____    ______ ____
ROOT
ATOM      1  C   UNL     1      -2.331  15.040  25.136  0.00  0.00    +0.000 C 
ATOM      2  C   UNL     1      -2.475  14.355  23.807  0.00  0.00    +0.000 A 
ATOM      3  C   UNL     1      -3.561  14.627  22.982  0.00  0.00    +0.000 A 
ATOM      4  C   UNL     1      -3.686  13.980  21.742  0.00  0.00    +0.000 A 
ATOM      5  C   UNL     1      -4.847  14.307  20.844  0.00  0.00    +0.000 C 
ATOM      6  C   UNL     1      -2.673  13.047  21.393  0.00  0.00    +0.000 A 
ATOM      7  C   UNL     1      -1.635  12.884  22.299  0.00  0.00    +0.000 A 
ATOM      8  N   UNL     1      -1.497  13.490  23.493  0.00  0.00    +0.000 NA
ATOM      9  S   UNL     1      -0.441  11.813  21.765  0.00  0.00    +0.000 S 
ATOM     10  C   UNL     1      -1.287  11.471  20.308  0.00  0.00    +0.000 A 
ATOM     11  C   UNL     1      -0.914  10.634  19.239  0.00  0.00    +0.000 A 
ATOM     12  N   UNL     1       0.307   9.960  19.223  0.00  0.00    +0.000 N 
ATOM     13  C   UNL     1       0.842   9.647  17.889  0.00  0.00    +0.000 C 
ATOM     14  C   UNL     1       2.298   9.119  18.027  0.00  0.00    +0.000 C 
ATOM     15  N   UNL     1       2.485   7.982  18.975  0.00  0.00    +0.000 NA
ATOM     16  C   UNL     1       1.850   8.358  20.263  0.00  0.00    +0.000 C 
ATOM     17  C   UNL     1       0.378   8.817  20.151  0.00  0.00    +0.000 C 
ATOM     18  N   UNL     1      -1.746  10.585  18.174  0.00  0.00    +0.000 NA
ATOM     19  C   UNL     1      -2.882  11.295  18.205  0.00  0.00    +0.000 A 
ATOM     20  N   UNL     1      -3.310  12.112  19.173  0.00  0.00    +0.000 NA
ATOM     21  C   UNL     1      -2.470  12.201  20.239  0.00  0.00    +0.000 A 
ENDROOT
BRANCH  15  22
ATOM     22  C   UNL     1       1.922   6.743  18.402  0.00  0.00    +0.000 C 
BRANCH  22  23
ATOM     23  C   UNL     1       2.955   5.782  17.841  0.00  0.00    +0.000 A 
ATOM     24  C   UNL     1       4.192   6.295  17.403  0.00  0.00    +0.000 A 
ATOM     25  C   UNL     1       5.163   5.459  16.845  0.00  0.00    +0.000 A 
ATOM     26  C   UNL     1       4.920   4.095  16.721  0.00  0.00    +0.000 A 
ATOM     27  C   UNL     1       3.705   3.567  17.149  0.00  0.00    +0.000 A 
ATOM     28  C   UNL     1       2.724   4.402  17.697  0.00  0.00    +0.000 A 
ATOM     29 CL   UNL     1       1.238   3.653  18.165  0.00  0.00    +0.000 Cl
ENDBRANCH  22  23
ENDBRANCH  15  22
TORSDOF 2
ENDMDL
MODEL 7
REMARK VINA RESULT:      -7.1      2.167      3.868
REMARK  Name = 
REMARK  4 active torsions:
REMARK  status: ('A' for Active; 'I' for Inactive)
REMARK    1  A    between atoms: C_1  and  C_2
REMARK    2  A    between atoms: C_4  and  C_5
REMARK    3  A    between atoms: N_15  and  C_16
REMARK    4  A    between atoms: C_16  and  C_17
REMARK                            x       y       z     vdW  Elec       q    Type
REMARK                         _______ _______ _______ _____ _____    ______ ____
ROOT
ATOM      1  C   UNL     1       2.759   2.628  21.166  0.00  0.00    +0.000 C 
ATOM      2  C   UNL     1       2.689   3.962  20.481  0.00  0.00    +0.000 A 
ATOM      3  C   UNL     1       3.377   4.188  19.293  0.00  0.00    +0.000 A 
ATOM      4  C   UNL     1       3.306   5.441  18.662  0.00  0.00    +0.000 A 
ATOM      5  C   UNL     1       4.027   5.663  17.362  0.00  0.00    +0.000 C 
ATOM      6  C   UNL     1       2.522   6.441  19.295  0.00  0.00    +0.000 A 
ATOM      7  C   UNL     1       1.872   6.079  20.467  0.00  0.00    +0.000 A 
ATOM      8  N   UNL     1       1.929   4.887  21.091  0.00  0.00    +0.000 NA
ATOM      9  S   UNL     1       0.904   7.308  21.106  0.00  0.00    +0.000 S 
ATOM     10  C   UNL     1       1.352   8.413  19.867  0.00  0.00    +0.000 A 
ATOM     11  C   UNL     1       0.923   9.738  19.661  0.00  0.00    +0.000 A 
ATOM     12  N   UNL     1      -0.025  10.342  20.486  0.00  0.00    +0.000 N 
ATOM     13  C   UNL     1      -0.820  11.412  19.863  0.00  0.00    +0.000 C 
ATOM     14  C   UNL     1      -1.978  11.818  20.817  0.00  0.00    +0.000 C 
ATOM     15  N   UNL     1      -1.574  12.173  22.209  0.00  0.00    +0.000 NA
ATOM     16  C   UNL     1      -0.717  11.075  22.725  0.00  0.00    +0.000 C 
ATOM     17  C   UNL     1       0.482  10.709  21.820  0.00  0.00    +0.000 C 
ATOM     18  N   UNL     1       1.393  10.375  18.564  0.00  0.00    +0.000 NA
ATOM     19  C   UNL     1       2.258   9.737  17.764  0.00  0.00    +0.000 A 
ATOM     20  N   UNL     1       2.715   8.486  17.885  0.00  0.00    +0.000 NA
ATOM     21  C   UNL     1       2.227   7.817  18.964  0.00  0.00    +0.000 A 
ENDROOT
BRANCH  15  22
ATOM     22  C   UNL     1      -0.893  13.483  22.223  0.00  0.00    +0.000 C 
BRANCH  22  23
ATOM     23  C   UNL     1      -1.310  14.398  23.361  0.00  0.00    +0.000 A 
ATOM     24  C   UNL     1      -2.453  14.068  24.113  0.00  0.00    +0.000 A 
ATOM     25  C   UNL     1      -2.901  14.895  25.147  0.00  0.00    +0.000 A 
ATOM     26  C   UNL     1      -2.211  16.063  25.453  0.00  0.00    +0.000 A 
ATOM     27  C   UNL     1      -1.076  16.407  24.723  0.00  0.00    +0.000 A 
ATOM     28  C   UNL     1      -0.631  15.588  23.678  0.00  0.00    +0.000 A 
ATOM     29 CL   UNL     1       0.766  16.123  22.812  0.00  0.00    +0.000 Cl
ENDBRANCH  22  23
ENDBRANCH  15  22
TORSDOF 2
ENDMDL
MODEL 8
REMARK VINA RESULT:      -7.0      2.088      3.911
REMARK  Name = 
REMARK  4 active torsions:
REMARK  status: ('A' for Active; 'I' for Inactive)
REMARK    1  A    between atoms: C_1  and  C_2
REMARK    2  A    between atoms: C_4  and  C_5
REMARK    3  A    between atoms: N_15  and  C_16
REMARK    4  A    between atoms: C_16  and  C_17
REMARK                            x       y       z     vdW  Elec       q    Type
REMARK                         _______ _______ _______ _____ _____    ______ ____
ROOT
ATOM      1  C   UNL     1       2.748   2.818  21.195  0.00  0.00    +0.000 C 
ATOM      2  C   UNL     1       2.658   4.154  20.516  0.00  0.00    +0.000 A 
ATOM      3  C   UNL     1       3.344   4.396  19.331  0.00  0.00    +0.000 A 
ATOM      4  C   UNL     1       3.254   5.650  18.705  0.00  0.00    +0.000 A 
ATOM      5  C   UNL     1       3.973   5.890  17.407  0.00  0.00    +0.000 C 
ATOM      6  C   UNL     1       2.453   6.635  19.341  0.00  0.00    +0.000 A 
ATOM      7  C   UNL     1       1.808   6.257  20.510  0.00  0.00    +0.000 A 
ATOM      8  N   UNL     1       1.882   5.064  21.129  0.00  0.00    +0.000 NA
ATOM      9  S   UNL     1       0.819   7.469  21.153  0.00  0.00    +0.000 S 
ATOM     10  C   UNL     1       1.251   8.586  19.920  0.00  0.00    +0.000 A 
ATOM     11  C   UNL     1       0.802   9.905  19.719  0.00  0.00    +0.000 A 
ATOM     12  N   UNL     1      -0.157  10.490  20.546  0.00  0.00    +0.000 N 
ATOM     13  C   UNL     1      -0.967  11.551  19.926  0.00  0.00    +0.000 C 
ATOM     14  C   UNL     1      -2.133  11.934  20.881  0.00  0.00    +0.000 C 
ATOM     15  N   UNL     1      -1.737  12.288  22.275  0.00  0.00    +0.000 NA
ATOM     16  C   UNL     1      -0.864  11.202  22.787  0.00  0.00    +0.000 C 
ATOM     17  C   UNL     1       0.342  10.859  21.882  0.00  0.00    +0.000 C 
ATOM     18  N   UNL     1       1.264  10.555  18.626  0.00  0.00    +0.000 NA
ATOM     19  C   UNL     1       2.140   9.933  17.825  0.00  0.00    +0.000 A 
ATOM     20  N   UNL     1       2.616   8.690  17.941  0.00  0.00    +0.000 NA
ATOM     21  C   UNL     1       2.137   8.008  19.016  0.00  0.00    +0.000 A 
ENDROOT
BRANCH  15  22
ATOM     22  C   UNL     1      -1.077  13.609  22.296  0.00  0.00    +0.000 C 
BRANCH  22  23
ATOM     23  C   UNL     1      -1.756  14.639  23.180  0.00  0.00    +0.000 A 
ATOM     24  C   UNL     1      -1.290  14.815  24.498  0.00  0.00    +0.000 A 
ATOM     25  C   UNL     1      -1.903  15.723  25.365  0.00  0.00    +0.000 A 
ATOM     26  C   UNL     1      -2.987  16.479  24.930  0.00  0.00    +0.000 A 
ATOM     27  C   UNL     1      -3.462  16.322  23.631  0.00  0.00    +0.000 A 
ATOM     28  C   UNL     1      -2.859  15.404  22.762  0.00  0.00    +0.000 A 
ATOM     29 CL   UNL     1      -3.547  15.261  21.183  0.00  0.00    +0.000 Cl
ENDBRANCH  22  23
ENDBRANCH  15  22
TORSDOF 2
ENDMDL
MODEL 9
REMARK VINA RESULT:      -6.7      2.097      3.833
REMARK  Name = 
REMARK  4 active torsions:
REMARK  status: ('A' for Active; 'I' for Inactive)
REMARK    1  A    between atoms: C_1  and  C_2
REMARK    2  A    between atoms: C_4  and  C_5
REMARK    3  A    between atoms: N_15  and  C_16
REMARK    4  A    between atoms: C_16  and  C_17
REMARK                            x       y       z     vdW  Elec       q    Type
REMARK                         _______ _______ _______ _____ _____    ______ ____
ROOT
ATOM      1  C   UNL     1       2.691   2.712  21.148  0.00  0.00    +0.000 C 
ATOM      2  C   UNL     1       2.630   4.046  20.462  0.00  0.00    +0.000 A 
ATOM      3  C   UNL     1       3.317   4.265  19.273  0.00  0.00    +0.000 A 
ATOM      4  C   UNL     1       3.255   5.518  18.640  0.00  0.00    +0.000 A 
ATOM      5  C   UNL     1       3.975   5.733  17.338  0.00  0.00    +0.000 C 
ATOM      6  C   UNL     1       2.480   6.525  19.274  0.00  0.00    +0.000 A 
ATOM      7  C   UNL     1       1.830   6.169  20.447  0.00  0.00    +0.000 A 
ATOM      8  N   UNL     1       1.879   4.977  21.072  0.00  0.00    +0.000 NA
ATOM      9  S   UNL     1       0.873   7.407  21.087  0.00  0.00    +0.000 S 
ATOM     10  C   UNL     1       1.326   8.507  19.847  0.00  0.00    +0.000 A 
ATOM     11  C   UNL     1       0.908   9.835  19.640  0.00  0.00    +0.000 A 
ATOM     12  N   UNL     1      -0.034  10.447  20.466  0.00  0.00    +0.000 N 
ATOM     13  C   UNL     1      -0.822  11.523  19.844  0.00  0.00    +0.000 C 
ATOM     14  C   UNL     1      -1.975  11.939  20.800  0.00  0.00    +0.000 C 
ATOM     15  N   UNL     1      -1.565  12.291  22.191  0.00  0.00    +0.000 NA
ATOM     16  C   UNL     1      -0.716  11.188  22.706  0.00  0.00    +0.000 C 
ATOM     17  C   UNL     1       0.478  10.811  21.799  0.00  0.00    +0.000 C 
ATOM     18  N   UNL     1       1.381  10.468  18.541  0.00  0.00    +0.000 NA
ATOM     19  C   UNL     1       2.239   9.821  17.741  0.00  0.00    +0.000 A 
ATOM     20  N   UNL     1       2.686   8.568  17.862  0.00  0.00    +0.000 NA
ATOM     21  C   UNL     1       2.195   7.903  18.942  0.00  0.00    +0.000 A 
ENDROOT
BRANCH  15  22
ATOM     22  C   UNL     1      -0.874  13.596  22.203  0.00  0.00    +0.000 C 
BRANCH  22  23
ATOM     23  C   UNL     1      -1.750  14.777  21.825  0.00  0.00    +0.000 A 
ATOM     24  C   UNL     1      -2.862  15.083  22.634  0.00  0.00    +0.000 A 
ATOM     25  C   UNL     1      -3.721  16.137  22.310  0.00  0.00    +0.000 A 
ATOM     26  C   UNL     1      -3.482  16.909  21.179  0.00  0.00    +0.000 A 
ATOM     27  C   UNL     1      -2.387  16.625  20.366  0.00  0.00    +0.000 A 
ATOM     28  C   UNL     1      -1.531  15.562  20.679  0.00  0.00    +0.000 A 
ATOM     29 CL   UNL     1      -0.222  15.271  19.587  0.00  0.00    +0.000 Cl
ENDBRANCH  22  23
ENDBRANCH  15  22
TORSDOF 2
ENDMDL
