MODEL 1
REMARK VINA RESULT:      -7.7      0.000      0.000
REMARK  Name = 
REMARK  7 active torsions:
REMARK  status: ('A' for Active; 'I' for Inactive)
REMARK    1  A    between atoms: C_1  and  O_2
REMARK    2  A    between atoms: O_2  and  C_3
REMARK    3  A    between atoms: C_8  and  C_9
REMARK    4  A    between atoms: C_9  and  C_11
REMARK    5  A    between atoms: C_11  and  C_13
REMARK    6  A    between atoms: N_15  and  C_16
REMARK    7  A    between atoms: C_16  and  C_17
REMARK                            x       y       z     vdW  Elec       q    Type
REMARK                         _______ _______ _______ _____ _____    ______ ____
ROOT
ATOM      1  C   UNL     1       6.655   4.672  17.865  0.00  0.00    +0.000 C 
ATOM      2  O   UNL     1       7.720   4.364  18.396  0.00  0.00    +0.000 OA
ENDROOT
BRANCH   1   3
ATOM      3  C   UNL     1       6.523   4.965  16.451  0.00  0.00    +0.000 A 
ATOM      4  C   UNL     1       7.138   4.321  15.395  0.00  0.00    +0.000 A 
ATOM      5  N   UNL     1       6.732   5.020  14.295  0.00  0.00    +0.000 N 
ATOM      6  N   UNL     1       5.899   6.023  14.639  0.00  0.00    +0.000 NA
ATOM      7  N   UNL     1       5.758   5.993  15.958  0.00  0.00    +0.000 NA
BRANCH   5   8
ATOM      8  C   UNL     1       7.222   4.909  12.930  0.00  0.00    +0.000 C 
BRANCH   8   9
ATOM      9  C   UNL     1       6.697   3.692  12.207  0.00  0.00    +0.000 A 
ATOM     10  C   UNL     1       7.574   2.725  11.691  0.00  0.00    +0.000 A 
ATOM     11  C   UNL     1       7.079   1.572  11.076  0.00  0.00    +0.000 A 
ATOM     12  C   UNL     1       5.705   1.367  10.977  0.00  0.00    +0.000 A 
ATOM     13  C   UNL     1       4.822   2.314  11.493  0.00  0.00    +0.000 A 
ATOM     14  C   UNL     1       5.315   3.469  12.105  0.00  0.00    +0.000 A 
ENDBRANCH   8   9
ENDBRANCH   5   8
ENDBRANCH   1   3
BRANCH   1  15
ATOM     15  C   UNL     1       5.454   4.853  18.766  0.00  0.00    +0.000 C 
ATOM     16  O   UNL     1       5.607   5.548  19.767  0.00  0.00    +0.000 OA
BRANCH  15  22
ATOM     17  C   UNL     1       2.978   4.911  18.077  0.00  0.00    +0.000 A 
ATOM     18  C   UNL     1       1.788   4.191  17.887  0.00  0.00    +0.000 A 
ATOM     19  C   UNL     1       1.756   2.801  18.015  0.00  0.00    +0.000 A 
ATOM     20  C   UNL     1       2.914   2.112  18.337  0.00  0.00    +0.000 A 
ATOM     21  C   UNL     1       4.096   2.816  18.563  0.00  0.00    +0.000 A 
ATOM     22  C   UNL     1       4.140   4.221  18.458  0.00  0.00    +0.000 A 
BRANCH  17  24
ATOM     23  C   UNL     1       2.473   7.049  18.979  0.00  0.00    +0.000 C 
ATOM     24  O   UNL     1       3.038   6.274  17.918  0.00  0.00    +0.000 OA
ENDBRANCH  17  24
ENDBRANCH  15  22
ENDBRANCH   1  15
TORSDOF 6
ENDMDL
MODEL 2
REMARK VINA RESULT:      -7.5      4.646      7.193
REMARK  Name = 
REMARK  7 active torsions:
REMARK  status: ('A' for Active; 'I' for Inactive)
REMARK    1  A    between atoms: C_1  and  O_2
REMARK    2  A    between atoms: O_2  and  C_3
REMARK    3  A    between atoms: C_8  and  C_9
REMARK    4  A    between atoms: C_9  and  C_11
REMARK    5  A    between atoms: C_11  and  C_13
REMARK    6  A    between atoms: N_15  and  C_16
REMARK    7  A    between atoms: C_16  and  C_17
REMARK                            x       y       z     vdW  Elec       q    Type
REMARK                         _______ _______ _______ _____ _____    ______ ____
ROOT
ATOM      1  C   UNL     1       7.074   5.497  17.245  0.00  0.00    +0.000 C 
ATOM      2  O   UNL     1       7.796   4.506  17.160  0.00  0.00    +0.000 OA
ENDROOT
BRANCH   1   3
ATOM      3  C   UNL     1       7.539   6.784  17.725  0.00  0.00    +0.000 A 
ATOM      4  C   UNL     1       7.258   8.032  17.202  0.00  0.00    +0.000 A 
ATOM      5  N   UNL     1       7.984   8.890  17.975  0.00  0.00    +0.000 N 
ATOM      6  N   UNL     1       8.659   8.224  18.934  0.00  0.00    +0.000 NA
ATOM      7  N   UNL     1       8.387   6.933  18.794  0.00  0.00    +0.000 NA
BRANCH   5   8
ATOM      8  C   UNL     1       8.224  10.308  17.759  0.00  0.00    +0.000 C 
BRANCH   8   9
ATOM      9  C   UNL     1       9.410  10.835  18.531  0.00  0.00    +0.000 A 
ATOM     10  C   UNL     1      10.610  11.158  17.879  0.00  0.00    +0.000 A 
ATOM     11  C   UNL     1      11.683  11.701  18.592  0.00  0.00    +0.000 A 
ATOM     12  C   UNL     1      11.566  11.936  19.959  0.00  0.00    +0.000 A 
ATOM     13  C   UNL     1      10.378  11.629  20.618  0.00  0.00    +0.000 A 
ATOM     14  C   UNL     1       9.305  11.082  19.909  0.00  0.00    +0.000 A 
ENDBRANCH   8   9
ENDBRANCH   5   8
ENDBRANCH   1   3
BRANCH   1  15
ATOM     15  C   UNL     1       5.606   5.320  16.931  0.00  0.00    +0.000 C 
ATOM     16  O   UNL     1       5.319   4.929  15.802  0.00  0.00    +0.000 OA
BRANCH  15  22
ATOM     17  C   UNL     1       4.288   4.823  19.083  0.00  0.00    +0.000 A 
ATOM     18  C   UNL     1       3.210   5.169  19.913  0.00  0.00    +0.000 A 
ATOM     19  C   UNL     1       2.433   6.300  19.656  0.00  0.00    +0.000 A 
ATOM     20  C   UNL     1       2.722   7.101  18.563  0.00  0.00    +0.000 A 
ATOM     21  C   UNL     1       3.767   6.752  17.709  0.00  0.00    +0.000 A 
ATOM     22  C   UNL     1       4.548   5.602  17.943  0.00  0.00    +0.000 A 
BRANCH  17  24
ATOM     23  C   UNL     1       4.411   2.563  19.800  0.00  0.00    +0.000 C 
ATOM     24  O   UNL     1       5.087   3.737  19.340  0.00  0.00    +0.000 OA
ENDBRANCH  17  24
ENDBRANCH  15  22
ENDBRANCH   1  15
TORSDOF 6
ENDMDL
MODEL 3
REMARK VINA RESULT:      -7.4      1.465      2.451
REMARK  Name = 
REMARK  7 active torsions:
REMARK  status: ('A' for Active; 'I' for Inactive)
REMARK    1  A    between atoms: C_1  and  O_2
REMARK    2  A    between atoms: O_2  and  C_3
REMARK    3  A    between atoms: C_8  and  C_9
REMARK    4  A    between atoms: C_9  and  C_11
REMARK    5  A    between atoms: C_11  and  C_13
REMARK    6  A    between atoms: N_15  and  C_16
REMARK    7  A    between atoms: C_16  and  C_17
REMARK                            x       y       z     vdW  Elec       q    Type
REMARK                         _______ _______ _______ _____ _____    ______ ____
ROOT
ATOM      1  C   UNL     1       5.428   4.722  17.549  0.00  0.00    +0.000 C 
ATOM      2  O   UNL     1       5.861   4.056  18.487  0.00  0.00    +0.000 OA
ENDROOT
BRANCH   1   3
ATOM      3  C   UNL     1       6.172   4.957  16.327  0.00  0.00    +0.000 A 
ATOM      4  C   UNL     1       5.947   4.401  15.082  0.00  0.00    +0.000 A 
ATOM      5  N   UNL     1       6.955   4.897  14.307  0.00  0.00    +0.000 N 
ATOM      6  N   UNL     1       7.747   5.727  15.016  0.00  0.00    +0.000 NA
ATOM      7  N   UNL     1       7.270   5.776  16.253  0.00  0.00    +0.000 NA
BRANCH   5   8
ATOM      8  C   UNL     1       7.329   4.499  12.959  0.00  0.00    +0.000 C 
BRANCH   8   9
ATOM      9  C   UNL     1       6.309   3.605  12.298  0.00  0.00    +0.000 A 
ATOM     10  C   UNL     1       5.006   4.060  12.042  0.00  0.00    +0.000 A 
ATOM     11  C   UNL     1       4.086   3.247  11.376  0.00  0.00    +0.000 A 
ATOM     12  C   UNL     1       4.458   1.974  10.950  0.00  0.00    +0.000 A 
ATOM     13  C   UNL     1       5.750   1.511  11.188  0.00  0.00    +0.000 A 
ATOM     14  C   UNL     1       6.671   2.321  11.858  0.00  0.00    +0.000 A 
ENDBRANCH   8   9
ENDBRANCH   5   8
ENDBRANCH   1   3
BRANCH   1  15
ATOM     15  C   UNL     1       4.096   5.412  17.740  0.00  0.00    +0.000 C 
ATOM     16  O   UNL     1       3.896   6.432  17.084  0.00  0.00    +0.000 OA
BRANCH  15  22
ATOM     17  C   UNL     1       2.450   3.626  18.582  0.00  0.00    +0.000 A 
ATOM     18  C   UNL     1       1.442   3.288  19.498  0.00  0.00    +0.000 A 
ATOM     19  C   UNL     1       1.084   4.155  20.533  0.00  0.00    +0.000 A 
ATOM     20  C   UNL     1       1.730   5.374  20.663  0.00  0.00    +0.000 A 
ATOM     21  C   UNL     1       2.709   5.739  19.741  0.00  0.00    +0.000 A 
ATOM     22  C   UNL     1       3.066   4.884  18.679  0.00  0.00    +0.000 A 
BRANCH  17  24
ATOM     23  C   UNL     1       3.499   1.574  18.009  0.00  0.00    +0.000 C 
ATOM     24  O   UNL     1       2.842   2.771  17.581  0.00  0.00    +0.000 OA
ENDBRANCH  17  24
ENDBRANCH  15  22
ENDBRANCH   1  15
TORSDOF 6
ENDMDL
MODEL 4
REMARK VINA RESULT:      -7.4      0.949      1.949
REMARK  Name = 
REMARK  7 active torsions:
REMARK  status: ('A' for Active; 'I' for Inactive)
REMARK    1  A    between atoms: C_1  and  O_2
REMARK    2  A    between atoms: O_2  and  C_3
REMARK    3  A    between atoms: C_8  and  C_9
REMARK    4  A    between atoms: C_9  and  C_11
REMARK    5  A    between atoms: C_11  and  C_13
REMARK    6  A    between atoms: N_15  and  C_16
REMARK    7  A    between atoms: C_16  and  C_17
REMARK                            x       y       z     vdW  Elec       q    Type
REMARK                         _______ _______ _______ _____ _____    ______ ____
ROOT
ATOM      1  C   UNL     1       6.657   4.705  17.865  0.00  0.00    +0.000 C 
ATOM      2  O   UNL     1       7.723   4.402  18.399  0.00  0.00    +0.000 OA
ENDROOT
BRANCH   1   3
ATOM      3  C   UNL     1       6.526   4.987  16.450  0.00  0.00    +0.000 A 
ATOM      4  C   UNL     1       7.156   4.347  15.399  0.00  0.00    +0.000 A 
ATOM      5  N   UNL     1       6.742   5.031  14.294  0.00  0.00    +0.000 N 
ATOM      6  N   UNL     1       5.890   6.021  14.628  0.00  0.00    +0.000 NA
ATOM      7  N   UNL     1       5.745   5.998  15.947  0.00  0.00    +0.000 NA
BRANCH   5   8
ATOM      8  C   UNL     1       7.239   4.920  12.931  0.00  0.00    +0.000 C 
BRANCH   8   9
ATOM      9  C   UNL     1       6.716   3.705  12.205  0.00  0.00    +0.000 A 
ATOM     10  C   UNL     1       7.593   2.740  11.684  0.00  0.00    +0.000 A 
ATOM     11  C   UNL     1       7.099   1.589  11.065  0.00  0.00    +0.000 A 
ATOM     12  C   UNL     1       5.725   1.383  10.968  0.00  0.00    +0.000 A 
ATOM     13  C   UNL     1       4.842   2.326  11.488  0.00  0.00    +0.000 A 
ATOM     14  C   UNL     1       5.333   3.480  12.104  0.00  0.00    +0.000 A 
ENDBRANCH   8   9
ENDBRANCH   5   8
ENDBRANCH   1   3
BRANCH   1  15
ATOM     15  C   UNL     1       5.456   4.894  18.764  0.00  0.00    +0.000 C 
ATOM     16  O   UNL     1       5.510   5.807  19.584  0.00  0.00    +0.000 OA
BRANCH  15  22
ATOM     17  C   UNL     1       4.114   2.764  19.288  0.00  0.00    +0.000 A 
ATOM     18  C   UNL     1       2.953   2.011  19.048  0.00  0.00    +0.000 A 
ATOM     19  C   UNL     1       1.921   2.508  18.250  0.00  0.00    +0.000 A 
ATOM     20  C   UNL     1       2.036   3.765  17.679  0.00  0.00    +0.000 A 
ATOM     21  C   UNL     1       3.197   4.511  17.879  0.00  0.00    +0.000 A 
ATOM     22  C   UNL     1       4.256   4.015  18.665  0.00  0.00    +0.000 A 
BRANCH  17  24
ATOM     23  C   UNL     1       4.772   1.247  20.991  0.00  0.00    +0.000 C 
ATOM     24  O   UNL     1       5.123   2.310  20.100  0.00  0.00    +0.000 OA
ENDBRANCH  17  24
ENDBRANCH  15  22
ENDBRANCH   1  15
TORSDOF 6
ENDMDL
MODEL 5
REMARK VINA RESULT:      -7.4      1.650      2.008
REMARK  Name = 
REMARK  7 active torsions:
REMARK  status: ('A' for Active; 'I' for Inactive)
REMARK    1  A    between atoms: C_1  and  O_2
REMARK    2  A    between atoms: O_2  and  C_3
REMARK    3  A    between atoms: C_8  and  C_9
REMARK    4  A    between atoms: C_9  and  C_11
REMARK    5  A    between atoms: C_11  and  C_13
REMARK    6  A    between atoms: N_15  and  C_16
REMARK    7  A    between atoms: C_16  and  C_17
REMARK                            x       y       z     vdW  Elec       q    Type
REMARK                         _______ _______ _______ _____ _____    ______ ____
ROOT
ATOM      1  C   UNL     1       5.395   4.144  18.024  0.00  0.00    +0.000 C 
ATOM      2  O   UNL     1       6.035   4.459  19.025  0.00  0.00    +0.000 OA
ENDROOT
BRANCH   1   3
ATOM      3  C   UNL     1       5.667   4.675  16.703  0.00  0.00    +0.000 A 
ATOM      4  C   UNL     1       6.218   4.012  15.623  0.00  0.00    +0.000 A 
ATOM      5  N   UNL     1       6.317   4.970  14.656  0.00  0.00    +0.000 N 
ATOM      6  N   UNL     1       5.838   6.152  15.095  0.00  0.00    +0.000 NA
ATOM      7  N   UNL     1       5.430   5.980  16.346  0.00  0.00    +0.000 NA
BRANCH   5   8
ATOM      8  C   UNL     1       7.005   4.886  13.377  0.00  0.00    +0.000 C 
BRANCH   8   9
ATOM      9  C   UNL     1       6.559   3.714  12.538  0.00  0.00    +0.000 A 
ATOM     10  C   UNL     1       5.199   3.494  12.267  0.00  0.00    +0.000 A 
ATOM     11  C   UNL     1       4.799   2.441  11.441  0.00  0.00    +0.000 A 
ATOM     12  C   UNL     1       5.752   1.602  10.868  0.00  0.00    +0.000 A 
ATOM     13  C   UNL     1       7.106   1.813  11.119  0.00  0.00    +0.000 A 
ATOM     14  C   UNL     1       7.508   2.862  11.949  0.00  0.00    +0.000 A 
ENDBRANCH   8   9
ENDBRANCH   5   8
ENDBRANCH   1   3
BRANCH   1  15
ATOM     15  C   UNL     1       4.200   3.239  18.218  0.00  0.00    +0.000 C 
ATOM     16  O   UNL     1       4.066   2.312  17.422  0.00  0.00    +0.000 OA
BRANCH  15  22
ATOM     17  C   UNL     1       2.245   4.461  19.356  0.00  0.00    +0.000 A 
ATOM     18  C   UNL     1       1.438   4.590  20.498  0.00  0.00    +0.000 A 
ATOM     19  C   UNL     1       1.555   3.704  21.570  0.00  0.00    +0.000 A 
ATOM     20  C   UNL     1       2.483   2.677  21.517  0.00  0.00    +0.000 A 
ATOM     21  C   UNL     1       3.315   2.555  20.406  0.00  0.00    +0.000 A 
ATOM     22  C   UNL     1       3.224   3.454  19.324  0.00  0.00    +0.000 A 
BRANCH  17  24
ATOM     23  C   UNL     1       2.568   6.641  18.474  0.00  0.00    +0.000 C 
ATOM     24  O   UNL     1       2.119   5.298  18.275  0.00  0.00    +0.000 OA
ENDBRANCH  17  24
ENDBRANCH  15  22
ENDBRANCH   1  15
TORSDOF 6
ENDMDL
MODEL 6
REMARK VINA RESULT:      -7.4      4.697      7.020
REMARK  Name = 
REMARK  7 active torsions:
REMARK  status: ('A' for Active; 'I' for Inactive)
REMARK    1  A    between atoms: C_1  and  O_2
REMARK    2  A    between atoms: O_2  and  C_3
REMARK    3  A    between atoms: C_8  and  C_9
REMARK    4  A    between atoms: C_9  and  C_11
REMARK    5  A    between atoms: C_11  and  C_13
REMARK    6  A    between atoms: N_15  and  C_16
REMARK    7  A    between atoms: C_16  and  C_17
REMARK                            x       y       z     vdW  Elec       q    Type
REMARK                         _______ _______ _______ _____ _____    ______ ____
ROOT
ATOM      1  C   UNL     1       7.098   5.625  17.286  0.00  0.00    +0.000 C 
ATOM      2  O   UNL     1       7.602   4.559  17.632  0.00  0.00    +0.000 OA
ENDROOT
BRANCH   1   3
ATOM      3  C   UNL     1       7.561   6.916  17.756  0.00  0.00    +0.000 A 
ATOM      4  C   UNL     1       7.244   8.162  17.250  0.00  0.00    +0.000 A 
ATOM      5  N   UNL     1       7.985   9.027  18.001  0.00  0.00    +0.000 N 
ATOM      6  N   UNL     1       8.703   8.367  18.933  0.00  0.00    +0.000 NA
ATOM      7  N   UNL     1       8.444   7.073  18.796  0.00  0.00    +0.000 NA
BRANCH   5   8
ATOM      8  C   UNL     1       8.197  10.450  17.784  0.00  0.00    +0.000 C 
BRANCH   8   9
ATOM      9  C   UNL     1       9.409  10.987  18.505  0.00  0.00    +0.000 A 
ATOM     10  C   UNL     1       9.393  11.190  19.894  0.00  0.00    +0.000 A 
ATOM     11  C   UNL     1      10.538  11.631  20.562  0.00  0.00    +0.000 A 
ATOM     12  C   UNL     1      11.714  11.866  19.853  0.00  0.00    +0.000 A 
ATOM     13  C   UNL     1      11.748  11.660  18.476  0.00  0.00    +0.000 A 
ATOM     14  C   UNL     1      10.603  11.223  17.805  0.00  0.00    +0.000 A 
ENDBRANCH   8   9
ENDBRANCH   5   8
ENDBRANCH   1   3
BRANCH   1  15
ATOM     15  C   UNL     1       5.867   5.563  16.412  0.00  0.00    +0.000 C 
ATOM     16  O   UNL     1       6.000   5.891  15.235  0.00  0.00    +0.000 OA
BRANCH  15  22
ATOM     17  C   UNL     1       3.574   5.969  17.502  0.00  0.00    +0.000 A 
ATOM     18  C   UNL     1       2.403   5.405  18.033  0.00  0.00    +0.000 A 
ATOM     19  C   UNL     1       2.166   4.031  17.965  0.00  0.00    +0.000 A 
ATOM     20  C   UNL     1       3.100   3.200  17.367  0.00  0.00    +0.000 A 
ATOM     21  C   UNL     1       4.284   3.740  16.866  0.00  0.00    +0.000 A 
ATOM     22  C   UNL     1       4.546   5.122  16.946  0.00  0.00    +0.000 A 
BRANCH  17  24
ATOM     23  C   UNL     1       2.762   8.123  18.085  0.00  0.00    +0.000 C 
ATOM     24  O   UNL     1       3.807   7.321  17.525  0.00  0.00    +0.000 OA
ENDBRANCH  17  24
ENDBRANCH  15  22
ENDBRANCH   1  15
TORSDOF 6
ENDMDL
MODEL 7
REMARK VINA RESULT:      -7.3      1.543      2.313
REMARK  Name = 
REMARK  7 active torsions:
REMARK  status: ('A' for Active; 'I' for Inactive)
REMARK    1  A    between atoms: C_1  and  O_2
REMARK    2  A    between atoms: O_2  and  C_3
REMARK    3  A    between atoms: C_8  and  C_9
REMARK    4  A    between atoms: C_9  and  C_11
REMARK    5  A    between atoms: C_11  and  C_13
REMARK    6  A    between atoms: N_15  and  C_16
REMARK    7  A    between atoms: C_16  and  C_17
REMARK                            x       y       z     vdW  Elec       q    Type
REMARK                         _______ _______ _______ _____ _____    ______ ____
ROOT
ATOM      1  C   UNL     1       5.404   4.630  17.826  0.00  0.00    +0.000 C 
ATOM      2  O   UNL     1       5.884   4.064  18.806  0.00  0.00    +0.000 OA
ENDROOT
BRANCH   1   3
ATOM      3  C   UNL     1       6.135   4.848  16.593  0.00  0.00    +0.000 A 
ATOM      4  C   UNL     1       6.045   4.125  15.419  0.00  0.00    +0.000 A 
ATOM      5  N   UNL     1       6.978   4.695  14.603  0.00  0.00    +0.000 N 
ATOM      6  N   UNL     1       7.597   5.723  15.219  0.00  0.00    +0.000 NA
ATOM      7  N   UNL     1       7.081   5.830  16.436  0.00  0.00    +0.000 NA
BRANCH   5   8
ATOM      8  C   UNL     1       7.456   4.217  13.314  0.00  0.00    +0.000 C 
BRANCH   8   9
ATOM      9  C   UNL     1       6.377   3.564  12.486  0.00  0.00    +0.000 A 
ATOM     10  C   UNL     1       6.571   2.296  11.915  0.00  0.00    +0.000 A 
ATOM     11  C   UNL     1       5.547   1.673  11.199  0.00  0.00    +0.000 A 
ATOM     12  C   UNL     1       4.313   2.304  11.052  0.00  0.00    +0.000 A 
ATOM     13  C   UNL     1       4.101   3.558  11.621  0.00  0.00    +0.000 A 
ATOM     14  C   UNL     1       5.126   4.185  12.333  0.00  0.00    +0.000 A 
ENDBRANCH   8   9
ENDBRANCH   5   8
ENDBRANCH   1   3
BRANCH   1  15
ATOM     15  C   UNL     1       4.018   5.216  17.969  0.00  0.00    +0.000 C 
ATOM     16  O   UNL     1       3.775   6.238  17.333  0.00  0.00    +0.000 OA
BRANCH  15  22
ATOM     17  C   UNL     1       2.481   3.284  18.689  0.00  0.00    +0.000 A 
ATOM     18  C   UNL     1       1.457   2.846  19.543  0.00  0.00    +0.000 A 
ATOM     19  C   UNL     1       0.974   3.659  20.570  0.00  0.00    +0.000 A 
ATOM     20  C   UNL     1       1.508   4.924  20.756  0.00  0.00    +0.000 A 
ATOM     21  C   UNL     1       2.502   5.387  19.895  0.00  0.00    +0.000 A 
ATOM     22  C   UNL     1       2.985   4.586  18.841  0.00  0.00    +0.000 A 
BRANCH  17  24
ATOM     23  C   UNL     1       3.685   1.311  18.142  0.00  0.00    +0.000 C 
ATOM     24  O   UNL     1       2.997   2.485  17.699  0.00  0.00    +0.000 OA
ENDBRANCH  17  24
ENDBRANCH  15  22
ENDBRANCH   1  15
TORSDOF 6
ENDMDL
MODEL 8
REMARK VINA RESULT:      -7.3      4.694      7.037
REMARK  Name = 
REMARK  7 active torsions:
REMARK  status: ('A' for Active; 'I' for Inactive)
REMARK    1  A    between atoms: C_1  and  O_2
REMARK    2  A    between atoms: O_2  and  C_3
REMARK    3  A    between atoms: C_8  and  C_9
REMARK    4  A    between atoms: C_9  and  C_11
REMARK    5  A    between atoms: C_11  and  C_13
REMARK    6  A    between atoms: N_15  and  C_16
REMARK    7  A    between atoms: C_16  and  C_17
REMARK                            x       y       z     vdW  Elec       q    Type
REMARK                         _______ _______ _______ _____ _____    ______ ____
ROOT
ATOM      1  C   UNL     1       7.152   5.475  17.661  0.00  0.00    +0.000 C 
ATOM      2  O   UNL     1       7.618   4.521  18.281  0.00  0.00    +0.000 OA
ENDROOT
BRANCH   1   3
ATOM      3  C   UNL     1       7.630   6.835  17.813  0.00  0.00    +0.000 A 
ATOM      4  C   UNL     1       8.377   7.357  18.853  0.00  0.00    +0.000 A 
ATOM      5  N   UNL     1       8.501   8.680  18.544  0.00  0.00    +0.000 N 
ATOM      6  N   UNL     1       7.891   8.964  17.376  0.00  0.00    +0.000 NA
ATOM      7  N   UNL     1       7.360   7.839  16.916  0.00  0.00    +0.000 NA
BRANCH   5   8
ATOM      8  C   UNL     1       9.022   9.751  19.379  0.00  0.00    +0.000 C 
BRANCH   8   9
ATOM      9  C   UNL     1       9.550  10.921  18.586  0.00  0.00    +0.000 A 
ATOM     10  C   UNL     1       8.692  11.940  18.143  0.00  0.00    +0.000 A 
ATOM     11  C   UNL     1       9.197  13.049  17.460  0.00  0.00    +0.000 A 
ATOM     12  C   UNL     1      10.565  13.158  17.220  0.00  0.00    +0.000 A 
ATOM     13  C   UNL     1      11.430  12.159  17.661  0.00  0.00    +0.000 A 
ATOM     14  C   UNL     1      10.927  11.047  18.340  0.00  0.00    +0.000 A 
ENDBRANCH   8   9
ENDBRANCH   5   8
ENDBRANCH   1   3
BRANCH   1  15
ATOM     15  C   UNL     1       5.950   5.215  16.782  0.00  0.00    +0.000 C 
ATOM     16  O   UNL     1       6.168   4.921  15.610  0.00  0.00    +0.000 OA
BRANCH  15  22
ATOM     17  C   UNL     1       3.707   4.214  17.545  0.00  0.00    +0.000 A 
ATOM     18  C   UNL     1       2.393   4.454  17.976  0.00  0.00    +0.000 A 
ATOM     19  C   UNL     1       1.940   5.750  18.228  0.00  0.00    +0.000 A 
ATOM     20  C   UNL     1       2.795   6.825  18.048  0.00  0.00    +0.000 A 
ATOM     21  C   UNL     1       4.092   6.607  17.587  0.00  0.00    +0.000 A 
ATOM     22  C   UNL     1       4.558   5.306  17.309  0.00  0.00    +0.000 A 
BRANCH  17  24
ATOM     23  C   UNL     1       3.486   1.895  18.009  0.00  0.00    +0.000 C 
ATOM     24  O   UNL     1       4.184   2.944  17.330  0.00  0.00    +0.000 OA
ENDBRANCH  17  24
ENDBRANCH  15  22
ENDBRANCH   1  15
TORSDOF 6
ENDMDL
MODEL 9
REMARK VINA RESULT:      -7.3      5.655      8.495
REMARK  Name = 
REMARK  7 active torsions:
REMARK  status: ('A' for Active; 'I' for Inactive)
REMARK    1  A    between atoms: C_1  and  O_2
REMARK    2  A    between atoms: O_2  and  C_3
REMARK    3  A    between atoms: C_8  and  C_9
REMARK    4  A    between atoms: C_9  and  C_11
REMARK    5  A    between atoms: C_11  and  C_13
REMARK    6  A    between atoms: N_15  and  C_16
REMARK    7  A    between atoms: C_16  and  C_17
REMARK                            x       y       z     vdW  Elec       q    Type
REMARK                         _______ _______ _______ _____ _____    ______ ____
ROOT
ATOM      1  C   UNL     1       0.826  10.637  19.031  0.00  0.00    +0.000 C 
ATOM      2  O   UNL     1       1.331  11.736  18.809  0.00  0.00    +0.000 OA
ENDROOT
BRANCH   1   3
ATOM      3  C   UNL     1       1.506   9.381  18.781  0.00  0.00    +0.000 A 
ATOM      4  C   UNL     1       1.723   8.347  19.672  0.00  0.00    +0.000 A 
ATOM      5  N   UNL     1       2.455   7.441  18.961  0.00  0.00    +0.000 N 
ATOM      6  N   UNL     1       2.664   7.870  17.700  0.00  0.00    +0.000 NA
ATOM      7  N   UNL     1       2.079   9.055  17.577  0.00  0.00    +0.000 NA
BRANCH   5   8
ATOM      8  C   UNL     1       3.130   6.250  19.452  0.00  0.00    +0.000 C 
BRANCH   8   9
ATOM      9  C   UNL     1       2.316   4.991  19.279  0.00  0.00    +0.000 A 
ATOM     10  C   UNL     1       2.421   4.217  18.113  0.00  0.00    +0.000 A 
ATOM     11  C   UNL     1       1.708   3.022  17.986  0.00  0.00    +0.000 A 
ATOM     12  C   UNL     1       0.891   2.582  19.025  0.00  0.00    +0.000 A 
ATOM     13  C   UNL     1       0.784   3.334  20.192  0.00  0.00    +0.000 A 
ATOM     14  C   UNL     1       1.492   4.531  20.320  0.00  0.00    +0.000 A 
ENDBRANCH   8   9
ENDBRANCH   5   8
ENDBRANCH   1   3
BRANCH   1  15
ATOM     15  C   UNL     1      -0.615  10.611  19.486  0.00  0.00    +0.000 C 
ATOM     16  O   UNL     1      -0.820  10.476  20.689  0.00  0.00    +0.000 OA
BRANCH  15  22
ATOM     17  C   UNL     1      -2.813  11.649  18.646  0.00  0.00    +0.000 A 
ATOM     18  C   UNL     1      -3.847  11.617  17.697  0.00  0.00    +0.000 A 
ATOM     19  C   UNL     1      -3.801  10.747  16.606  0.00  0.00    +0.000 A 
ATOM     20  C   UNL     1      -2.720   9.894  16.452  0.00  0.00    +0.000 A 
ATOM     21  C   UNL     1      -1.702   9.888  17.404  0.00  0.00    +0.000 A 
ATOM     22  C   UNL     1      -1.744  10.747  18.521  0.00  0.00    +0.000 A 
BRANCH  17  24
ATOM     23  C   UNL     1      -4.084  12.703  20.353  0.00  0.00    +0.000 C 
ATOM     24  O   UNL     1      -2.821  12.525  19.704  0.00  0.00    +0.000 OA
ENDBRANCH  17  24
ENDBRANCH  15  22
ENDBRANCH   1  15
TORSDOF 6
ENDMDL
