MODEL 1
REMARK VINA RESULT:      -7.6      0.000      0.000
REMARK  Name = 
REMARK  6 active torsions:
REMARK  status: ('A' for Active; 'I' for Inactive)
REMARK    1  A    between atoms: C_1  and  O_2
REMARK    2  A    between atoms: O_2  and  C_3
REMARK    3  A    between atoms: C_4  and  O_5
REMARK    4  A    between atoms: C_9  and  O_10
REMARK    5  A    between atoms: C_14  and  C_15
REMARK    6  A    between atoms: C_18  and  O_19
REMARK                            x       y       z     vdW  Elec       q    Type
REMARK                         _______ _______ _______ _____ _____    ______ ____
ROOT
ATOM      1  C   UNL     1       3.477   3.473  19.635  0.00  0.00    +0.000 A 
ATOM      2  C   UNL     1       2.556   3.475  20.696  0.00  0.00    +0.000 A 
ATOM      3  C   UNL     1       1.834   4.609  21.044  0.00  0.00    +0.000 A 
ATOM      4  C   UNL     1       2.037   5.784  20.330  0.00  0.00    +0.000 A 
ATOM      5  C   UNL     1       2.911   5.795  19.235  0.00  0.00    +0.000 A 
ATOM      6  C   UNL     1       3.630   4.641  18.878  0.00  0.00    +0.000 A 
ATOM      7  C   UNL     1       3.004   7.021  18.419  0.00  0.00    +0.000 C 
ATOM      8  O   UNL     1       3.757   7.092  17.456  0.00  0.00    +0.000 OA
ATOM      9  C   UNL     1       2.111   8.119  18.841  0.00  0.00    +0.000 C 
ATOM     10  C   UNL     1       1.601   8.907  17.882  0.00  0.00    +0.000 C 
ATOM     11  C   UNL     1       1.865   8.126  20.311  0.00  0.00    +0.000 C 
ATOM     12  O   UNL     1       1.315   6.875  20.741  0.00  0.00    +0.000 OA
ENDROOT
BRANCH  10  13
ATOM     13  C   UNL     1       0.599   9.934  18.144  0.00  0.00    +0.000 A 
ATOM     14  C   UNL     1      -0.740   9.721  17.803  0.00  0.00    +0.000 A 
ATOM     15  C   UNL     1      -1.688  10.714  18.056  0.00  0.00    +0.000 A 
ATOM     16  C   UNL     1      -1.291  11.910  18.643  0.00  0.00    +0.000 A 
ATOM     17  C   UNL     1       0.040  12.137  18.974  0.00  0.00    +0.000 A 
ATOM     18  C   UNL     1       0.988  11.146  18.724  0.00  0.00    +0.000 A 
BRANCH  16  19
ATOM     19  O   UNL     1      -2.186  12.902  18.916  0.00  0.00    +0.000 OA
ATOM     20  H   UNL     1      -1.696  13.715  19.118  0.00  0.00    +0.000 HD
ENDBRANCH  16  19
ENDBRANCH  10  13
BRANCH   1  22
ATOM     21  C   UNL     1       3.607   1.446  18.410  0.00  0.00    +0.000 C 
ATOM     22  O   UNL     1       4.119   2.273  19.452  0.00  0.00    +0.000 OA
ENDBRANCH   1  22
BRANCH   2  23
ATOM     23  O   UNL     1       2.363   2.344  21.444  0.00  0.00    +0.000 OA
ATOM     24  H   UNL     1       1.786   2.620  22.183  0.00  0.00    +0.000 HD
ENDBRANCH   2  23
BRANCH   6  25
ATOM     25  O   UNL     1       4.456   4.642  17.782  0.00  0.00    +0.000 OA
ATOM     26  H   UNL     1       3.987   5.059  17.023  0.00  0.00    +0.000 HD
ENDBRANCH   6  25
TORSDOF 5
ENDMDL
MODEL 2
REMARK VINA RESULT:      -7.6      0.045      1.010
REMARK  Name = 
REMARK  6 active torsions:
REMARK  status: ('A' for Active; 'I' for Inactive)
REMARK    1  A    between atoms: C_1  and  O_2
REMARK    2  A    between atoms: O_2  and  C_3
REMARK    3  A    between atoms: C_4  and  O_5
REMARK    4  A    between atoms: C_9  and  O_10
REMARK    5  A    between atoms: C_14  and  C_15
REMARK    6  A    between atoms: C_18  and  O_19
REMARK                            x       y       z     vdW  Elec       q    Type
REMARK                         _______ _______ _______ _____ _____    ______ ____
ROOT
ATOM      1  C   UNL     1       3.481   3.489  19.634  0.00  0.00    +0.000 A 
ATOM      2  C   UNL     1       2.555   3.487  20.689  0.00  0.00    +0.000 A 
ATOM      3  C   UNL     1       1.829   4.619  21.036  0.00  0.00    +0.000 A 
ATOM      4  C   UNL     1       2.035   5.796  20.326  0.00  0.00    +0.000 A 
ATOM      5  C   UNL     1       2.915   5.810  19.236  0.00  0.00    +0.000 A 
ATOM      6  C   UNL     1       3.637   4.658  18.879  0.00  0.00    +0.000 A 
ATOM      7  C   UNL     1       3.010   7.038  18.423  0.00  0.00    +0.000 C 
ATOM      8  O   UNL     1       3.768   7.113  17.464  0.00  0.00    +0.000 OA
ATOM      9  C   UNL     1       2.114   8.134  18.844  0.00  0.00    +0.000 C 
ATOM     10  C   UNL     1       1.608   8.924  17.884  0.00  0.00    +0.000 C 
ATOM     11  C   UNL     1       1.860   8.138  20.312  0.00  0.00    +0.000 C 
ATOM     12  O   UNL     1       1.309   6.885  20.736  0.00  0.00    +0.000 OA
ENDROOT
BRANCH  10  13
ATOM     13  C   UNL     1       0.602   9.949  18.142  0.00  0.00    +0.000 A 
ATOM     14  C   UNL     1       0.960  11.158  18.745  0.00  0.00    +0.000 A 
ATOM     15  C   UNL     1      -0.014  12.128  18.989  0.00  0.00    +0.000 A 
ATOM     16  C   UNL     1      -1.335  11.881  18.633  0.00  0.00    +0.000 A 
ATOM     17  C   UNL     1      -1.704  10.677  18.044  0.00  0.00    +0.000 A 
ATOM     18  C   UNL     1      -0.732   9.707  17.798  0.00  0.00    +0.000 A 
BRANCH  16  19
ATOM     19  O   UNL     1      -2.315  12.805  18.844  0.00  0.00    +0.000 OA
ATOM     20  H   UNL     1      -2.979  12.719  18.141  0.00  0.00    +0.000 HD
ENDBRANCH  16  19
ENDBRANCH  10  13
BRANCH   1  22
ATOM     21  C   UNL     1       3.616   1.462  18.409  0.00  0.00    +0.000 C 
ATOM     22  O   UNL     1       4.126   2.290  19.451  0.00  0.00    +0.000 OA
ENDBRANCH   1  22
BRANCH   2  23
ATOM     23  O   UNL     1       2.360   2.354  21.434  0.00  0.00    +0.000 OA
ATOM     24  H   UNL     1       2.093   2.670  22.319  0.00  0.00    +0.000 HD
ENDBRANCH   2  23
BRANCH   6  25
ATOM     25  O   UNL     1       4.469   4.663  17.788  0.00  0.00    +0.000 OA
ATOM     26  H   UNL     1       4.252   3.894  17.212  0.00  0.00    +0.000 HD
ENDBRANCH   6  25
TORSDOF 5
ENDMDL
MODEL 3
REMARK VINA RESULT:      -7.3      2.696      7.296
REMARK  Name = 
REMARK  6 active torsions:
REMARK  status: ('A' for Active; 'I' for Inactive)
REMARK    1  A    between atoms: C_1  and  O_2
REMARK    2  A    between atoms: O_2  and  C_3
REMARK    3  A    between atoms: C_4  and  O_5
REMARK    4  A    between atoms: C_9  and  O_10
REMARK    5  A    between atoms: C_14  and  C_15
REMARK    6  A    between atoms: C_18  and  O_19
REMARK                            x       y       z     vdW  Elec       q    Type
REMARK                         _______ _______ _______ _____ _____    ______ ____
ROOT
ATOM      1  C   UNL     1      -0.017  10.478  20.898  0.00  0.00    +0.000 A 
ATOM      2  C   UNL     1       0.441   9.726  21.992  0.00  0.00    +0.000 A 
ATOM      3  C   UNL     1       1.290   8.637  21.835  0.00  0.00    +0.000 A 
ATOM      4  C   UNL     1       1.687   8.270  20.555  0.00  0.00    +0.000 A 
ATOM      5  C   UNL     1       1.285   9.035  19.452  0.00  0.00    +0.000 A 
ATOM      6  C   UNL     1       0.439  10.145  19.617  0.00  0.00    +0.000 A 
ATOM      7  C   UNL     1       1.832   8.698  18.123  0.00  0.00    +0.000 C 
ATOM      8  O   UNL     1       1.511   9.325  17.122  0.00  0.00    +0.000 OA
ATOM      9  C   UNL     1       2.796   7.579  18.113  0.00  0.00    +0.000 C 
ATOM     10  C   UNL     1       3.807   7.639  17.232  0.00  0.00    +0.000 C 
ATOM     11  C   UNL     1       2.511   6.565  19.167  0.00  0.00    +0.000 C 
ATOM     12  O   UNL     1       2.500   7.170  20.465  0.00  0.00    +0.000 OA
ENDROOT
BRANCH  10  13
ATOM     13  C   UNL     1       4.904   6.680  17.211  0.00  0.00    +0.000 A 
ATOM     14  C   UNL     1       4.692   5.368  16.780  0.00  0.00    +0.000 A 
ATOM     15  C   UNL     1       5.752   4.459  16.768  0.00  0.00    +0.000 A 
ATOM     16  C   UNL     1       7.012   4.867  17.189  0.00  0.00    +0.000 A 
ATOM     17  C   UNL     1       7.232   6.167  17.632  0.00  0.00    +0.000 A 
ATOM     18  C   UNL     1       6.175   7.076  17.642  0.00  0.00    +0.000 A 
BRANCH  16  19
ATOM     19  O   UNL     1       8.076   4.015  17.184  0.00  0.00    +0.000 OA
ATOM     20  H   UNL     1       8.416   3.949  16.277  0.00  0.00    +0.000 HD
ENDBRANCH  16  19
ENDBRANCH  10  13
BRANCH   1  22
ATOM     21  C   UNL     1      -0.275  12.791  21.358  0.00  0.00    +0.000 C 
ATOM     22  O   UNL     1      -0.868  11.501  21.238  0.00  0.00    +0.000 OA
ENDBRANCH   1  22
BRANCH   2  23
ATOM     23  O   UNL     1       0.036  10.038  23.262  0.00  0.00    +0.000 OA
ATOM     24  H   UNL     1       0.711   9.648  23.851  0.00  0.00    +0.000 HD
ENDBRANCH   2  23
BRANCH   6  25
ATOM     25  O   UNL     1       0.078  10.916  18.540  0.00  0.00    +0.000 OA
ATOM     26  H   UNL     1       0.614  10.651  17.758  0.00  0.00    +0.000 HD
ENDBRANCH   6  25
TORSDOF 5
ENDMDL
MODEL 4
REMARK VINA RESULT:      -7.2      2.700      7.326
REMARK  Name = 
REMARK  6 active torsions:
REMARK  status: ('A' for Active; 'I' for Inactive)
REMARK    1  A    between atoms: C_1  and  O_2
REMARK    2  A    between atoms: O_2  and  C_3
REMARK    3  A    between atoms: C_4  and  O_5
REMARK    4  A    between atoms: C_9  and  O_10
REMARK    5  A    between atoms: C_14  and  C_15
REMARK    6  A    between atoms: C_18  and  O_19
REMARK                            x       y       z     vdW  Elec       q    Type
REMARK                         _______ _______ _______ _____ _____    ______ ____
ROOT
ATOM      1  C   UNL     1      -0.060  10.400  21.066  0.00  0.00    +0.000 A 
ATOM      2  C   UNL     1       0.434   9.637  22.136  0.00  0.00    +0.000 A 
ATOM      3  C   UNL     1       1.298   8.567  21.942  0.00  0.00    +0.000 A 
ATOM      4  C   UNL     1       1.675   8.230  20.648  0.00  0.00    +0.000 A 
ATOM      5  C   UNL     1       1.237   9.007  19.567  0.00  0.00    +0.000 A 
ATOM      6  C   UNL     1       0.374  10.098  19.770  0.00  0.00    +0.000 A 
ATOM      7  C   UNL     1       1.762   8.703  18.222  0.00  0.00    +0.000 C 
ATOM      8  O   UNL     1       1.409   9.342  17.239  0.00  0.00    +0.000 OA
ATOM      9  C   UNL     1       2.745   7.602  18.172  0.00  0.00    +0.000 C 
ATOM     10  C   UNL     1       3.736   7.697  17.271  0.00  0.00    +0.000 C 
ATOM     11  C   UNL     1       2.500   6.565  19.213  0.00  0.00    +0.000 C 
ATOM     12  O   UNL     1       2.506   7.147  20.522  0.00  0.00    +0.000 OA
ENDROOT
BRANCH  10  13
ATOM     13  C   UNL     1       4.850   6.758  17.210  0.00  0.00    +0.000 A 
ATOM     14  C   UNL     1       6.164   7.204  17.378  0.00  0.00    +0.000 A 
ATOM     15  C   UNL     1       7.221   6.294  17.314  0.00  0.00    +0.000 A 
ATOM     16  C   UNL     1       6.958   4.950  17.079  0.00  0.00    +0.000 A 
ATOM     17  C   UNL     1       5.655   4.497  16.899  0.00  0.00    +0.000 A 
ATOM     18  C   UNL     1       4.598   5.404  16.965  0.00  0.00    +0.000 A 
BRANCH  16  19
ATOM     19  O   UNL     1       7.959   4.026  17.019  0.00  0.00    +0.000 OA
ATOM     20  H   UNL     1       8.367   3.954  17.897  0.00  0.00    +0.000 HD
ENDBRANCH  16  19
ENDBRANCH  10  13
BRANCH   1  22
ATOM     21  C   UNL     1      -0.354  12.702  21.556  0.00  0.00    +0.000 C 
ATOM     22  O   UNL     1      -0.923  11.400  21.442  0.00  0.00    +0.000 OA
ENDBRANCH   1  22
BRANCH   2  23
ATOM     23  O   UNL     1       0.049   9.919  23.420  0.00  0.00    +0.000 OA
ATOM     24  H   UNL     1       0.877  10.124  23.898  0.00  0.00    +0.000 HD
ENDBRANCH   2  23
BRANCH   6  25
ATOM     25  O   UNL     1      -0.022  10.881  18.715  0.00  0.00    +0.000 OA
ATOM     26  H   UNL     1      -0.411  11.717  19.060  0.00  0.00    +0.000 HD
ENDBRANCH   6  25
TORSDOF 5
ENDMDL
MODEL 5
REMARK VINA RESULT:      -7.0      1.790      7.973
REMARK  Name = 
REMARK  6 active torsions:
REMARK  status: ('A' for Active; 'I' for Inactive)
REMARK    1  A    between atoms: C_1  and  O_2
REMARK    2  A    between atoms: O_2  and  C_3
REMARK    3  A    between atoms: C_4  and  O_5
REMARK    4  A    between atoms: C_9  and  O_10
REMARK    5  A    between atoms: C_14  and  C_15
REMARK    6  A    between atoms: C_18  and  O_19
REMARK                            x       y       z     vdW  Elec       q    Type
REMARK                         _______ _______ _______ _____ _____    ______ ____
ROOT
ATOM      1  C   UNL     1      -0.511  11.946  19.922  0.00  0.00    +0.000 A 
ATOM      2  C   UNL     1      -0.591  11.683  18.545  0.00  0.00    +0.000 A 
ATOM      3  C   UNL     1      -0.033  10.545  17.977  0.00  0.00    +0.000 A 
ATOM      4  C   UNL     1       0.639   9.644  18.794  0.00  0.00    +0.000 A 
ATOM      5  C   UNL     1       0.688   9.856  20.178  0.00  0.00    +0.000 A 
ATOM      6  C   UNL     1       0.109  11.003  20.750  0.00  0.00    +0.000 A 
ATOM      7  C   UNL     1       1.292   8.815  21.031  0.00  0.00    +0.000 C 
ATOM      8  O   UNL     1       1.371   8.949  22.245  0.00  0.00    +0.000 OA
ATOM      9  C   UNL     1       1.760   7.614  20.309  0.00  0.00    +0.000 C 
ATOM     10  C   UNL     1       1.654   6.432  20.937  0.00  0.00    +0.000 C 
ATOM     11  C   UNL     1       2.228   7.920  18.927  0.00  0.00    +0.000 C 
ATOM     12  O   UNL     1       1.192   8.555  18.169  0.00  0.00    +0.000 OA
ENDROOT
BRANCH  10  13
ATOM     13  C   UNL     1       1.943   5.157  20.291  0.00  0.00    +0.000 A 
ATOM     14  C   UNL     1       3.223   4.884  19.801  0.00  0.00    +0.000 A 
ATOM     15  C   UNL     1       3.484   3.660  19.182  0.00  0.00    +0.000 A 
ATOM     16  C   UNL     1       2.466   2.723  19.054  0.00  0.00    +0.000 A 
ATOM     17  C   UNL     1       1.185   2.989  19.527  0.00  0.00    +0.000 A 
ATOM     18  C   UNL     1       0.923   4.210  20.147  0.00  0.00    +0.000 A 
BRANCH  16  19
ATOM     19  O   UNL     1       2.680   1.512  18.466  0.00  0.00    +0.000 OA
ATOM     20  H   UNL     1       2.749   1.642  17.506  0.00  0.00    +0.000 HD
ENDBRANCH  16  19
ENDBRANCH  10  13
BRANCH   1  22
ATOM     21  C   UNL     1      -2.423  13.033  20.809  0.00  0.00    +0.000 C 
ATOM     22  O   UNL     1      -1.095  13.130  20.301  0.00  0.00    +0.000 OA
ENDBRANCH   1  22
BRANCH   2  23
ATOM     23  O   UNL     1      -1.211  12.572  17.707  0.00  0.00    +0.000 OA
ATOM     24  H   UNL     1      -0.633  12.632  16.921  0.00  0.00    +0.000 HD
ENDBRANCH   2  23
BRANCH   6  25
ATOM     25  O   UNL     1       0.124  11.190  22.109  0.00  0.00    +0.000 OA
ATOM     26  H   UNL     1      -0.704  10.822  22.496  0.00  0.00    +0.000 HD
ENDBRANCH   6  25
TORSDOF 5
ENDMDL
MODEL 6
REMARK VINA RESULT:      -6.9      1.877      7.956
REMARK  Name = 
REMARK  6 active torsions:
REMARK  status: ('A' for Active; 'I' for Inactive)
REMARK    1  A    between atoms: C_1  and  O_2
REMARK    2  A    between atoms: O_2  and  C_3
REMARK    3  A    between atoms: C_4  and  O_5
REMARK    4  A    between atoms: C_9  and  O_10
REMARK    5  A    between atoms: C_14  and  C_15
REMARK    6  A    between atoms: C_18  and  O_19
REMARK                            x       y       z     vdW  Elec       q    Type
REMARK                         _______ _______ _______ _____ _____    ______ ____
ROOT
ATOM      1  C   UNL     1      -1.378  11.514  19.872  0.00  0.00    +0.000 A 
ATOM      2  C   UNL     1      -1.367  11.437  18.470  0.00  0.00    +0.000 A 
ATOM      3  C   UNL     1      -0.528  10.567  17.785  0.00  0.00    +0.000 A 
ATOM      4  C   UNL     1       0.339   9.757  18.508  0.00  0.00    +0.000 A 
ATOM      5  C   UNL     1       0.311   9.777  19.909  0.00  0.00    +0.000 A 
ATOM      6  C   UNL     1      -0.550  10.648  20.598  0.00  0.00    +0.000 A 
ATOM      7  C   UNL     1       1.148   8.810  20.645  0.00  0.00    +0.000 C 
ATOM      8  O   UNL     1       1.171   8.786  21.869  0.00  0.00    +0.000 OA
ATOM      9  C   UNL     1       1.918   7.879  19.795  0.00  0.00    +0.000 C 
ATOM     10  C   UNL     1       2.107   6.632  20.253  0.00  0.00    +0.000 C 
ATOM     11  C   UNL     1       2.313   8.485  18.491  0.00  0.00    +0.000 C 
ATOM     12  O   UNL     1       1.161   8.942  17.773  0.00  0.00    +0.000 OA
ENDROOT
BRANCH  10  13
ATOM     13  C   UNL     1       2.722   5.575  19.459  0.00  0.00    +0.000 A 
ATOM     14  C   UNL     1       4.099   5.345  19.528  0.00  0.00    +0.000 A 
ATOM     15  C   UNL     1       4.674   4.331  18.759  0.00  0.00    +0.000 A 
ATOM     16  C   UNL     1       3.871   3.560  17.927  0.00  0.00    +0.000 A 
ATOM     17  C   UNL     1       2.501   3.788  17.841  0.00  0.00    +0.000 A 
ATOM     18  C   UNL     1       1.925   4.799  18.610  0.00  0.00    +0.000 A 
BRANCH  16  19
ATOM     19  O   UNL     1       4.390   2.554  17.167  0.00  0.00    +0.000 OA
ATOM     20  H   UNL     1       4.620   1.813  17.750  0.00  0.00    +0.000 HD
ENDBRANCH  16  19
ENDBRANCH  10  13
BRANCH   1  22
ATOM     21  C   UNL     1      -1.679  13.704  20.731  0.00  0.00    +0.000 C 
ATOM     22  O   UNL     1      -2.250  12.447  20.376  0.00  0.00    +0.000 OA
ENDBRANCH   1  22
BRANCH   2  23
ATOM     23  O   UNL     1      -2.180  12.252  17.728  0.00  0.00    +0.000 OA
ATOM     24  H   UNL     1      -2.809  11.651  17.282  0.00  0.00    +0.000 HD
ENDBRANCH   2  23
BRANCH   6  25
ATOM     25  O   UNL     1      -0.605  10.639  21.969  0.00  0.00    +0.000 OA
ATOM     26  H   UNL     1       0.306  10.537  22.329  0.00  0.00    +0.000 HD
ENDBRANCH   6  25
TORSDOF 5
ENDMDL
MODEL 7
REMARK VINA RESULT:      -6.9      1.798      7.891
REMARK  Name = 
REMARK  6 active torsions:
REMARK  status: ('A' for Active; 'I' for Inactive)
REMARK    1  A    between atoms: C_1  and  O_2
REMARK    2  A    between atoms: O_2  and  C_3
REMARK    3  A    between atoms: C_4  and  O_5
REMARK    4  A    between atoms: C_9  and  O_10
REMARK    5  A    between atoms: C_14  and  C_15
REMARK    6  A    between atoms: C_18  and  O_19
REMARK                            x       y       z     vdW  Elec       q    Type
REMARK                         _______ _______ _______ _____ _____    ______ ____
ROOT
ATOM      1  C   UNL     1      -0.446  11.739  19.958  0.00  0.00    +0.000 A 
ATOM      2  C   UNL     1      -0.512  11.499  18.577  0.00  0.00    +0.000 A 
ATOM      3  C   UNL     1       0.053  10.370  17.996  0.00  0.00    +0.000 A 
ATOM      4  C   UNL     1       0.716   9.455  18.805  0.00  0.00    +0.000 A 
ATOM      5  C   UNL     1       0.751   9.645  20.193  0.00  0.00    +0.000 A 
ATOM      6  C   UNL     1       0.166  10.782  20.777  0.00  0.00    +0.000 A 
ATOM      7  C   UNL     1       1.347   8.590  21.034  0.00  0.00    +0.000 C 
ATOM      8  O   UNL     1       1.414   8.704  22.252  0.00  0.00    +0.000 OA
ATOM      9  C   UNL     1       1.823   7.402  20.298  0.00  0.00    +0.000 C 
ATOM     10  C   UNL     1       1.711   6.210  20.905  0.00  0.00    +0.000 C 
ATOM     11  C   UNL     1       2.305   7.730  18.926  0.00  0.00    +0.000 C 
ATOM     12  O   UNL     1       1.276   8.378  18.168  0.00  0.00    +0.000 OA
ENDROOT
BRANCH  10  13
ATOM     13  C   UNL     1       2.007   4.946  20.242  0.00  0.00    +0.000 A 
ATOM     14  C   UNL     1       0.995   4.010  20.013  0.00  0.00    +0.000 A 
ATOM     15  C   UNL     1       1.293   2.802  19.379  0.00  0.00    +0.000 A 
ATOM     16  C   UNL     1       2.599   2.539  18.983  0.00  0.00    +0.000 A 
ATOM     17  C   UNL     1       3.618   3.457  19.217  0.00  0.00    +0.000 A 
ATOM     18  C   UNL     1       3.320   4.664  19.848  0.00  0.00    +0.000 A 
BRANCH  16  19
ATOM     19  O   UNL     1       2.933   1.376  18.352  0.00  0.00    +0.000 OA
ATOM     20  H   UNL     1       3.023   0.677  19.019  0.00  0.00    +0.000 HD
ENDBRANCH  16  19
ENDBRANCH  10  13
BRANCH   1  22
ATOM     21  C   UNL     1      -2.362  12.809  20.859  0.00  0.00    +0.000 C 
ATOM     22  O   UNL     1      -1.034  12.916  20.351  0.00  0.00    +0.000 OA
ENDBRANCH   1  22
BRANCH   2  23
ATOM     23  O   UNL     1      -1.124  12.401  17.747  0.00  0.00    +0.000 OA
ATOM     24  H   UNL     1      -2.061  12.128  17.717  0.00  0.00    +0.000 HD
ENDBRANCH   2  23
BRANCH   6  25
ATOM     25  O   UNL     1       0.167  10.947  22.140  0.00  0.00    +0.000 OA
ATOM     26  H   UNL     1       0.516  11.842  22.357  0.00  0.00    +0.000 HD
ENDBRANCH   6  25
TORSDOF 5
ENDMDL
MODEL 8
REMARK VINA RESULT:      -6.9      1.815      7.923
REMARK  Name = 
REMARK  6 active torsions:
REMARK  status: ('A' for Active; 'I' for Inactive)
REMARK    1  A    between atoms: C_1  and  O_2
REMARK    2  A    between atoms: O_2  and  C_3
REMARK    3  A    between atoms: C_4  and  O_5
REMARK    4  A    between atoms: C_9  and  O_10
REMARK    5  A    between atoms: C_14  and  C_15
REMARK    6  A    between atoms: C_18  and  O_19
REMARK                            x       y       z     vdW  Elec       q    Type
REMARK                         _______ _______ _______ _____ _____    ______ ____
ROOT
ATOM      1  C   UNL     1      -1.414  11.554  19.918  0.00  0.00    +0.000 A 
ATOM      2  C   UNL     1      -1.413  11.446  18.518  0.00  0.00    +0.000 A 
ATOM      3  C   UNL     1      -0.590  10.550  17.848  0.00  0.00    +0.000 A 
ATOM      4  C   UNL     1       0.271   9.744  18.584  0.00  0.00    +0.000 A 
ATOM      5  C   UNL     1       0.251   9.796  19.984  0.00  0.00    +0.000 A 
ATOM      6  C   UNL     1      -0.594  10.695  20.659  0.00  0.00    +0.000 A 
ATOM      7  C   UNL     1       1.080   8.835  20.737  0.00  0.00    +0.000 C 
ATOM      8  O   UNL     1       1.111   8.838  21.961  0.00  0.00    +0.000 OA
ATOM      9  C   UNL     1       1.832   7.875  19.903  0.00  0.00    +0.000 C 
ATOM     10  C   UNL     1       2.008   6.636  20.389  0.00  0.00    +0.000 C 
ATOM     11  C   UNL     1       2.227   8.446  18.584  0.00  0.00    +0.000 C 
ATOM     12  O   UNL     1       1.077   8.902  17.863  0.00  0.00    +0.000 OA
ENDROOT
BRANCH  10  13
ATOM     13  C   UNL     1       2.603   5.553  19.615  0.00  0.00    +0.000 A 
ATOM     14  C   UNL     1       1.807   4.737  18.808  0.00  0.00    +0.000 A 
ATOM     15  C   UNL     1       2.390   3.702  18.075  0.00  0.00    +0.000 A 
ATOM     16  C   UNL     1       3.762   3.489  18.158  0.00  0.00    +0.000 A 
ATOM     17  C   UNL     1       4.562   4.287  18.968  0.00  0.00    +0.000 A 
ATOM     18  C   UNL     1       3.981   5.323  19.699  0.00  0.00    +0.000 A 
BRANCH  16  19
ATOM     19  O   UNL     1       4.373   2.496  17.451  0.00  0.00    +0.000 OA
ATOM     20  H   UNL     1       4.473   2.787  16.531  0.00  0.00    +0.000 HD
ENDBRANCH  16  19
ENDBRANCH  10  13
BRANCH   1  22
ATOM     21  C   UNL     1      -1.670  13.744  20.793  0.00  0.00    +0.000 C 
ATOM     22  O   UNL     1      -2.271  12.511  20.406  0.00  0.00    +0.000 OA
ENDBRANCH   1  22
BRANCH   2  23
ATOM     23  O   UNL     1      -2.220  12.255  17.763  0.00  0.00    +0.000 OA
ATOM     24  H   UNL     1      -3.073  11.782  17.702  0.00  0.00    +0.000 HD
ENDBRANCH   2  23
BRANCH   6  25
ATOM     25  O   UNL     1      -0.639  10.717  22.030  0.00  0.00    +0.000 OA
ATOM     26  H   UNL     1       0.049  10.111  22.387  0.00  0.00    +0.000 HD
ENDBRANCH   6  25
TORSDOF 5
ENDMDL
MODEL 9
REMARK VINA RESULT:      -6.8      1.697      3.288
REMARK  Name = 
REMARK  6 active torsions:
REMARK  status: ('A' for Active; 'I' for Inactive)
REMARK    1  A    between atoms: C_1  and  O_2
REMARK    2  A    between atoms: O_2  and  C_3
REMARK    3  A    between atoms: C_4  and  O_5
REMARK    4  A    between atoms: C_9  and  O_10
REMARK    5  A    between atoms: C_14  and  C_15
REMARK    6  A    between atoms: C_18  and  O_19
REMARK                            x       y       z     vdW  Elec       q    Type
REMARK                         _______ _______ _______ _____ _____    ______ ____
ROOT
ATOM      1  C   UNL     1       4.092   5.398  18.924  0.00  0.00    +0.000 A 
ATOM      2  C   UNL     1       4.500   5.976  17.711  0.00  0.00    +0.000 A 
ATOM      3  C   UNL     1       3.933   7.147  17.224  0.00  0.00    +0.000 A 
ATOM      4  C   UNL     1       2.920   7.759  17.953  0.00  0.00    +0.000 A 
ATOM      5  C   UNL     1       2.531   7.231  19.191  0.00  0.00    +0.000 A 
ATOM      6  C   UNL     1       3.118   6.054  19.686  0.00  0.00    +0.000 A 
ATOM      7  C   UNL     1       1.548   7.979  19.999  0.00  0.00    +0.000 C 
ATOM      8  O   UNL     1       1.164   7.562  21.084  0.00  0.00    +0.000 OA
ATOM      9  C   UNL     1       1.098   9.255  19.407  0.00  0.00    +0.000 C 
ATOM     10  C   UNL     1       0.825  10.265  20.247  0.00  0.00    +0.000 C 
ATOM     11  C   UNL     1       1.085   9.225  17.917  0.00  0.00    +0.000 C 
ATOM     12  O   UNL     1       2.382   8.895  17.405  0.00  0.00    +0.000 OA
ENDROOT
BRANCH  10  13
ATOM     13  C   UNL     1       0.511  11.616  19.795  0.00  0.00    +0.000 A 
ATOM     14  C   UNL     1       1.533  12.507  19.457  0.00  0.00    +0.000 A 
ATOM     15  C   UNL     1       1.218  13.797  19.029  0.00  0.00    +0.000 A 
ATOM     16  C   UNL     1      -0.114  14.188  18.945  0.00  0.00    +0.000 A 
ATOM     17  C   UNL     1      -1.139  13.313  19.290  0.00  0.00    +0.000 A 
ATOM     18  C   UNL     1      -0.825  12.023  19.716  0.00  0.00    +0.000 A 
BRANCH  16  19
ATOM     19  O   UNL     1      -0.466  15.435  18.522  0.00  0.00    +0.000 OA
ATOM     20  H   UNL     1      -0.249  15.515  17.579  0.00  0.00    +0.000 HD
ENDBRANCH  16  19
ENDBRANCH  10  13
BRANCH   1  22
ATOM     21  C   UNL     1       4.016   3.028  18.985  0.00  0.00    +0.000 C 
ATOM     22  O   UNL     1       4.743   4.229  19.234  0.00  0.00    +0.000 OA
ENDBRANCH   1  22
BRANCH   2  23
ATOM     23  O   UNL     1       5.467   5.375  16.951  0.00  0.00    +0.000 OA
ATOM     24  H   UNL     1       5.008   4.663  16.464  0.00  0.00    +0.000 HD
ENDBRANCH   2  23
BRANCH   6  25
ATOM     25  O   UNL     1       2.764   5.560  20.917  0.00  0.00    +0.000 OA
ATOM     26  H   UNL     1       2.543   4.604  20.830  0.00  0.00    +0.000 HD
ENDBRANCH   6  25
TORSDOF 5
ENDMDL
