MODEL 1
REMARK VINA RESULT:      -8.2      0.000      0.000
REMARK  Name = 
REMARK  7 active torsions:
REMARK  status: ('A' for Active; 'I' for Inactive)
REMARK    1  A    between atoms: O_1  and  C_2
REMARK    2  A    between atoms: C_2  and  C_3
REMARK    3  A    between atoms: C_3  and  C_4
REMARK    4  A    between atoms: C_4  and  C_5
REMARK    5  A    between atoms: C_10  and  C_11
REMARK    6  A    between atoms: N_17  and  C_18
REMARK    7  A    between atoms: C_18  and  C_19
REMARK                            x       y       z     vdW  Elec       q    Type
REMARK                         _______ _______ _______ _____ _____    ______ ____
ROOT
ATOM      1  C   UNL     1       3.175   4.956  18.551  0.00  0.00    +0.000 C 
ATOM      2  C   UNL     1       2.923   4.821  20.074  0.00  0.00    +0.000 C 
ATOM      3  C   UNL     1       1.818   5.731  20.576  0.00  0.00    +0.000 C 
ATOM      4  N   UNL     1       2.082   7.147  20.259  0.00  0.00    +0.000 NA
ATOM      5  C   UNL     1       2.279   7.356  18.822  0.00  0.00    +0.000 C 
ATOM      6  C   UNL     1       3.395   6.458  18.251  0.00  0.00    +0.000 C 
ENDROOT
BRANCH   1   7
ATOM      7  C   UNL     1       1.950   4.452  17.746  0.00  0.00    +0.000 C 
BRANCH   7   8
ATOM      8  O   UNL     1       1.935   3.033  17.658  0.00  0.00    +0.000 OA
ATOM      9  H   UNL     1       2.848   2.750  17.479  0.00  0.00    +0.000 HD
ENDBRANCH   7   8
ENDBRANCH   1   7
BRANCH   1  10
ATOM     10  C   UNL     1       4.445   4.087  18.270  0.00  0.00    +0.000 C 
BRANCH  10  11
ATOM     11  C   UNL     1       5.332   4.441  17.093  0.00  0.00    +0.000 A 
ATOM     12  C   UNL     1       4.920   3.971  15.826  0.00  0.00    +0.000 A 
ATOM     13  C   UNL     1       5.663   4.215  14.672  0.00  0.00    +0.000 A 
ATOM     14  C   UNL     1       6.837   4.947  14.755  0.00  0.00    +0.000 A 
ATOM     15  C   UNL     1       7.278   5.398  15.996  0.00  0.00    +0.000 A 
ATOM     16  C   UNL     1       6.559   5.133  17.186  0.00  0.00    +0.000 A 
BRANCH  16  17
ATOM     17  C   UNL     1       7.238   5.582  18.467  0.00  0.00    +0.000 C 
ATOM     18  F   UNL     1       6.454   5.653  19.574  0.00  0.00    +0.000 F 
ATOM     19  F   UNL     1       8.264   4.747  18.810  0.00  0.00    +0.000 F 
ATOM     20  F   UNL     1       7.804   6.817  18.341  0.00  0.00    +0.000 F 
ENDBRANCH  16  17
ENDBRANCH  10  11
ENDBRANCH   1  10
BRANCH   4  21
ATOM     21  C   UNL     1       0.931   7.901  20.761  0.00  0.00    +0.000 C 
BRANCH  21  22
ATOM     22  C   UNL     1       0.881   9.391  20.487  0.00  0.00    +0.000 A 
ATOM     23  C   UNL     1       0.574   9.803  19.164  0.00  0.00    +0.000 A 
ATOM     24  C   UNL     1      -0.151  10.963  18.944  0.00  0.00    +0.000 A 
ATOM     25  C   UNL     1      -0.512  11.661  20.066  0.00  0.00    +0.000 A 
ATOM     26  C   UNL     1       0.019  11.424  21.330  0.00  0.00    +0.000 A 
ATOM     27  C   UNL     1       0.743  10.275  21.566  0.00  0.00    +0.000 A 
ATOM     28  C   UNL     1      -0.658  12.331  22.291  0.00  0.00    +0.000 C 
ATOM     29  C   UNL     1      -1.985  12.285  21.542  0.00  0.00    +0.000 C 
ATOM     30  O   UNL     1      -1.642  12.463  20.135  0.00  0.00    +0.000 OA
ENDBRANCH  21  22
ENDBRANCH   4  21
TORSDOF 7
ENDMDL
MODEL 2
REMARK VINA RESULT:      -8.2      4.856      7.529
REMARK  Name = 
REMARK  7 active torsions:
REMARK  status: ('A' for Active; 'I' for Inactive)
REMARK    1  A    between atoms: O_1  and  C_2
REMARK    2  A    between atoms: C_2  and  C_3
REMARK    3  A    between atoms: C_3  and  C_4
REMARK    4  A    between atoms: C_4  and  C_5
REMARK    5  A    between atoms: C_10  and  C_11
REMARK    6  A    between atoms: N_17  and  C_18
REMARK    7  A    between atoms: C_18  and  C_19
REMARK                            x       y       z     vdW  Elec       q    Type
REMARK                         _______ _______ _______ _____ _____    ______ ____
ROOT
ATOM      1  C   UNL     1       5.908   5.510  17.371  0.00  0.00    +0.000 C 
ATOM      2  C   UNL     1       5.858   6.978  16.877  0.00  0.00    +0.000 C 
ATOM      3  C   UNL     1       7.173   7.712  17.061  0.00  0.00    +0.000 C 
ATOM      4  N   UNL     1       7.623   7.695  18.465  0.00  0.00    +0.000 NA
ATOM      5  C   UNL     1       7.743   6.329  18.983  0.00  0.00    +0.000 C 
ATOM      6  C   UNL     1       6.433   5.530  18.826  0.00  0.00    +0.000 C 
ENDROOT
BRANCH   1   7
ATOM      7  C   UNL     1       6.874   4.670  16.495  0.00  0.00    +0.000 C 
BRANCH   7   8
ATOM      8  O   UNL     1       6.233   3.507  15.985  0.00  0.00    +0.000 OA
ATOM      9  H   UNL     1       5.457   3.810  15.481  0.00  0.00    +0.000 HD
ENDBRANCH   7   8
ENDBRANCH   1   7
BRANCH   1  10
ATOM     10  C   UNL     1       4.436   4.993  17.262  0.00  0.00    +0.000 C 
BRANCH  10  11
ATOM     11  C   UNL     1       3.498   5.193  18.436  0.00  0.00    +0.000 A 
ATOM     12  C   UNL     1       3.057   6.514  18.676  0.00  0.00    +0.000 A 
ATOM     13  C   UNL     1       2.210   6.827  19.737  0.00  0.00    +0.000 A 
ATOM     14  C   UNL     1       1.770   5.821  20.583  0.00  0.00    +0.000 A 
ATOM     15  C   UNL     1       2.212   4.515  20.383  0.00  0.00    +0.000 A 
ATOM     16  C   UNL     1       3.101   4.179  19.334  0.00  0.00    +0.000 A 
BRANCH  16  17
ATOM     17  C   UNL     1       3.585   2.741  19.330  0.00  0.00    +0.000 C 
ATOM     18  F   UNL     1       3.518   2.083  18.144  0.00  0.00    +0.000 F 
ATOM     19  F   UNL     1       4.894   2.652  19.715  0.00  0.00    +0.000 F 
ATOM     20  F   UNL     1       2.895   1.966  20.217  0.00  0.00    +0.000 F 
ENDBRANCH  16  17
ENDBRANCH  10  11
ENDBRANCH   1  10
BRANCH   4  21
ATOM     21  C   UNL     1       8.908   8.397  18.493  0.00  0.00    +0.000 C 
BRANCH  21  22
ATOM     22  C   UNL     1       8.908   9.870  18.848  0.00  0.00    +0.000 A 
ATOM     23  C   UNL     1       9.147  10.218  20.203  0.00  0.00    +0.000 A 
ATOM     24  C   UNL     1       9.832  11.381  20.516  0.00  0.00    +0.000 A 
ATOM     25  C   UNL     1      10.222  12.147  19.449  0.00  0.00    +0.000 A 
ATOM     26  C   UNL     1       9.752  11.966  18.152  0.00  0.00    +0.000 A 
ATOM     27  C   UNL     1       9.068  10.814  17.824  0.00  0.00    +0.000 A 
ATOM     28  C   UNL     1      10.444  12.940  17.271  0.00  0.00    +0.000 C 
ATOM     29  C   UNL     1      11.740  12.885  18.074  0.00  0.00    +0.000 C 
ATOM     30  O   UNL     1      11.332  12.978  19.472  0.00  0.00    +0.000 OA
ENDBRANCH  21  22
ENDBRANCH   4  21
TORSDOF 7
ENDMDL
MODEL 3
REMARK VINA RESULT:      -8.0      4.849      7.455
REMARK  Name = 
REMARK  7 active torsions:
REMARK  status: ('A' for Active; 'I' for Inactive)
REMARK    1  A    between atoms: O_1  and  C_2
REMARK    2  A    between atoms: C_2  and  C_3
REMARK    3  A    between atoms: C_3  and  C_4
REMARK    4  A    between atoms: C_4  and  C_5
REMARK    5  A    between atoms: C_10  and  C_11
REMARK    6  A    between atoms: N_17  and  C_18
REMARK    7  A    between atoms: C_18  and  C_19
REMARK                            x       y       z     vdW  Elec       q    Type
REMARK                         _______ _______ _______ _____ _____    ______ ____
ROOT
ATOM      1  C   UNL     1       5.970   5.358  17.421  0.00  0.00    +0.000 C 
ATOM      2  C   UNL     1       5.851   6.804  16.876  0.00  0.00    +0.000 C 
ATOM      3  C   UNL     1       7.136   7.598  17.011  0.00  0.00    +0.000 C 
ATOM      4  N   UNL     1       7.606   7.652  18.408  0.00  0.00    +0.000 NA
ATOM      5  C   UNL     1       7.791   6.312  18.973  0.00  0.00    +0.000 C 
ATOM      6  C   UNL     1       6.514   5.454  18.866  0.00  0.00    +0.000 C 
ENDROOT
BRANCH   1   7
ATOM      7  C   UNL     1       6.957   4.528  16.561  0.00  0.00    +0.000 C 
BRANCH   7   8
ATOM      8  O   UNL     1       6.319   3.391  15.991  0.00  0.00    +0.000 OA
ATOM      9  H   UNL     1       6.939   2.647  16.075  0.00  0.00    +0.000 HD
ENDBRANCH   7   8
ENDBRANCH   1   7
BRANCH   1  10
ATOM     10  C   UNL     1       4.519   4.777  17.355  0.00  0.00    +0.000 C 
BRANCH  10  11
ATOM     11  C   UNL     1       3.801   4.443  18.647  0.00  0.00    +0.000 A 
ATOM     12  C   UNL     1       3.949   3.123  19.131  0.00  0.00    +0.000 A 
ATOM     13  C   UNL     1       3.321   2.692  20.297  0.00  0.00    +0.000 A 
ATOM     14  C   UNL     1       2.534   3.574  21.020  0.00  0.00    +0.000 A 
ATOM     15  C   UNL     1       2.351   4.873  20.550  0.00  0.00    +0.000 A 
ATOM     16  C   UNL     1       2.950   5.324  19.349  0.00  0.00    +0.000 A 
BRANCH  16  17
ATOM     17  C   UNL     1       2.549   6.720  18.911  0.00  0.00    +0.000 C 
ATOM     18  F   UNL     1       3.563   7.580  18.631  0.00  0.00    +0.000 F 
ATOM     19  F   UNL     1       1.785   6.690  17.778  0.00  0.00    +0.000 F 
ATOM     20  F   UNL     1       1.783   7.351  19.847  0.00  0.00    +0.000 F 
ENDBRANCH  16  17
ENDBRANCH  10  11
ENDBRANCH   1  10
BRANCH   4  21
ATOM     21  C   UNL     1       8.861   8.407  18.390  0.00  0.00    +0.000 C 
BRANCH  21  22
ATOM     22  C   UNL     1       8.826   9.858  18.825  0.00  0.00    +0.000 A 
ATOM     23  C   UNL     1       9.103  10.141  20.189  0.00  0.00    +0.000 A 
ATOM     24  C   UNL     1       9.761  11.308  20.541  0.00  0.00    +0.000 A 
ATOM     25  C   UNL     1      10.086  12.144  19.505  0.00  0.00    +0.000 A 
ATOM     26  C   UNL     1       9.574  12.017  18.217  0.00  0.00    +0.000 A 
ATOM     27  C   UNL     1       8.917  10.861  17.850  0.00  0.00    +0.000 A 
ATOM     28  C   UNL     1      10.202  13.059  17.367  0.00  0.00    +0.000 C 
ATOM     29  C   UNL     1      11.527  13.006  18.120  0.00  0.00    +0.000 C 
ATOM     30  O   UNL     1      11.168  13.010  19.534  0.00  0.00    +0.000 OA
ENDBRANCH  21  22
ENDBRANCH   4  21
TORSDOF 7
ENDMDL
MODEL 4
REMARK VINA RESULT:      -8.0      1.700      2.310
REMARK  Name = 
REMARK  7 active torsions:
REMARK  status: ('A' for Active; 'I' for Inactive)
REMARK    1  A    between atoms: O_1  and  C_2
REMARK    2  A    between atoms: C_2  and  C_3
REMARK    3  A    between atoms: C_3  and  C_4
REMARK    4  A    between atoms: C_4  and  C_5
REMARK    5  A    between atoms: C_10  and  C_11
REMARK    6  A    between atoms: N_17  and  C_18
REMARK    7  A    between atoms: C_18  and  C_19
REMARK                            x       y       z     vdW  Elec       q    Type
REMARK                         _______ _______ _______ _____ _____    ______ ____
ROOT
ATOM      1  C   UNL     1       2.967   4.987  18.548  0.00  0.00    +0.000 C 
ATOM      2  C   UNL     1       2.825   4.834  20.084  0.00  0.00    +0.000 C 
ATOM      3  C   UNL     1       1.688   5.657  20.661  0.00  0.00    +0.000 C 
ATOM      4  N   UNL     1       1.823   7.089  20.334  0.00  0.00    +0.000 NA
ATOM      5  C   UNL     1       1.910   7.313  18.888  0.00  0.00    +0.000 C 
ATOM      6  C   UNL     1       3.052   6.501  18.242  0.00  0.00    +0.000 C 
ENDROOT
BRANCH   1   7
ATOM      7  C   UNL     1       1.734   4.392  17.822  0.00  0.00    +0.000 C 
BRANCH   7   8
ATOM      8  O   UNL     1       2.084   3.240  17.065  0.00  0.00    +0.000 OA
ATOM      9  H   UNL     1       2.047   2.480  17.671  0.00  0.00    +0.000 HD
ENDBRANCH   7   8
ENDBRANCH   1   7
BRANCH   1  10
ATOM     10  C   UNL     1       4.278   4.217  18.182  0.00  0.00    +0.000 C 
BRANCH  10  11
ATOM     11  C   UNL     1       5.586   4.980  18.122  0.00  0.00    +0.000 A 
ATOM     12  C   UNL     1       6.232   5.228  19.355  0.00  0.00    +0.000 A 
ATOM     13  C   UNL     1       7.429   5.937  19.429  0.00  0.00    +0.000 A 
ATOM     14  C   UNL     1       8.020   6.410  18.268  0.00  0.00    +0.000 A 
ATOM     15  C   UNL     1       7.390   6.201  17.044  0.00  0.00    +0.000 A 
ATOM     16  C   UNL     1       6.156   5.515  16.946  0.00  0.00    +0.000 A 
BRANCH  16  17
ATOM     17  C   UNL     1       5.540   5.484  15.560  0.00  0.00    +0.000 C 
ATOM     18  F   UNL     1       4.678   4.467  15.304  0.00  0.00    +0.000 F 
ATOM     19  F   UNL     1       4.833   6.624  15.300  0.00  0.00    +0.000 F 
ATOM     20  F   UNL     1       6.487   5.415  14.580  0.00  0.00    +0.000 F 
ENDBRANCH  16  17
ENDBRANCH  10  11
ENDBRANCH   1  10
BRANCH   4  21
ATOM     21  C   UNL     1       0.653   7.754  20.912  0.00  0.00    +0.000 C 
BRANCH  21  22
ATOM     22  C   UNL     1       0.749   9.237  21.206  0.00  0.00    +0.000 A 
ATOM     23  C   UNL     1       1.080  10.098  20.127  0.00  0.00    +0.000 A 
ATOM     24  C   UNL     1       0.546  11.375  20.063  0.00  0.00    +0.000 A 
ATOM     25  C   UNL     1      -0.277  11.729  21.099  0.00  0.00    +0.000 A 
ATOM     26  C   UNL     1      -0.380  11.011  22.287  0.00  0.00    +0.000 A 
ATOM     27  C   UNL     1       0.146   9.739  22.368  0.00  0.00    +0.000 A 
ATOM     28  C   UNL     1      -1.408  11.666  23.133  0.00  0.00    +0.000 C 
ATOM     29  C   UNL     1      -2.252  12.095  21.937  0.00  0.00    +0.000 C 
ATOM     30  O   UNL     1      -1.306  12.650  20.975  0.00  0.00    +0.000 OA
ENDBRANCH  21  22
ENDBRANCH   4  21
TORSDOF 7
ENDMDL
MODEL 5
REMARK VINA RESULT:      -8.0      1.052      1.295
REMARK  Name = 
REMARK  7 active torsions:
REMARK  status: ('A' for Active; 'I' for Inactive)
REMARK    1  A    between atoms: O_1  and  C_2
REMARK    2  A    between atoms: C_2  and  C_3
REMARK    3  A    between atoms: C_3  and  C_4
REMARK    4  A    between atoms: C_4  and  C_5
REMARK    5  A    between atoms: C_10  and  C_11
REMARK    6  A    between atoms: N_17  and  C_18
REMARK    7  A    between atoms: C_18  and  C_19
REMARK                            x       y       z     vdW  Elec       q    Type
REMARK                         _______ _______ _______ _____ _____    ______ ____
ROOT
ATOM      1  C   UNL     1       3.064   5.846  18.594  0.00  0.00    +0.000 C 
ATOM      2  C   UNL     1       2.717   6.240  20.052  0.00  0.00    +0.000 C 
ATOM      3  C   UNL     1       1.598   7.260  20.142  0.00  0.00    +0.000 C 
ATOM      4  N   UNL     1       1.904   8.483  19.377  0.00  0.00    +0.000 NA
ATOM      5  C   UNL     1       2.193   8.190  17.970  0.00  0.00    +0.000 C 
ATOM      6  C   UNL     1       3.328   7.156  17.813  0.00  0.00    +0.000 C 
ENDROOT
BRANCH   1   7
ATOM      7  C   UNL     1       1.883   5.091  17.933  0.00  0.00    +0.000 C 
BRANCH   7   8
ATOM      8  O   UNL     1       1.633   3.850  18.582  0.00  0.00    +0.000 OA
ATOM      9  H   UNL     1       0.669   3.717  18.577  0.00  0.00    +0.000 HD
ENDBRANCH   7   8
ENDBRANCH   1   7
BRANCH   1  10
ATOM     10  C   UNL     1       4.334   4.940  18.709  0.00  0.00    +0.000 C 
BRANCH  10  11
ATOM     11  C   UNL     1       5.274   4.838  17.523  0.00  0.00    +0.000 A 
ATOM     12  C   UNL     1       4.749   4.255  16.348  0.00  0.00    +0.000 A 
ATOM     13  C   UNL     1       5.522   4.088  15.201  0.00  0.00    +0.000 A 
ATOM     14  C   UNL     1       6.841   4.511  15.194  0.00  0.00    +0.000 A 
ATOM     15  C   UNL     1       7.389   5.065  16.349  0.00  0.00    +0.000 A 
ATOM     16  C   UNL     1       6.635   5.212  17.537  0.00  0.00    +0.000 A 
BRANCH  16  17
ATOM     17  C   UNL     1       7.413   5.713  18.740  0.00  0.00    +0.000 C 
ATOM     18  F   UNL     1       6.754   5.716  19.928  0.00  0.00    +0.000 F 
ATOM     19  F   UNL     1       8.536   4.966  18.958  0.00  0.00    +0.000 F 
ATOM     20  F   UNL     1       7.857   6.992  18.566  0.00  0.00    +0.000 F 
ENDBRANCH  16  17
ENDBRANCH  10  11
ENDBRANCH   1  10
BRANCH   4  21
ATOM     21  C   UNL     1       0.738   9.358  19.516  0.00  0.00    +0.000 C 
BRANCH  21  22
ATOM     22  C   UNL     1       0.747  10.387  20.628  0.00  0.00    +0.000 A 
ATOM     23  C   UNL     1       1.239  11.682  20.317  0.00  0.00    +0.000 A 
ATOM     24  C   UNL     1       0.695  12.802  20.926  0.00  0.00    +0.000 A 
ATOM     25  C   UNL     1      -0.302  12.560  21.833  0.00  0.00    +0.000 A 
ATOM     26  C   UNL     1      -0.592  11.300  22.349  0.00  0.00    +0.000 A 
ATOM     27  C   UNL     1      -0.058  10.176  21.755  0.00  0.00    +0.000 A 
ATOM     28  C   UNL     1      -1.765  11.430  23.248  0.00  0.00    +0.000 C 
ATOM     29  C   UNL     1      -2.400  12.536  22.412  0.00  0.00    +0.000 C 
ATOM     30  O   UNL     1      -1.315  13.464  22.112  0.00  0.00    +0.000 OA
ENDBRANCH  21  22
ENDBRANCH   4  21
TORSDOF 7
ENDMDL
MODEL 6
REMARK VINA RESULT:      -7.8      1.401      1.789
REMARK  Name = 
REMARK  7 active torsions:
REMARK  status: ('A' for Active; 'I' for Inactive)
REMARK    1  A    between atoms: O_1  and  C_2
REMARK    2  A    between atoms: C_2  and  C_3
REMARK    3  A    between atoms: C_3  and  C_4
REMARK    4  A    between atoms: C_4  and  C_5
REMARK    5  A    between atoms: C_10  and  C_11
REMARK    6  A    between atoms: N_17  and  C_18
REMARK    7  A    between atoms: C_18  and  C_19
REMARK                            x       y       z     vdW  Elec       q    Type
REMARK                         _______ _______ _______ _____ _____    ______ ____
ROOT
ATOM      1  C   UNL     1       3.065   5.270  18.621  0.00  0.00    +0.000 C 
ATOM      2  C   UNL     1       3.154   5.817  20.068  0.00  0.00    +0.000 C 
ATOM      3  C   UNL     1       2.097   6.861  20.375  0.00  0.00    +0.000 C 
ATOM      4  N   UNL     1       2.150   7.994  19.432  0.00  0.00    +0.000 NA
ATOM      5  C   UNL     1       2.020   7.552  18.041  0.00  0.00    +0.000 C 
ATOM      6  C   UNL     1       3.072   6.488  17.667  0.00  0.00    +0.000 C 
ENDROOT
BRANCH   1   7
ATOM      7  C   UNL     1       1.752   4.472  18.416  0.00  0.00    +0.000 C 
BRANCH   7   8
ATOM      8  O   UNL     1       1.602   4.059  17.064  0.00  0.00    +0.000 OA
ATOM      9  H   UNL     1       0.655   3.885  16.924  0.00  0.00    +0.000 HD
ENDBRANCH   7   8
ENDBRANCH   1   7
BRANCH   1  10
ATOM     10  C   UNL     1       4.325   4.358  18.453  0.00  0.00    +0.000 C 
BRANCH  10  11
ATOM     11  C   UNL     1       5.244   4.586  17.269  0.00  0.00    +0.000 A 
ATOM     12  C   UNL     1       4.823   4.055  16.029  0.00  0.00    +0.000 A 
ATOM     13  C   UNL     1       5.592   4.182  14.874  0.00  0.00    +0.000 A 
ATOM     14  C   UNL     1       6.803   4.855  14.927  0.00  0.00    +0.000 A 
ATOM     15  C   UNL     1       7.252   5.364  16.143  0.00  0.00    +0.000 A 
ATOM     16  C   UNL     1       6.506   5.217  17.336  0.00  0.00    +0.000 A 
BRANCH  16  17
ATOM     17  C   UNL     1       7.192   5.714  18.596  0.00  0.00    +0.000 C 
ATOM     18  F   UNL     1       8.305   5.041  18.983  0.00  0.00    +0.000 F 
ATOM     19  F   UNL     1       7.587   7.016  18.470  0.00  0.00    +0.000 F 
ATOM     20  F   UNL     1       6.358   5.693  19.675  0.00  0.00    +0.000 F 
ENDBRANCH  16  17
ENDBRANCH  10  11
ENDBRANCH   1  10
BRANCH   4  21
ATOM     21  C   UNL     1       1.064   8.898  19.815  0.00  0.00    +0.000 C 
BRANCH  21  22
ATOM     22  C   UNL     1       0.740  10.054  18.890  0.00  0.00    +0.000 A 
ATOM     23  C   UNL     1      -0.620  10.240  18.527  0.00  0.00    +0.000 A 
ATOM     24  C   UNL     1      -1.121  11.516  18.324  0.00  0.00    +0.000 A 
ATOM     25  C   UNL     1      -0.222  12.539  18.476  0.00  0.00    +0.000 A 
ATOM     26  C   UNL     1       1.155  12.356  18.549  0.00  0.00    +0.000 A 
ATOM     27  C   UNL     1       1.670  11.093  18.750  0.00  0.00    +0.000 A 
ATOM     28  C   UNL     1       1.784  13.682  18.771  0.00  0.00    +0.000 C 
ATOM     29  C   UNL     1       0.617  14.199  19.606  0.00  0.00    +0.000 C 
ATOM     30  O   UNL     1      -0.583  13.819  18.869  0.00  0.00    +0.000 OA
ENDBRANCH  21  22
ENDBRANCH   4  21
TORSDOF 7
ENDMDL
MODEL 7
REMARK VINA RESULT:      -7.8      1.229      1.682
REMARK  Name = 
REMARK  7 active torsions:
REMARK  status: ('A' for Active; 'I' for Inactive)
REMARK    1  A    between atoms: O_1  and  C_2
REMARK    2  A    between atoms: C_2  and  C_3
REMARK    3  A    between atoms: C_3  and  C_4
REMARK    4  A    between atoms: C_4  and  C_5
REMARK    5  A    between atoms: C_10  and  C_11
REMARK    6  A    between atoms: N_17  and  C_18
REMARK    7  A    between atoms: C_18  and  C_19
REMARK                            x       y       z     vdW  Elec       q    Type
REMARK                         _______ _______ _______ _____ _____    ______ ____
ROOT
ATOM      1  C   UNL     1       3.258   6.027  18.457  0.00  0.00    +0.000 C 
ATOM      2  C   UNL     1       2.998   6.406  19.937  0.00  0.00    +0.000 C 
ATOM      3  C   UNL     1       1.797   7.315  20.116  0.00  0.00    +0.000 C 
ATOM      4  N   UNL     1       1.917   8.551  19.320  0.00  0.00    +0.000 NA
ATOM      5  C   UNL     1       2.113   8.266  17.896  0.00  0.00    +0.000 C 
ATOM      6  C   UNL     1       3.325   7.345  17.648  0.00  0.00    +0.000 C 
ENDROOT
BRANCH   1   7
ATOM      7  C   UNL     1       2.103   5.152  17.904  0.00  0.00    +0.000 C 
BRANCH   7   8
ATOM      8  O   UNL     1       2.107   3.857  18.492  0.00  0.00    +0.000 OA
ATOM      9  H   UNL     1       3.011   3.508  18.402  0.00  0.00    +0.000 HD
ENDBRANCH   7   8
ENDBRANCH   1   7
BRANCH   1  10
ATOM     10  C   UNL     1       4.615   5.250  18.467  0.00  0.00    +0.000 C 
BRANCH  10  11
ATOM     11  C   UNL     1       5.367   5.067  17.164  0.00  0.00    +0.000 A 
ATOM     12  C   UNL     1       4.966   3.986  16.347  0.00  0.00    +0.000 A 
ATOM     13  C   UNL     1       5.596   3.704  15.137  0.00  0.00    +0.000 A 
ATOM     14  C   UNL     1       6.640   4.506  14.704  0.00  0.00    +0.000 A 
ATOM     15  C   UNL     1       7.072   5.561  15.503  0.00  0.00    +0.000 A 
ATOM     16  C   UNL     1       6.471   5.846  16.753  0.00  0.00    +0.000 A 
BRANCH  16  17
ATOM     17  C   UNL     1       7.139   6.946  17.558  0.00  0.00    +0.000 C 
ATOM     18  F   UNL     1       8.208   7.553  16.981  0.00  0.00    +0.000 F 
ATOM     19  F   UNL     1       6.266   7.957  17.844  0.00  0.00    +0.000 F 
ATOM     20  F   UNL     1       7.582   6.498  18.768  0.00  0.00    +0.000 F 
ENDBRANCH  16  17
ENDBRANCH  10  11
ENDBRANCH   1  10
BRANCH   4  21
ATOM     21  C   UNL     1       0.687   9.311  19.554  0.00  0.00    +0.000 C 
BRANCH  21  22
ATOM     22  C   UNL     1       0.693  10.360  20.647  0.00  0.00    +0.000 A 
ATOM     23  C   UNL     1       1.187  11.649  20.315  0.00  0.00    +0.000 A 
ATOM     24  C   UNL     1       0.642  12.779  20.903  0.00  0.00    +0.000 A 
ATOM     25  C   UNL     1      -0.359  12.553  21.812  0.00  0.00    +0.000 A 
ATOM     26  C   UNL     1      -0.650  11.303  22.349  0.00  0.00    +0.000 A 
ATOM     27  C   UNL     1      -0.115  10.168  21.776  0.00  0.00    +0.000 A 
ATOM     28  C   UNL     1      -1.826  11.448  23.242  0.00  0.00    +0.000 C 
ATOM     29  C   UNL     1      -2.458  12.540  22.385  0.00  0.00    +0.000 C 
ATOM     30  O   UNL     1      -1.372  13.463  22.072  0.00  0.00    +0.000 OA
ENDBRANCH  21  22
ENDBRANCH   4  21
TORSDOF 7
ENDMDL
MODEL 8
REMARK VINA RESULT:      -7.7      4.906      7.841
REMARK  Name = 
REMARK  7 active torsions:
REMARK  status: ('A' for Active; 'I' for Inactive)
REMARK    1  A    between atoms: O_1  and  C_2
REMARK    2  A    between atoms: C_2  and  C_3
REMARK    3  A    between atoms: C_3  and  C_4
REMARK    4  A    between atoms: C_4  and  C_5
REMARK    5  A    between atoms: C_10  and  C_11
REMARK    6  A    between atoms: N_17  and  C_18
REMARK    7  A    between atoms: C_18  and  C_19
REMARK                            x       y       z     vdW  Elec       q    Type
REMARK                         _______ _______ _______ _____ _____    ______ ____
ROOT
ATOM      1  C   UNL     1      -0.931  11.825  18.933  0.00  0.00    +0.000 C 
ATOM      2  C   UNL     1      -1.342  10.522  18.203  0.00  0.00    +0.000 C 
ATOM      3  C   UNL     1      -2.708  10.613  17.549  0.00  0.00    +0.000 C 
ATOM      4  N   UNL     1      -3.761  10.970  18.517  0.00  0.00    +0.000 NA
ATOM      5  C   UNL     1      -3.461  12.226  19.211  0.00  0.00    +0.000 C 
ATOM      6  C   UNL     1      -2.081  12.195  19.900  0.00  0.00    +0.000 C 
ENDROOT
BRANCH   1   7
ATOM      7  C   UNL     1      -0.728  12.980  17.920  0.00  0.00    +0.000 C 
BRANCH   7   8
ATOM      8  O   UNL     1      -0.664  14.241  18.576  0.00  0.00    +0.000 OA
ATOM      9  H   UNL     1      -1.465  14.732  18.324  0.00  0.00    +0.000 HD
ENDBRANCH   7   8
ENDBRANCH   1   7
BRANCH   1  10
ATOM     10  C   UNL     1       0.399  11.472  19.677  0.00  0.00    +0.000 C 
BRANCH  10  11
ATOM     11  C   UNL     1       1.049  10.126  19.423  0.00  0.00    +0.000 A 
ATOM     12  C   UNL     1       1.680   9.954  18.170  0.00  0.00    +0.000 A 
ATOM     13  C   UNL     1       2.293   8.755  17.812  0.00  0.00    +0.000 A 
ATOM     14  C   UNL     1       2.302   7.696  18.706  0.00  0.00    +0.000 A 
ATOM     15  C   UNL     1       1.664   7.832  19.937  0.00  0.00    +0.000 A 
ATOM     16  C   UNL     1       1.004   9.027  20.308  0.00  0.00    +0.000 A 
BRANCH  16  17
ATOM     17  C   UNL     1       0.251   8.970  21.625  0.00  0.00    +0.000 C 
ATOM     18  F   UNL     1       0.995   8.740  22.737  0.00  0.00    +0.000 F 
ATOM     19  F   UNL     1      -0.412  10.139  21.875  0.00  0.00    +0.000 F 
ATOM     20  F   UNL     1      -0.711   8.003  21.623  0.00  0.00    +0.000 F 
ENDBRANCH  16  17
ENDBRANCH  10  11
ENDBRANCH   1  10
BRANCH   4  21
ATOM     21  C   UNL     1      -5.008  11.061  17.754  0.00  0.00    +0.000 C 
BRANCH  21  22
ATOM     22  C   UNL     1      -6.316  10.990  18.514  0.00  0.00    +0.000 A 
ATOM     23  C   UNL     1      -6.700   9.729  19.041  0.00  0.00    +0.000 A 
ATOM     24  C   UNL     1      -7.395   9.654  20.238  0.00  0.00    +0.000 A 
ATOM     25  C   UNL     1      -7.687  10.853  20.833  0.00  0.00    +0.000 A 
ATOM     26  C   UNL     1      -7.570  12.083  20.194  0.00  0.00    +0.000 A 
ATOM     27  C   UNL     1      -6.882  12.176  19.003  0.00  0.00    +0.000 A 
ATOM     28  C   UNL     1      -7.915  13.144  21.173  0.00  0.00    +0.000 C 
ATOM     29  C   UNL     1      -7.342  12.369  22.355  0.00  0.00    +0.000 C 
ATOM     30  O   UNL     1      -7.841  11.007  22.202  0.00  0.00    +0.000 OA
ENDBRANCH  21  22
ENDBRANCH   4  21
TORSDOF 7
ENDMDL
MODEL 9
REMARK VINA RESULT:      -7.7      2.035      2.722
REMARK  Name = 
REMARK  7 active torsions:
REMARK  status: ('A' for Active; 'I' for Inactive)
REMARK    1  A    between atoms: O_1  and  C_2
REMARK    2  A    between atoms: C_2  and  C_3
REMARK    3  A    between atoms: C_3  and  C_4
REMARK    4  A    between atoms: C_4  and  C_5
REMARK    5  A    between atoms: C_10  and  C_11
REMARK    6  A    between atoms: N_17  and  C_18
REMARK    7  A    between atoms: C_18  and  C_19
REMARK                            x       y       z     vdW  Elec       q    Type
REMARK                         _______ _______ _______ _____ _____    ______ ____
ROOT
ATOM      1  C   UNL     1       2.760   5.298  18.527  0.00  0.00    +0.000 C 
ATOM      2  C   UNL     1       2.587   5.530  20.050  0.00  0.00    +0.000 C 
ATOM      3  C   UNL     1       1.642   6.671  20.373  0.00  0.00    +0.000 C 
ATOM      4  N   UNL     1       2.067   7.935  19.742  0.00  0.00    +0.000 NA
ATOM      5  C   UNL     1       2.200   7.801  18.289  0.00  0.00    +0.000 C 
ATOM      6  C   UNL     1       3.153   6.654  17.895  0.00  0.00    +0.000 C 
ENDROOT
BRANCH   1   7
ATOM      7  C   UNL     1       1.432   4.809  17.893  0.00  0.00    +0.000 C 
BRANCH   7   8
ATOM      8  O   UNL     1       1.515   3.444  17.502  0.00  0.00    +0.000 OA
ATOM      9  H   UNL     1       1.269   2.911  18.278  0.00  0.00    +0.000 HD
ENDBRANCH   7   8
ENDBRANCH   1   7
BRANCH   1  10
ATOM     10  C   UNL     1       3.887   4.220  18.405  0.00  0.00    +0.000 C 
BRANCH  10  11
ATOM     11  C   UNL     1       5.329   4.673  18.296  0.00  0.00    +0.000 A 
ATOM     12  C   UNL     1       5.916   5.205  19.466  0.00  0.00    +0.000 A 
ATOM     13  C   UNL     1       7.228   5.674  19.484  0.00  0.00    +0.000 A 
ATOM     14  C   UNL     1       7.994   5.613  18.331  0.00  0.00    +0.000 A 
ATOM     15  C   UNL     1       7.430   5.118  17.158  0.00  0.00    +0.000 A 
ATOM     16  C   UNL     1       6.089   4.669  17.106  0.00  0.00    +0.000 A 
BRANCH  16  17
ATOM     17  C   UNL     1       5.589   4.279  15.727  0.00  0.00    +0.000 C 
ATOM     18  F   UNL     1       6.004   5.055  14.692  0.00  0.00    +0.000 F 
ATOM     19  F   UNL     1       5.971   3.009  15.396  0.00  0.00    +0.000 F 
ATOM     20  F   UNL     1       4.226   4.276  15.658  0.00  0.00    +0.000 F 
ENDBRANCH  16  17
ENDBRANCH  10  11
ENDBRANCH   1  10
BRANCH   4  21
ATOM     21  C   UNL     1       1.056   8.933  20.101  0.00  0.00    +0.000 C 
BRANCH  21  22
ATOM     22  C   UNL     1       0.736  10.017  19.093  0.00  0.00    +0.000 A 
ATOM     23  C   UNL     1      -0.615  10.146  18.676  0.00  0.00    +0.000 A 
ATOM     24  C   UNL     1      -1.138  11.393  18.375  0.00  0.00    +0.000 A 
ATOM     25  C   UNL     1      -0.269  12.446  18.488  0.00  0.00    +0.000 A 
ATOM     26  C   UNL     1       1.110  12.303  18.616  0.00  0.00    +0.000 A 
ATOM     27  C   UNL     1       1.646  11.068  18.915  0.00  0.00    +0.000 A 
ATOM     28  C   UNL     1       1.700  13.655  18.771  0.00  0.00    +0.000 C 
ATOM     29  C   UNL     1       0.495  14.195  19.533  0.00  0.00    +0.000 C 
ATOM     30  O   UNL     1      -0.671  13.739  18.785  0.00  0.00    +0.000 OA
ENDBRANCH  21  22
ENDBRANCH   4  21
TORSDOF 7
ENDMDL
