MODEL 1
REMARK VINA RESULT:      -7.6      0.000      0.000
REMARK  Name = 
REMARK  7 active torsions:
REMARK  status: ('A' for Active; 'I' for Inactive)
REMARK    1  A    between atoms: C_1  and  C_2
REMARK    2  A    between atoms: C_5  and  C_6
REMARK    3  A    between atoms: C_7  and  C_8
REMARK    4  A    between atoms: N_11  and  C_12
REMARK    5  A    between atoms: C_12  and  C_13
REMARK    6  A    between atoms: C_13  and  C_14
REMARK    7  A    between atoms: C_13  and  N_15
REMARK                            x       y       z     vdW  Elec       q    Type
REMARK                         _______ _______ _______ _____ _____    ______ ____
ROOT
ATOM      1  C   UNL     1       3.791   6.072  17.972  0.00  0.00    +0.000 A 
ATOM      2  N   UNL     1       3.203   5.498  19.031  0.00  0.00    +0.000 NA
ATOM      3  C   UNL     1       2.367   6.210  19.826  0.00  0.00    +0.000 A 
ATOM      4  N   UNL     1       1.889   5.582  20.977  0.00  0.00    +0.000 N 
ATOM      5  C   UNL     1       2.068   7.547  19.452  0.00  0.00    +0.000 A 
ATOM      6  C   UNL     1       1.210   8.608  19.967  0.00  0.00    +0.000 A 
ATOM      7  C   UNL     1       1.350   9.778  19.232  0.00  0.00    +0.000 A 
ATOM      8  S   UNL     1       2.417   9.620  17.927  0.00  0.00    +0.000 S 
ATOM      9  C   UNL     1       2.748   7.999  18.326  0.00  0.00    +0.000 A 
ATOM     10  N   UNL     1       3.617   7.325  17.566  0.00  0.00    +0.000 NA
ATOM     11  C   UNL     1       0.635  11.071  19.478  0.00  0.00    +0.000 C 
ATOM     12  C   UNL     1       0.048  11.091  20.892  0.00  0.00    +0.000 C 
ATOM     13  C   UNL     1      -0.676   9.775  21.200  0.00  0.00    +0.000 C 
ATOM     14  C   UNL     1       0.275   8.559  21.146  0.00  0.00    +0.000 C 
ATOM     15  H   UNL     1       1.575   6.214  21.699  0.00  0.00    +0.000 HD
ENDROOT
BRANCH   1  22
ATOM     16  C   UNL     1       6.889   6.773  17.150  0.00  0.00    +0.000 C 
ATOM     17  C   UNL     1       6.094   5.552  16.867  0.00  0.00    +0.000 A 
ATOM     18  N   UNL     1       6.645   4.541  16.181  0.00  0.00    +0.000 NA
ATOM     19  N   UNL     1       5.673   3.622  16.118  0.00  0.00    +0.000 N 
ATOM     20  C   UNL     1       4.511   4.000  16.727  0.00  0.00    +0.000 A 
ATOM     21  C   UNL     1       3.307   3.134  16.722  0.00  0.00    +0.000 C 
ATOM     22  C   UNL     1       4.754   5.261  17.249  0.00  0.00    +0.000 A 
ATOM     23  H   UNL     1       5.867   2.756  15.625  0.00  0.00    +0.000 HD
ENDBRANCH   1  22
BRANCH   4  24
ATOM     24  C   UNL     1       2.654   4.411  21.441  0.00  0.00    +0.000 C 
BRANCH  24  25
ATOM     25  C   UNL     1       1.947   3.059  21.131  0.00  0.00    +0.000 C 
ATOM     26  C   UNL     1       0.774   3.259  20.171  0.00  0.00    +0.000 C 
BRANCH  25  27
ATOM     27  N   UNL     1       1.457   2.398  22.353  0.00  0.00    +0.000 NA
ATOM     28  H   UNL     1       0.449   2.520  22.428  0.00  0.00    +0.000 HD
ATOM     29  H   UNL     1       1.874   2.861  23.157  0.00  0.00    +0.000 HD
ENDBRANCH  25  27
ENDBRANCH  24  25
ENDBRANCH   4  24
TORSDOF 4
ENDMDL
MODEL 2
REMARK VINA RESULT:      -7.5      0.250      1.641
REMARK  Name = 
REMARK  7 active torsions:
REMARK  status: ('A' for Active; 'I' for Inactive)
REMARK    1  A    between atoms: C_1  and  C_2
REMARK    2  A    between atoms: C_5  and  C_6
REMARK    3  A    between atoms: C_7  and  C_8
REMARK    4  A    between atoms: N_11  and  C_12
REMARK    5  A    between atoms: C_12  and  C_13
REMARK    6  A    between atoms: C_13  and  C_14
REMARK    7  A    between atoms: C_13  and  N_15
REMARK                            x       y       z     vdW  Elec       q    Type
REMARK                         _______ _______ _______ _____ _____    ______ ____
ROOT
ATOM      1  C   UNL     1       3.655   6.226  17.980  0.00  0.00    +0.000 A 
ATOM      2  N   UNL     1       3.111   5.596  19.030  0.00  0.00    +0.000 NA
ATOM      3  C   UNL     1       2.295   6.259  19.886  0.00  0.00    +0.000 A 
ATOM      4  N   UNL     1       1.865   5.572  21.022  0.00  0.00    +0.000 N 
ATOM      5  C   UNL     1       1.967   7.608  19.584  0.00  0.00    +0.000 A 
ATOM      6  C   UNL     1       1.114   8.632  20.177  0.00  0.00    +0.000 A 
ATOM      7  C   UNL     1       1.214   9.836  19.493  0.00  0.00    +0.000 A 
ATOM      8  S   UNL     1       2.237   9.753  18.147  0.00  0.00    +0.000 S 
ATOM      9  C   UNL     1       2.602   8.120  18.458  0.00  0.00    +0.000 A 
ATOM     10  N   UNL     1       3.452   7.494  17.639  0.00  0.00    +0.000 NA
ATOM     11  C   UNL     1       0.493  11.106  19.824  0.00  0.00    +0.000 C 
ATOM     12  C   UNL     1      -0.044  11.054  21.256  0.00  0.00    +0.000 C 
ATOM     13  C   UNL     1      -0.741   9.715  21.527  0.00  0.00    +0.000 C 
ATOM     14  C   UNL     1       0.222   8.516  21.385  0.00  0.00    +0.000 C 
ATOM     15  H   UNL     1       1.569   6.166  21.783  0.00  0.00    +0.000 HD
ENDROOT
BRANCH   1  22
ATOM     16  C   UNL     1       3.317   3.246  16.651  0.00  0.00    +0.000 C 
ATOM     17  C   UNL     1       4.483   4.164  16.618  0.00  0.00    +0.000 A 
ATOM     18  N   UNL     1       5.600   3.800  15.972  0.00  0.00    +0.000 NA
ATOM     19  N   UNL     1       6.423   4.844  16.133  0.00  0.00    +0.000 N 
ATOM     20  C   UNL     1       5.888   5.866  16.863  0.00  0.00    +0.000 A 
ATOM     21  C   UNL     1       6.665   7.087  17.185  0.00  0.00    +0.000 C 
ATOM     22  C   UNL     1       4.602   5.463  17.187  0.00  0.00    +0.000 A 
ATOM     23  H   UNL     1       7.351   4.785  15.726  0.00  0.00    +0.000 HD
ENDBRANCH   1  22
BRANCH   4  24
ATOM     24  C   UNL     1       2.661   4.392  21.405  0.00  0.00    +0.000 C 
BRANCH  24  25
ATOM     25  C   UNL     1       1.916   3.048  21.154  0.00  0.00    +0.000 C 
ATOM     26  C   UNL     1       0.789   3.225  20.136  0.00  0.00    +0.000 C 
BRANCH  25  27
ATOM     27  N   UNL     1       1.354   2.487  22.396  0.00  0.00    +0.000 NA
ATOM     28  H   UNL     1       1.126   3.243  23.040  0.00  0.00    +0.000 HD
ATOM     29  H   UNL     1       2.069   1.920  22.843  0.00  0.00    +0.000 HD
ENDBRANCH  25  27
ENDBRANCH  24  25
ENDBRANCH   4  24
TORSDOF 4
ENDMDL
MODEL 3
REMARK VINA RESULT:      -7.1      3.051      6.810
REMARK  Name = 
REMARK  7 active torsions:
REMARK  status: ('A' for Active; 'I' for Inactive)
REMARK    1  A    between atoms: C_1  and  C_2
REMARK    2  A    between atoms: C_5  and  C_6
REMARK    3  A    between atoms: C_7  and  C_8
REMARK    4  A    between atoms: N_11  and  C_12
REMARK    5  A    between atoms: C_12  and  C_13
REMARK    6  A    between atoms: C_13  and  C_14
REMARK    7  A    between atoms: C_13  and  N_15
REMARK                            x       y       z     vdW  Elec       q    Type
REMARK                         _______ _______ _______ _____ _____    ______ ____
ROOT
ATOM      1  C   UNL     1       1.105  10.378  18.855  0.00  0.00    +0.000 A 
ATOM      2  N   UNL     1       0.734   9.767  19.988  0.00  0.00    +0.000 NA
ATOM      3  C   UNL     1       1.118   8.492  20.243  0.00  0.00    +0.000 A 
ATOM      4  N   UNL     1       0.593   7.880  21.382  0.00  0.00    +0.000 N 
ATOM      5  C   UNL     1       1.994   7.863  19.318  0.00  0.00    +0.000 A 
ATOM      6  C   UNL     1       2.673   6.574  19.235  0.00  0.00    +0.000 A 
ATOM      7  C   UNL     1       3.380   6.447  18.046  0.00  0.00    +0.000 A 
ATOM      8  S   UNL     1       3.303   7.832  17.076  0.00  0.00    +0.000 S 
ATOM      9  C   UNL     1       2.297   8.626  18.196  0.00  0.00    +0.000 A 
ATOM     10  N   UNL     1       1.880   9.862  17.907  0.00  0.00    +0.000 NA
ATOM     11  C   UNL     1       4.185   5.260  17.616  0.00  0.00    +0.000 C 
ATOM     12  C   UNL     1       3.797   4.030  18.440  0.00  0.00    +0.000 C 
ATOM     13  C   UNL     1       3.726   4.374  19.932  0.00  0.00    +0.000 C 
ATOM     14  C   UNL     1       2.658   5.448  20.234  0.00  0.00    +0.000 C 
ATOM     15  H   UNL     1       0.608   6.871  21.359  0.00  0.00    +0.000 HD
ENDROOT
BRANCH   1  22
ATOM     16  C   UNL     1       2.551  13.309  19.144  0.00  0.00    +0.000 C 
ATOM     17  C   UNL     1       1.155  12.983  18.759  0.00  0.00    +0.000 A 
ATOM     18  N   UNL     1       0.295  13.969  18.472  0.00  0.00    +0.000 NA
ATOM     19  N   UNL     1      -0.842  13.331  18.165  0.00  0.00    +0.000 N 
ATOM     20  C   UNL     1      -0.755  11.971  18.249  0.00  0.00    +0.000 A 
ATOM     21  C   UNL     1      -1.923  11.095  17.991  0.00  0.00    +0.000 C 
ATOM     22  C   UNL     1       0.552  11.701  18.622  0.00  0.00    +0.000 A 
ATOM     23  H   UNL     1      -1.651  13.891  17.918  0.00  0.00    +0.000 HD
ENDBRANCH   1  22
BRANCH   4  24
ATOM     24  C   UNL     1      -0.627   8.490  21.940  0.00  0.00    +0.000 C 
BRANCH  24  25
ATOM     25  C   UNL     1      -0.347   9.389  23.180  0.00  0.00    +0.000 C 
ATOM     26  C   UNL     1      -1.047  10.742  23.048  0.00  0.00    +0.000 C 
BRANCH  25  27
ATOM     27  N   UNL     1       1.095   9.614  23.383  0.00  0.00    +0.000 NA
ATOM     28  H   UNL     1       1.617   8.799  23.067  0.00  0.00    +0.000 HD
ATOM     29  H   UNL     1       1.267   9.710  24.381  0.00  0.00    +0.000 HD
ENDBRANCH  25  27
ENDBRANCH  24  25
ENDBRANCH   4  24
TORSDOF 4
ENDMDL
MODEL 4
REMARK VINA RESULT:      -6.9      6.313     10.083
REMARK  Name = 
REMARK  7 active torsions:
REMARK  status: ('A' for Active; 'I' for Inactive)
REMARK    1  A    between atoms: C_1  and  C_2
REMARK    2  A    between atoms: C_5  and  C_6
REMARK    3  A    between atoms: C_7  and  C_8
REMARK    4  A    between atoms: N_11  and  C_12
REMARK    5  A    between atoms: C_12  and  C_13
REMARK    6  A    between atoms: C_13  and  C_14
REMARK    7  A    between atoms: C_13  and  N_15
REMARK                            x       y       z     vdW  Elec       q    Type
REMARK                         _______ _______ _______ _____ _____    ______ ____
ROOT
ATOM      1  C   UNL     1      -2.840  13.375  22.141  0.00  0.00    +0.000 A 
ATOM      2  N   UNL     1      -1.668  12.796  21.847  0.00  0.00    +0.000 NA
ATOM      3  C   UNL     1      -1.517  12.086  20.701  0.00  0.00    +0.000 A 
ATOM      4  N   UNL     1      -0.309  11.410  20.521  0.00  0.00    +0.000 N 
ATOM      5  C   UNL     1      -2.605  12.054  19.789  0.00  0.00    +0.000 A 
ATOM      6  C   UNL     1      -2.843  11.483  18.468  0.00  0.00    +0.000 A 
ATOM      7  C   UNL     1      -4.148  11.701  18.046  0.00  0.00    +0.000 A 
ATOM      8  S   UNL     1      -5.059  12.610  19.147  0.00  0.00    +0.000 S 
ATOM      9  C   UNL     1      -3.750  12.708  20.230  0.00  0.00    +0.000 A 
ATOM     10  N   UNL     1      -3.929  13.363  21.381  0.00  0.00    +0.000 NA
ATOM     11  C   UNL     1      -4.749  11.250  16.751  0.00  0.00    +0.000 C 
ATOM     12  C   UNL     1      -3.889  10.151  16.123  0.00  0.00    +0.000 C 
ATOM     13  C   UNL     1      -2.405  10.534  16.156  0.00  0.00    +0.000 C 
ATOM     14  C   UNL     1      -1.882  10.718  17.598  0.00  0.00    +0.000 C 
ATOM     15  H   UNL     1      -0.354  10.642  19.868  0.00  0.00    +0.000 HD
ENDROOT
BRANCH   1  22
ATOM     16  C   UNL     1      -1.436  16.149  23.191  0.00  0.00    +0.000 C 
ATOM     17  C   UNL     1      -2.322  15.207  23.921  0.00  0.00    +0.000 A 
ATOM     18  N   UNL     1      -2.645  15.451  25.199  0.00  0.00    +0.000 NA
ATOM     19  N   UNL     1      -3.444  14.430  25.533  0.00  0.00    +0.000 N 
ATOM     20  C   UNL     1      -3.646  13.530  24.526  0.00  0.00    +0.000 A 
ATOM     21  C   UNL     1      -4.465  12.310  24.721  0.00  0.00    +0.000 C 
ATOM     22  C   UNL     1      -2.935  14.017  23.440  0.00  0.00    +0.000 A 
ATOM     23  H   UNL     1      -3.810  14.402  26.479  0.00  0.00    +0.000 HD
ENDBRANCH   1  22
BRANCH   4  24
ATOM     24  C   UNL     1       0.486  11.170  21.739  0.00  0.00    +0.000 C 
BRANCH  24  25
ATOM     25  C   UNL     1       0.186   9.794  22.401  0.00  0.00    +0.000 C 
ATOM     26  C   UNL     1      -0.146   8.736  21.347  0.00  0.00    +0.000 C 
BRANCH  25  27
ATOM     27  N   UNL     1      -0.928   9.875  23.363  0.00  0.00    +0.000 NA
ATOM     28  H   UNL     1      -0.558   9.996  24.305  0.00  0.00    +0.000 HD
ATOM     29  H   UNL     1      -1.428   8.990  23.350  0.00  0.00    +0.000 HD
ENDBRANCH  25  27
ENDBRANCH  24  25
ENDBRANCH   4  24
TORSDOF 4
ENDMDL
MODEL 5
REMARK VINA RESULT:      -6.8      4.425      7.443
REMARK  Name = 
REMARK  7 active torsions:
REMARK  status: ('A' for Active; 'I' for Inactive)
REMARK    1  A    between atoms: C_1  and  C_2
REMARK    2  A    between atoms: C_5  and  C_6
REMARK    3  A    between atoms: C_7  and  C_8
REMARK    4  A    between atoms: N_11  and  C_12
REMARK    5  A    between atoms: C_12  and  C_13
REMARK    6  A    between atoms: C_13  and  C_14
REMARK    7  A    between atoms: C_13  and  N_15
REMARK                            x       y       z     vdW  Elec       q    Type
REMARK                         _______ _______ _______ _____ _____    ______ ____
ROOT
ATOM      1  C   UNL     1       1.022  11.077  19.838  0.00  0.00    +0.000 A 
ATOM      2  N   UNL     1      -0.148  11.370  19.255  0.00  0.00    +0.000 NA
ATOM      3  C   UNL     1      -0.499  12.659  19.021  0.00  0.00    +0.000 A 
ATOM      4  N   UNL     1      -1.782  12.893  18.525  0.00  0.00    +0.000 N 
ATOM      5  C   UNL     1       0.446  13.673  19.329  0.00  0.00    +0.000 A 
ATOM      6  C   UNL     1       0.502  15.124  19.189  0.00  0.00    +0.000 A 
ATOM      7  C   UNL     1       1.672  15.643  19.729  0.00  0.00    +0.000 A 
ATOM      8  S   UNL     1       2.712  14.450  20.331  0.00  0.00    +0.000 S 
ATOM      9  C   UNL     1       1.618  13.213  19.920  0.00  0.00    +0.000 A 
ATOM     10  N   UNL     1       1.951  11.951  20.208  0.00  0.00    +0.000 NA
ATOM     11  C   UNL     1       2.065  17.087  19.773  0.00  0.00    +0.000 C 
ATOM     12  C   UNL     1       0.841  17.976  19.539  0.00  0.00    +0.000 C 
ATOM     13  C   UNL     1       0.018  17.468  18.349  0.00  0.00    +0.000 C 
ATOM     14  C   UNL     1      -0.524  16.041  18.580  0.00  0.00    +0.000 C 
ATOM     15  H   UNL     1      -2.130  13.826  18.688  0.00  0.00    +0.000 HD
ENDROOT
BRANCH   1  22
ATOM     16  C   UNL     1       2.231   8.705  17.921  0.00  0.00    +0.000 C 
ATOM     17  C   UNL     1       1.763   8.630  19.328  0.00  0.00    +0.000 A 
ATOM     18  N   UNL     1       1.806   7.462  19.984  0.00  0.00    +0.000 NA
ATOM     19  N   UNL     1       1.328   7.755  21.201  0.00  0.00    +0.000 N 
ATOM     20  C   UNL     1       0.970   9.063  21.357  0.00  0.00    +0.000 A 
ATOM     21  C   UNL     1       0.378   9.567  22.620  0.00  0.00    +0.000 C 
ATOM     22  C   UNL     1       1.258   9.678  20.148  0.00  0.00    +0.000 A 
ATOM     23  H   UNL     1       1.259   7.003  21.879  0.00  0.00    +0.000 HD
ENDBRANCH   1  22
BRANCH   4  24
ATOM     24  C   UNL     1      -2.758  11.805  18.714  0.00  0.00    +0.000 C 
BRANCH  24  25
ATOM     25  C   UNL     1      -3.220  11.161  17.374  0.00  0.00    +0.000 C 
ATOM     26  C   UNL     1      -3.237   9.635  17.473  0.00  0.00    +0.000 C 
BRANCH  25  27
ATOM     27  N   UNL     1      -2.358  11.556  16.245  0.00  0.00    +0.000 NA
ATOM     28  H   UNL     1      -2.727  12.400  15.812  0.00  0.00    +0.000 HD
ATOM     29  H   UNL     1      -2.391  10.820  15.544  0.00  0.00    +0.000 HD
ENDBRANCH  25  27
ENDBRANCH  24  25
ENDBRANCH   4  24
TORSDOF 4
ENDMDL
MODEL 6
REMARK VINA RESULT:      -6.8      3.034      6.957
REMARK  Name = 
REMARK  7 active torsions:
REMARK  status: ('A' for Active; 'I' for Inactive)
REMARK    1  A    between atoms: C_1  and  C_2
REMARK    2  A    between atoms: C_5  and  C_6
REMARK    3  A    between atoms: C_7  and  C_8
REMARK    4  A    between atoms: N_11  and  C_12
REMARK    5  A    between atoms: C_12  and  C_13
REMARK    6  A    between atoms: C_13  and  C_14
REMARK    7  A    between atoms: C_13  and  N_15
REMARK                            x       y       z     vdW  Elec       q    Type
REMARK                         _______ _______ _______ _____ _____    ______ ____
ROOT
ATOM      1  C   UNL     1       1.213  10.384  18.909  0.00  0.00    +0.000 A 
ATOM      2  N   UNL     1       0.801   9.772  20.028  0.00  0.00    +0.000 NA
ATOM      3  C   UNL     1       1.124   8.476  20.265  0.00  0.00    +0.000 A 
ATOM      4  N   UNL     1       0.559   7.870  21.388  0.00  0.00    +0.000 N 
ATOM      5  C   UNL     1       1.979   7.822  19.338  0.00  0.00    +0.000 A 
ATOM      6  C   UNL     1       2.599   6.505  19.240  0.00  0.00    +0.000 A 
ATOM      7  C   UNL     1       3.312   6.365  18.057  0.00  0.00    +0.000 A 
ATOM      8  S   UNL     1       3.309   7.768  17.109  0.00  0.00    +0.000 S 
ATOM      9  C   UNL     1       2.329   8.589  18.232  0.00  0.00    +0.000 A 
ATOM     10  N   UNL     1       1.972   9.848  17.960  0.00  0.00    +0.000 NA
ATOM     11  C   UNL     1       4.066   5.150  17.614  0.00  0.00    +0.000 C 
ATOM     12  C   UNL     1       3.614   3.925  18.413  0.00  0.00    +0.000 C 
ATOM     13  C   UNL     1       3.542   4.248  19.911  0.00  0.00    +0.000 C 
ATOM     14  C   UNL     1       2.521   5.365  20.220  0.00  0.00    +0.000 C 
ATOM     15  H   UNL     1       0.527   6.862  21.349  0.00  0.00    +0.000 HD
ENDROOT
BRANCH   1  22
ATOM     16  C   UNL     1      -1.865  11.425  18.452  0.00  0.00    +0.000 C 
ATOM     17  C   UNL     1      -0.601  12.205  18.476  0.00  0.00    +0.000 A 
ATOM     18  N   UNL     1      -0.633  13.532  18.292  0.00  0.00    +0.000 NA
ATOM     19  N   UNL     1       0.650  13.903  18.383  0.00  0.00    +0.000 N 
ATOM     20  C   UNL     1       1.513  12.870  18.609  0.00  0.00    +0.000 A 
ATOM     21  C   UNL     1       2.979  13.079  18.694  0.00  0.00    +0.000 C 
ATOM     22  C   UNL     1       0.724  11.734  18.694  0.00  0.00    +0.000 A 
ATOM     23  H   UNL     1       0.871  14.887  18.264  0.00  0.00    +0.000 HD
ENDBRANCH   1  22
BRANCH   4  24
ATOM     24  C   UNL     1      -0.638   8.527  21.945  0.00  0.00    +0.000 C 
BRANCH  24  25
ATOM     25  C   UNL     1      -0.322   9.429  23.174  0.00  0.00    +0.000 C 
ATOM     26  C   UNL     1      -0.976  10.804  23.030  0.00  0.00    +0.000 C 
BRANCH  25  27
ATOM     27  N   UNL     1       1.128   9.608  23.369  0.00  0.00    +0.000 NA
ATOM     28  H   UNL     1       1.402   9.218  24.269  0.00  0.00    +0.000 HD
ATOM     29  H   UNL     1       1.325  10.605  23.403  0.00  0.00    +0.000 HD
ENDBRANCH  25  27
ENDBRANCH  24  25
ENDBRANCH   4  24
TORSDOF 4
ENDMDL
MODEL 7
REMARK VINA RESULT:      -6.8      4.399      7.456
REMARK  Name = 
REMARK  7 active torsions:
REMARK  status: ('A' for Active; 'I' for Inactive)
REMARK    1  A    between atoms: C_1  and  C_2
REMARK    2  A    between atoms: C_5  and  C_6
REMARK    3  A    between atoms: C_7  and  C_8
REMARK    4  A    between atoms: N_11  and  C_12
REMARK    5  A    between atoms: C_12  and  C_13
REMARK    6  A    between atoms: C_13  and  C_14
REMARK    7  A    between atoms: C_13  and  N_15
REMARK                            x       y       z     vdW  Elec       q    Type
REMARK                         _______ _______ _______ _____ _____    ______ ____
ROOT
ATOM      1  C   UNL     1       0.955  11.013  19.802  0.00  0.00    +0.000 A 
ATOM      2  N   UNL     1      -0.197  11.329  19.193  0.00  0.00    +0.000 NA
ATOM      3  C   UNL     1      -0.507  12.623  18.932  0.00  0.00    +0.000 A 
ATOM      4  N   UNL     1      -1.774  12.885  18.409  0.00  0.00    +0.000 N 
ATOM      5  C   UNL     1       0.461  13.616  19.242  0.00  0.00    +0.000 A 
ATOM      6  C   UNL     1       0.560  15.062  19.081  0.00  0.00    +0.000 A 
ATOM      7  C   UNL     1       1.734  15.557  19.634  0.00  0.00    +0.000 A 
ATOM      8  S   UNL     1       2.729  14.345  20.273  0.00  0.00    +0.000 S 
ATOM      9  C   UNL     1       1.608  13.133  19.862  0.00  0.00    +0.000 A 
ATOM     10  N   UNL     1       1.901  11.867  20.174  0.00  0.00    +0.000 NA
ATOM     11  C   UNL     1       2.166  16.990  19.664  0.00  0.00    +0.000 C 
ATOM     12  C   UNL     1       0.972  17.909  19.393  0.00  0.00    +0.000 C 
ATOM     13  C   UNL     1       0.157  17.405  18.196  0.00  0.00    +0.000 C 
ATOM     14  C   UNL     1      -0.430  15.997  18.439  0.00  0.00    +0.000 C 
ATOM     15  H   UNL     1      -2.098  13.830  18.552  0.00  0.00    +0.000 HD
ENDROOT
BRANCH   1  22
ATOM     16  C   UNL     1       0.275   9.441  22.600  0.00  0.00    +0.000 C 
ATOM     17  C   UNL     1       0.875   8.916  21.348  0.00  0.00    +0.000 A 
ATOM     18  N   UNL     1       1.218   7.623  21.264  0.00  0.00    +0.000 NA
ATOM     19  N   UNL     1       1.707   7.496  20.024  0.00  0.00    +0.000 N 
ATOM     20  C   UNL     1       1.703   8.656  19.304  0.00  0.00    +0.000 A 
ATOM     21  C   UNL     1       2.248   8.723  17.926  0.00  0.00    +0.000 C 
ATOM     22  C   UNL     1       1.145   9.613  20.137  0.00  0.00    +0.000 A 
ATOM     23  H   UNL     1       2.044   6.583  19.736  0.00  0.00    +0.000 HD
ENDBRANCH   1  22
BRANCH   4  24
ATOM     24  C   UNL     1      -2.783  11.827  18.597  0.00  0.00    +0.000 C 
BRANCH  24  25
ATOM     25  C   UNL     1      -3.227  11.164  17.260  0.00  0.00    +0.000 C 
ATOM     26  C   UNL     1      -3.213   9.639  17.370  0.00  0.00    +0.000 C 
BRANCH  25  27
ATOM     27  N   UNL     1      -2.370  11.570  16.131  0.00  0.00    +0.000 NA
ATOM     28  H   UNL     1      -1.396  11.369  16.352  0.00  0.00    +0.000 HD
ATOM     29  H   UNL     1      -2.449  12.577  16.016  0.00  0.00    +0.000 HD
ENDBRANCH  25  27
ENDBRANCH  24  25
ENDBRANCH   4  24
TORSDOF 4
ENDMDL
MODEL 8
REMARK VINA RESULT:      -6.6      5.945      9.445
REMARK  Name = 
REMARK  7 active torsions:
REMARK  status: ('A' for Active; 'I' for Inactive)
REMARK    1  A    between atoms: C_1  and  C_2
REMARK    2  A    between atoms: C_5  and  C_6
REMARK    3  A    between atoms: C_7  and  C_8
REMARK    4  A    between atoms: N_11  and  C_12
REMARK    5  A    between atoms: C_12  and  C_13
REMARK    6  A    between atoms: C_13  and  C_14
REMARK    7  A    between atoms: C_13  and  N_15
REMARK                            x       y       z     vdW  Elec       q    Type
REMARK                         _______ _______ _______ _____ _____    ______ ____
ROOT
ATOM      1  C   UNL     1      -2.315  13.138  21.019  0.00  0.00    +0.000 A 
ATOM      2  N   UNL     1      -1.420  12.144  21.106  0.00  0.00    +0.000 NA
ATOM      3  C   UNL     1      -0.178  12.286  20.578  0.00  0.00    +0.000 A 
ATOM      4  N   UNL     1       0.657  11.169  20.597  0.00  0.00    +0.000 N 
ATOM      5  C   UNL     1       0.167  13.544  20.016  0.00  0.00    +0.000 A 
ATOM      6  C   UNL     1       1.363  14.126  19.417  0.00  0.00    +0.000 A 
ATOM      7  C   UNL     1       1.127  15.416  18.960  0.00  0.00    +0.000 A 
ATOM      8  S   UNL     1      -0.444  15.958  19.281  0.00  0.00    +0.000 S 
ATOM      9  C   UNL     1      -0.864  14.478  20.007  0.00  0.00    +0.000 A 
ATOM     10  N   UNL     1      -2.108  14.331  20.473  0.00  0.00    +0.000 NA
ATOM     11  C   UNL     1       2.117  16.312  18.282  0.00  0.00    +0.000 C 
ATOM     12  C   UNL     1       3.305  15.495  17.766  0.00  0.00    +0.000 C 
ATOM     13  C   UNL     1       3.802  14.519  18.838  0.00  0.00    +0.000 C 
ATOM     14  C   UNL     1       2.719  13.495  19.244  0.00  0.00    +0.000 C 
ATOM     15  H   UNL     1       1.402  11.191  19.916  0.00  0.00    +0.000 HD
ENDROOT
BRANCH   1  22
ATOM     16  C   UNL     1      -3.422  13.121  24.108  0.00  0.00    +0.000 C 
ATOM     17  C   UNL     1      -4.146  12.819  22.847  0.00  0.00    +0.000 A 
ATOM     18  N   UNL     1      -5.442  12.482  22.887  0.00  0.00    +0.000 NA
ATOM     19  N   UNL     1      -5.769  12.292  21.602  0.00  0.00    +0.000 N 
ATOM     20  C   UNL     1      -4.734  12.484  20.732  0.00  0.00    +0.000 A 
ATOM     21  C   UNL     1      -4.891  12.275  19.273  0.00  0.00    +0.000 C 
ATOM     22  C   UNL     1      -3.650  12.850  21.514  0.00  0.00    +0.000 A 
ATOM     23  H   UNL     1      -6.721  12.015  21.389  0.00  0.00    +0.000 HD
ENDBRANCH   1  22
BRANCH   4  24
ATOM     24  C   UNL     1      -0.009   9.865  20.773  0.00  0.00    +0.000 C 
BRANCH  24  25
ATOM     25  C   UNL     1       0.413   9.137  22.083  0.00  0.00    +0.000 C 
ATOM     26  C   UNL     1      -0.394   9.644  23.279  0.00  0.00    +0.000 C 
BRANCH  25  27
ATOM     27  N   UNL     1       1.849   9.305  22.370  0.00  0.00    +0.000 NA
ATOM     28  H   UNL     1       2.024   9.126  23.357  0.00  0.00    +0.000 HD
ATOM     29  H   UNL     1       2.100  10.274  22.193  0.00  0.00    +0.000 HD
ENDBRANCH  25  27
ENDBRANCH  24  25
ENDBRANCH   4  24
TORSDOF 4
ENDMDL
MODEL 9
REMARK VINA RESULT:      -6.6      6.323      9.082
REMARK  Name = 
REMARK  7 active torsions:
REMARK  status: ('A' for Active; 'I' for Inactive)
REMARK    1  A    between atoms: C_1  and  C_2
REMARK    2  A    between atoms: C_5  and  C_6
REMARK    3  A    between atoms: C_7  and  C_8
REMARK    4  A    between atoms: N_11  and  C_12
REMARK    5  A    between atoms: C_12  and  C_13
REMARK    6  A    between atoms: C_13  and  C_14
REMARK    7  A    between atoms: C_13  and  N_15
REMARK                            x       y       z     vdW  Elec       q    Type
REMARK                         _______ _______ _______ _____ _____    ______ ____
ROOT
ATOM      1  C   UNL     1      -1.556  12.637  19.806  0.00  0.00    +0.000 A 
ATOM      2  N   UNL     1      -2.426  12.078  18.954  0.00  0.00    +0.000 NA
ATOM      3  C   UNL     1      -3.727  11.919  19.301  0.00  0.00    +0.000 A 
ATOM      4  N   UNL     1      -4.546  11.220  18.413  0.00  0.00    +0.000 N 
ATOM      5  C   UNL     1      -4.152  12.443  20.551  0.00  0.00    +0.000 A 
ATOM      6  C   UNL     1      -5.420  12.540  21.265  0.00  0.00    +0.000 A 
ATOM      7  C   UNL     1      -5.255  13.106  22.522  0.00  0.00    +0.000 A 
ATOM      8  S   UNL     1      -3.658  13.572  22.836  0.00  0.00    +0.000 S 
ATOM      9  C   UNL     1      -3.137  13.001  21.320  0.00  0.00    +0.000 A 
ATOM     10  N   UNL     1      -1.841  13.113  21.013  0.00  0.00    +0.000 NA
ATOM     11  C   UNL     1      -6.332  13.351  23.533  0.00  0.00    +0.000 C 
ATOM     12  C   UNL     1      -7.573  12.519  23.198  0.00  0.00    +0.000 C 
ATOM     13  C   UNL     1      -7.917  12.630  21.708  0.00  0.00    +0.000 C 
ATOM     14  C   UNL     1      -6.783  12.095  20.806  0.00  0.00    +0.000 C 
ATOM     15  H   UNL     1      -5.375  10.825  18.832  0.00  0.00    +0.000 HD
ENDROOT
BRANCH   1  22
ATOM     16  C   UNL     1       0.272  15.182  18.832  0.00  0.00    +0.000 C 
ATOM     17  C   UNL     1       0.640  13.748  18.945  0.00  0.00    +0.000 A 
ATOM     18  N   UNL     1       1.878  13.350  18.622  0.00  0.00    +0.000 NA
ATOM     19  N   UNL     1       1.864  12.029  18.845  0.00  0.00    +0.000 N 
ATOM     20  C   UNL     1       0.664  11.554  19.292  0.00  0.00    +0.000 A 
ATOM     21  C   UNL     1       0.441  10.112  19.552  0.00  0.00    +0.000 C 
ATOM     22  C   UNL     1      -0.165  12.661  19.388  0.00  0.00    +0.000 A 
ATOM     23  H   UNL     1       2.711  11.505  18.656  0.00  0.00    +0.000 HD
ENDBRANCH   1  22
BRANCH   4  24
ATOM     24  C   UNL     1      -3.854  10.365  17.432  0.00  0.00    +0.000 C 
BRANCH  24  25
ATOM     25  C   UNL     1      -3.548  11.099  16.093  0.00  0.00    +0.000 C 
ATOM     26  C   UNL     1      -3.680  10.150  14.902  0.00  0.00    +0.000 C 
BRANCH  25  27
ATOM     27  N   UNL     1      -2.198  11.691  16.085  0.00  0.00    +0.000 NA
ATOM     28  H   UNL     1      -1.499  10.949  16.073  0.00  0.00    +0.000 HD
ATOM     29  H   UNL     1      -2.070  12.208  16.950  0.00  0.00    +0.000 HD
ENDBRANCH  25  27
ENDBRANCH  24  25
ENDBRANCH   4  24
TORSDOF 4
ENDMDL
