MODEL 1
REMARK VINA RESULT:      -8.6      0.000      0.000
REMARK  Name = 
REMARK  7 active torsions:
REMARK  status: ('A' for Active; 'I' for Inactive)
REMARK    1  A    between atoms: C_1  and  C_2
REMARK    2  A    between atoms: C_5  and  C_6
REMARK    3  A    between atoms: C_7  and  S_8
REMARK    4  A    between atoms: S_8  and  C_9
REMARK    5  A    between atoms: C_9  and  C_10
REMARK    6  A    between atoms: N_15  and  C_16
REMARK    7  A    between atoms: C_16  and  C_17
REMARK                            x       y       z     vdW  Elec       q    Type
REMARK                         _______ _______ _______ _____ _____    ______ ____
ROOT
ATOM      1  C   UNL     1       7.435   5.469  18.184  0.00  0.00    +0.000 C 
ATOM      2  O   UNL     1       7.452   4.505  18.950  0.00  0.00    +0.000 OA
ATOM      3  N   UNL     1       7.962   6.655  18.656  0.00  0.00    +0.000 N 
ATOM      4  C   UNL     1       7.984   7.873  18.024  0.00  0.00    +0.000 C 
ATOM      5  O   UNL     1       7.487   8.083  16.926  0.00  0.00    +0.000 OA
ATOM      6  N   UNL     1       8.656   8.846  18.720  0.00  0.00    +0.000 N 
ATOM      7  H   UNL     1       8.333   6.586  19.589  0.00  0.00    +0.000 HD
ATOM      8  H   UNL     1       8.776   8.746  19.720  0.00  0.00    +0.000 HD
ENDROOT
BRANCH   1   9
ATOM      9  C   UNL     1       6.880   5.448  16.752  0.00  0.00    +0.000 C 
BRANCH   9  10
ATOM     10  S   UNL     1       5.281   4.579  16.681  0.00  0.00    +0.000 S 
BRANCH  10  17
ATOM     11  C   UNL     1       2.249   8.851  17.850  0.00  0.00    +0.000 C 
ATOM     12  C   UNL     1       2.777   7.497  18.231  0.00  0.00    +0.000 A 
ATOM     13  C   UNL     1       2.393   6.915  19.440  0.00  0.00    +0.000 A 
ATOM     14  C   UNL     1       2.878   5.661  19.797  0.00  0.00    +0.000 A 
ATOM     15  C   UNL     1       3.756   4.961  18.953  0.00  0.00    +0.000 A 
ATOM     16  C   UNL     1       4.239   3.606  19.408  0.00  0.00    +0.000 C 
ATOM     17  C   UNL     1       4.158   5.533  17.721  0.00  0.00    +0.000 A 
ATOM     18  C   UNL     1       3.658   6.802  17.378  0.00  0.00    +0.000 A 
ENDBRANCH  10  17
ENDBRANCH   9  10
ENDBRANCH   1   9
BRANCH   6  19
ATOM     19  C   UNL     1       8.671  10.185  18.181  0.00  0.00    +0.000 C 
BRANCH  19  20
ATOM     20  C   UNL     1       9.831  10.990  18.691  0.00  0.00    +0.000 A 
ATOM     21  C   UNL     1      10.726  11.580  17.785  0.00  0.00    +0.000 A 
ATOM     22  C   UNL     1      11.790  12.355  18.246  0.00  0.00    +0.000 A 
ATOM     23  C   UNL     1      11.975  12.539  19.615  0.00  0.00    +0.000 A 
ATOM     24  C   UNL     1      11.098  11.948  20.522  0.00  0.00    +0.000 A 
ATOM     25  C   UNL     1      10.031  11.173  20.064  0.00  0.00    +0.000 A 
ENDBRANCH  19  20
ENDBRANCH   6  19
TORSDOF 5
ENDMDL
MODEL 2
REMARK VINA RESULT:      -8.5      0.896      1.547
REMARK  Name = 
REMARK  7 active torsions:
REMARK  status: ('A' for Active; 'I' for Inactive)
REMARK    1  A    between atoms: C_1  and  C_2
REMARK    2  A    between atoms: C_5  and  C_6
REMARK    3  A    between atoms: C_7  and  S_8
REMARK    4  A    between atoms: S_8  and  C_9
REMARK    5  A    between atoms: C_9  and  C_10
REMARK    6  A    between atoms: N_15  and  C_16
REMARK    7  A    between atoms: C_16  and  C_17
REMARK                            x       y       z     vdW  Elec       q    Type
REMARK                         _______ _______ _______ _____ _____    ______ ____
ROOT
ATOM      1  C   UNL     1       7.169   5.389  17.949  0.00  0.00    +0.000 C 
ATOM      2  O   UNL     1       7.316   4.362  18.612  0.00  0.00    +0.000 OA
ATOM      3  N   UNL     1       7.827   6.521  18.390  0.00  0.00    +0.000 N 
ATOM      4  C   UNL     1       7.756   7.788  17.869  0.00  0.00    +0.000 C 
ATOM      5  O   UNL     1       7.042   8.101  16.927  0.00  0.00    +0.000 OA
ATOM      6  N   UNL     1       8.596   8.685  18.481  0.00  0.00    +0.000 N 
ATOM      7  H   UNL     1       8.386   6.365  19.212  0.00  0.00    +0.000 HD
ATOM      8  H   UNL     1       8.923   8.497  19.420  0.00  0.00    +0.000 HD
ENDROOT
BRANCH   1   9
ATOM      9  C   UNL     1       6.320   5.503  16.674  0.00  0.00    +0.000 C 
BRANCH   9  10
ATOM     10  S   UNL     1       5.120   4.137  16.562  0.00  0.00    +0.000 S 
BRANCH  10  17
ATOM     11  C   UNL     1       2.204   7.379  19.690  0.00  0.00    +0.000 C 
ATOM     12  C   UNL     1       2.539   5.991  19.225  0.00  0.00    +0.000 A 
ATOM     13  C   UNL     1       1.857   4.895  19.754  0.00  0.00    +0.000 A 
ATOM     14  C   UNL     1       2.165   3.608  19.325  0.00  0.00    +0.000 A 
ATOM     15  C   UNL     1       3.158   3.388  18.357  0.00  0.00    +0.000 A 
ATOM     16  C   UNL     1       3.434   1.964  17.942  0.00  0.00    +0.000 C 
ATOM     17  C   UNL     1       3.861   4.487  17.806  0.00  0.00    +0.000 A 
ATOM     18  C   UNL     1       3.538   5.781  18.253  0.00  0.00    +0.000 A 
ENDBRANCH  10  17
ENDBRANCH   9  10
ENDBRANCH   1   9
BRANCH   6  19
ATOM     19  C   UNL     1       8.541  10.066  18.062  0.00  0.00    +0.000 C 
BRANCH  19  20
ATOM     20  C   UNL     1       9.647  10.885  18.662  0.00  0.00    +0.000 A 
ATOM     21  C   UNL     1       9.694  11.089  20.050  0.00  0.00    +0.000 A 
ATOM     22  C   UNL     1      10.734  11.823  20.622  0.00  0.00    +0.000 A 
ATOM     23  C   UNL     1      11.730  12.365  19.812  0.00  0.00    +0.000 A 
ATOM     24  C   UNL     1      11.686  12.177  18.432  0.00  0.00    +0.000 A 
ATOM     25  C   UNL     1      10.648  11.442  17.857  0.00  0.00    +0.000 A 
ENDBRANCH  19  20
ENDBRANCH   6  19
TORSDOF 5
ENDMDL
MODEL 3
REMARK VINA RESULT:      -8.3      0.970      1.251
REMARK  Name = 
REMARK  7 active torsions:
REMARK  status: ('A' for Active; 'I' for Inactive)
REMARK    1  A    between atoms: C_1  and  C_2
REMARK    2  A    between atoms: C_5  and  C_6
REMARK    3  A    between atoms: C_7  and  S_8
REMARK    4  A    between atoms: S_8  and  C_9
REMARK    5  A    between atoms: C_9  and  C_10
REMARK    6  A    between atoms: N_15  and  C_16
REMARK    7  A    between atoms: C_16  and  C_17
REMARK                            x       y       z     vdW  Elec       q    Type
REMARK                         _______ _______ _______ _____ _____    ______ ____
ROOT
ATOM      1  C   UNL     1       7.018   5.387  18.033  0.00  0.00    +0.000 C 
ATOM      2  O   UNL     1       7.155   4.357  18.693  0.00  0.00    +0.000 OA
ATOM      3  N   UNL     1       7.733   6.495  18.442  0.00  0.00    +0.000 N 
ATOM      4  C   UNL     1       7.686   7.763  17.920  0.00  0.00    +0.000 C 
ATOM      5  O   UNL     1       6.946   8.099  17.006  0.00  0.00    +0.000 OA
ATOM      6  N   UNL     1       8.581   8.632  18.493  0.00  0.00    +0.000 N 
ATOM      7  H   UNL     1       8.320   6.321  19.241  0.00  0.00    +0.000 HD
ATOM      8  H   UNL     1       8.940   8.434  19.418  0.00  0.00    +0.000 HD
ENDROOT
BRANCH   1   9
ATOM      9  C   UNL     1       6.122   5.528  16.793  0.00  0.00    +0.000 C 
BRANCH   9  10
ATOM     10  S   UNL     1       4.929   4.155  16.688  0.00  0.00    +0.000 S 
BRANCH  10  17
ATOM     11  C   UNL     1       2.115   7.356  19.949  0.00  0.00    +0.000 C 
ATOM     12  C   UNL     1       2.406   5.978  19.426  0.00  0.00    +0.000 A 
ATOM     13  C   UNL     1       1.688   4.883  19.908  0.00  0.00    +0.000 A 
ATOM     14  C   UNL     1       1.955   3.606  19.426  0.00  0.00    +0.000 A 
ATOM     15  C   UNL     1       2.942   3.395  18.449  0.00  0.00    +0.000 A 
ATOM     16  C   UNL     1       3.172   1.982  17.975  0.00  0.00    +0.000 C 
ATOM     17  C   UNL     1       3.681   4.493  17.945  0.00  0.00    +0.000 A 
ATOM     18  C   UNL     1       3.399   5.776  18.446  0.00  0.00    +0.000 A 
ENDBRANCH  10  17
ENDBRANCH   9  10
ENDBRANCH   1   9
BRANCH   6  19
ATOM     19  C   UNL     1       8.559  10.013  18.071  0.00  0.00    +0.000 C 
BRANCH  19  20
ATOM     20  C   UNL     1       9.668  10.813  18.690  0.00  0.00    +0.000 A 
ATOM     21  C   UNL     1      10.687  11.339  17.881  0.00  0.00    +0.000 A 
ATOM     22  C   UNL     1      11.707  12.110  18.440  0.00  0.00    +0.000 A 
ATOM     23  C   UNL     1      11.722  12.353  19.812  0.00  0.00    +0.000 A 
ATOM     24  C   UNL     1      10.721  11.826  20.625  0.00  0.00    +0.000 A 
ATOM     25  C   UNL     1       9.698  11.056  20.068  0.00  0.00    +0.000 A 
ENDBRANCH  19  20
ENDBRANCH   6  19
TORSDOF 5
ENDMDL
MODEL 4
REMARK VINA RESULT:      -8.3      1.066      2.549
REMARK  Name = 
REMARK  7 active torsions:
REMARK  status: ('A' for Active; 'I' for Inactive)
REMARK    1  A    between atoms: C_1  and  C_2
REMARK    2  A    between atoms: C_5  and  C_6
REMARK    3  A    between atoms: C_7  and  S_8
REMARK    4  A    between atoms: S_8  and  C_9
REMARK    5  A    between atoms: C_9  and  C_10
REMARK    6  A    between atoms: N_15  and  C_16
REMARK    7  A    between atoms: C_16  and  C_17
REMARK                            x       y       z     vdW  Elec       q    Type
REMARK                         _______ _______ _______ _____ _____    ______ ____
ROOT
ATOM      1  C   UNL     1       7.395   5.655  18.269  0.00  0.00    +0.000 C 
ATOM      2  O   UNL     1       7.370   4.708  19.055  0.00  0.00    +0.000 OA
ATOM      3  N   UNL     1       7.972   6.827  18.715  0.00  0.00    +0.000 N 
ATOM      4  C   UNL     1       8.047   8.029  18.057  0.00  0.00    +0.000 C 
ATOM      5  O   UNL     1       7.559   8.236  16.955  0.00  0.00    +0.000 OA
ATOM      6  N   UNL     1       8.760   8.987  18.733  0.00  0.00    +0.000 N 
ATOM      7  H   UNL     1       8.339   6.763  19.650  0.00  0.00    +0.000 HD
ATOM      8  H   UNL     1       8.875   8.904  19.735  0.00  0.00    +0.000 HD
ENDROOT
BRANCH   1   9
ATOM      9  C   UNL     1       6.841   5.627  16.837  0.00  0.00    +0.000 C 
BRANCH   9  10
ATOM     10  S   UNL     1       5.192   6.399  16.757  0.00  0.00    +0.000 S 
BRANCH  10  17
ATOM     11  C   UNL     1       3.628   1.459  18.153  0.00  0.00    +0.000 C 
ATOM     12  C   UNL     1       3.365   2.937  18.121  0.00  0.00    +0.000 A 
ATOM     13  C   UNL     1       2.196   3.449  18.687  0.00  0.00    +0.000 A 
ATOM     14  C   UNL     1       1.949   4.818  18.661  0.00  0.00    +0.000 A 
ATOM     15  C   UNL     1       2.864   5.705  18.071  0.00  0.00    +0.000 A 
ATOM     16  C   UNL     1       2.526   7.175  18.082  0.00  0.00    +0.000 C 
ATOM     17  C   UNL     1       4.056   5.206  17.492  0.00  0.00    +0.000 A 
ATOM     18  C   UNL     1       4.289   3.820  17.526  0.00  0.00    +0.000 A 
ENDBRANCH  10  17
ENDBRANCH   9  10
ENDBRANCH   1   9
BRANCH   6  19
ATOM     19  C   UNL     1       8.831  10.313  18.165  0.00  0.00    +0.000 C 
BRANCH  19  20
ATOM     20  C   UNL     1       9.992  11.098  18.703  0.00  0.00    +0.000 A 
ATOM     21  C   UNL     1      10.106  11.324  20.083  0.00  0.00    +0.000 A 
ATOM     22  C   UNL     1      11.196  12.026  20.598  0.00  0.00    +0.000 A 
ATOM     23  C   UNL     1      12.176  12.516  19.737  0.00  0.00    +0.000 A 
ATOM     24  C   UNL     1      12.067  12.306  18.364  0.00  0.00    +0.000 A 
ATOM     25  C   UNL     1      10.978  11.603  17.846  0.00  0.00    +0.000 A 
ENDBRANCH  19  20
ENDBRANCH   6  19
TORSDOF 5
ENDMDL
MODEL 5
REMARK VINA RESULT:      -8.1      4.925      7.435
REMARK  Name = 
REMARK  7 active torsions:
REMARK  status: ('A' for Active; 'I' for Inactive)
REMARK    1  A    between atoms: C_1  and  C_2
REMARK    2  A    between atoms: C_5  and  C_6
REMARK    3  A    between atoms: C_7  and  S_8
REMARK    4  A    between atoms: S_8  and  C_9
REMARK    5  A    between atoms: C_9  and  C_10
REMARK    6  A    between atoms: N_15  and  C_16
REMARK    7  A    between atoms: C_16  and  C_17
REMARK                            x       y       z     vdW  Elec       q    Type
REMARK                         _______ _______ _______ _____ _____    ______ ____
ROOT
ATOM      1  C   UNL     1       6.518   4.527  15.966  0.00  0.00    +0.000 C 
ATOM      2  O   UNL     1       7.720   4.406  15.730  0.00  0.00    +0.000 OA
ATOM      3  N   UNL     1       5.874   3.438  16.519  0.00  0.00    +0.000 N 
ATOM      4  C   UNL     1       4.537   3.306  16.796  0.00  0.00    +0.000 C 
ATOM      5  O   UNL     1       3.699   4.161  16.544  0.00  0.00    +0.000 OA
ATOM      6  N   UNL     1       4.215   2.129  17.424  0.00  0.00    +0.000 N 
ATOM      7  H   UNL     1       6.485   2.657  16.694  0.00  0.00    +0.000 HD
ATOM      8  H   UNL     1       4.836   1.335  17.337  0.00  0.00    +0.000 HD
ENDROOT
BRANCH   1   9
ATOM      9  C   UNL     1       5.689   5.791  15.698  0.00  0.00    +0.000 C 
BRANCH   9  10
ATOM     10  S   UNL     1       5.949   7.034  17.005  0.00  0.00    +0.000 S 
BRANCH  10  17
ATOM     11  C   UNL     1       1.073   9.105  17.860  0.00  0.00    +0.000 C 
ATOM     12  C   UNL     1       2.148   8.129  18.244  0.00  0.00    +0.000 A 
ATOM     13  C   UNL     1       1.949   7.260  19.318  0.00  0.00    +0.000 A 
ATOM     14  C   UNL     1       2.941   6.354  19.677  0.00  0.00    +0.000 A 
ATOM     15  C   UNL     1       4.153   6.294  18.969  0.00  0.00    +0.000 A 
ATOM     16  C   UNL     1       5.181   5.285  19.417  0.00  0.00    +0.000 C 
ATOM     17  C   UNL     1       4.375   7.166  17.875  0.00  0.00    +0.000 A 
ATOM     18  C   UNL     1       3.361   8.077  17.529  0.00  0.00    +0.000 A 
ENDBRANCH  10  17
ENDBRANCH   9  10
ENDBRANCH   1   9
BRANCH   6  19
ATOM     19  C   UNL     1       2.822   1.854  17.688  0.00  0.00    +0.000 C 
BRANCH  19  20
ATOM     20  C   UNL     1       2.375   2.411  19.008  0.00  0.00    +0.000 A 
ATOM     21  C   UNL     1       1.133   3.057  19.112  0.00  0.00    +0.000 A 
ATOM     22  C   UNL     1       0.693   3.552  20.340  0.00  0.00    +0.000 A 
ATOM     23  C   UNL     1       1.494   3.413  21.472  0.00  0.00    +0.000 A 
ATOM     24  C   UNL     1       2.733   2.782  21.377  0.00  0.00    +0.000 A 
ATOM     25  C   UNL     1       3.175   2.285  20.151  0.00  0.00    +0.000 A 
ENDBRANCH  19  20
ENDBRANCH   6  19
TORSDOF 5
ENDMDL
MODEL 6
REMARK VINA RESULT:      -8.1      4.981      7.477
REMARK  Name = 
REMARK  7 active torsions:
REMARK  status: ('A' for Active; 'I' for Inactive)
REMARK    1  A    between atoms: C_1  and  C_2
REMARK    2  A    between atoms: C_5  and  C_6
REMARK    3  A    between atoms: C_7  and  S_8
REMARK    4  A    between atoms: S_8  and  C_9
REMARK    5  A    between atoms: C_9  and  C_10
REMARK    6  A    between atoms: N_15  and  C_16
REMARK    7  A    between atoms: C_16  and  C_17
REMARK                            x       y       z     vdW  Elec       q    Type
REMARK                         _______ _______ _______ _____ _____    ______ ____
ROOT
ATOM      1  C   UNL     1       6.365   4.501  15.935  0.00  0.00    +0.000 C 
ATOM      2  O   UNL     1       7.562   4.398  15.667  0.00  0.00    +0.000 OA
ATOM      3  N   UNL     1       5.753   3.401  16.505  0.00  0.00    +0.000 N 
ATOM      4  C   UNL     1       4.425   3.249  16.817  0.00  0.00    +0.000 C 
ATOM      5  O   UNL     1       3.568   4.091  16.589  0.00  0.00    +0.000 OA
ATOM      6  N   UNL     1       4.138   2.066  17.451  0.00  0.00    +0.000 N 
ATOM      7  H   UNL     1       6.380   2.630  16.662  0.00  0.00    +0.000 HD
ATOM      8  H   UNL     1       4.769   1.283  17.348  0.00  0.00    +0.000 HD
ENDROOT
BRANCH   1   9
ATOM      9  C   UNL     1       5.510   5.753  15.691  0.00  0.00    +0.000 C 
BRANCH   9  10
ATOM     10  S   UNL     1       5.816   7.014  16.970  0.00  0.00    +0.000 S 
BRANCH  10  17
ATOM     11  C   UNL     1       1.012   9.223  17.889  0.00  0.00    +0.000 C 
ATOM     12  C   UNL     1       2.066   8.220  18.261  0.00  0.00    +0.000 A 
ATOM     13  C   UNL     1       1.860   7.362  19.343  0.00  0.00    +0.000 A 
ATOM     14  C   UNL     1       2.833   6.430  19.691  0.00  0.00    +0.000 A 
ATOM     15  C   UNL     1       4.031   6.334  18.965  0.00  0.00    +0.000 A 
ATOM     16  C   UNL     1       5.037   5.299  19.402  0.00  0.00    +0.000 C 
ATOM     17  C   UNL     1       4.260   7.194  17.863  0.00  0.00    +0.000 A 
ATOM     18  C   UNL     1       3.266   8.131  17.528  0.00  0.00    +0.000 A 
ENDBRANCH  10  17
ENDBRANCH   9  10
ENDBRANCH   1   9
BRANCH   6  19
ATOM     19  C   UNL     1       2.757   1.771  17.752  0.00  0.00    +0.000 C 
BRANCH  19  20
ATOM     20  C   UNL     1       2.330   2.342  19.073  0.00  0.00    +0.000 A 
ATOM     21  C   UNL     1       3.174   2.234  20.189  0.00  0.00    +0.000 A 
ATOM     22  C   UNL     1       2.801   2.788  21.414  0.00  0.00    +0.000 A 
ATOM     23  C   UNL     1       1.579   3.446  21.537  0.00  0.00    +0.000 A 
ATOM     24  C   UNL     1       0.729   3.549  20.437  0.00  0.00    +0.000 A 
ATOM     25  C   UNL     1       1.100   2.998  19.210  0.00  0.00    +0.000 A 
ENDBRANCH  19  20
ENDBRANCH   6  19
TORSDOF 5
ENDMDL
MODEL 7
REMARK VINA RESULT:      -8.0      1.180      1.269
REMARK  Name = 
REMARK  7 active torsions:
REMARK  status: ('A' for Active; 'I' for Inactive)
REMARK    1  A    between atoms: C_1  and  C_2
REMARK    2  A    between atoms: C_5  and  C_6
REMARK    3  A    between atoms: C_7  and  S_8
REMARK    4  A    between atoms: S_8  and  C_9
REMARK    5  A    between atoms: C_9  and  C_10
REMARK    6  A    between atoms: N_15  and  C_16
REMARK    7  A    between atoms: C_16  and  C_17
REMARK                            x       y       z     vdW  Elec       q    Type
REMARK                         _______ _______ _______ _____ _____    ______ ____
ROOT
ATOM      1  C   UNL     1       7.746   5.884  18.500  0.00  0.00    +0.000 C 
ATOM      2  O   UNL     1       7.797   4.986  19.340  0.00  0.00    +0.000 OA
ATOM      3  N   UNL     1       8.234   7.121  18.872  0.00  0.00    +0.000 N 
ATOM      4  C   UNL     1       8.214   8.284  18.144  0.00  0.00    +0.000 C 
ATOM      5  O   UNL     1       7.708   8.388  17.035  0.00  0.00    +0.000 OA
ATOM      6  N   UNL     1       8.854   9.332  18.757  0.00  0.00    +0.000 N 
ATOM      7  H   UNL     1       8.608   7.140  19.806  0.00  0.00    +0.000 HD
ATOM      8  H   UNL     1       8.979   9.317  19.761  0.00  0.00    +0.000 HD
ENDROOT
BRANCH   1   9
ATOM      9  C   UNL     1       7.190   5.730  17.076  0.00  0.00    +0.000 C 
BRANCH   9  10
ATOM     10  S   UNL     1       6.034   4.325  16.973  0.00  0.00    +0.000 S 
BRANCH  10  17
ATOM     11  C   UNL     1       2.549   8.269  18.023  0.00  0.00    +0.000 C 
ATOM     12  C   UNL     1       2.849   6.800  17.930  0.00  0.00    +0.000 A 
ATOM     13  C   UNL     1       1.854   5.866  18.219  0.00  0.00    +0.000 A 
ATOM     14  C   UNL     1       2.127   4.505  18.134  0.00  0.00    +0.000 A 
ATOM     15  C   UNL     1       3.400   4.047  17.756  0.00  0.00    +0.000 A 
ATOM     16  C   UNL     1       3.620   2.557  17.686  0.00  0.00    +0.000 C 
ATOM     17  C   UNL     1       4.424   4.979  17.458  0.00  0.00    +0.000 A 
ATOM     18  C   UNL     1       4.130   6.350  17.551  0.00  0.00    +0.000 A 
ENDBRANCH  10  17
ENDBRANCH   9  10
ENDBRANCH   1   9
BRANCH   6  19
ATOM     19  C   UNL     1       8.822  10.624  18.111  0.00  0.00    +0.000 C 
BRANCH  19  20
ATOM     20  C   UNL     1       9.671  11.635  18.825  0.00  0.00    +0.000 A 
ATOM     21  C   UNL     1      10.957  11.286  19.264  0.00  0.00    +0.000 A 
ATOM     22  C   UNL     1      11.767  12.227  19.902  0.00  0.00    +0.000 A 
ATOM     23  C   UNL     1      11.294  13.520  20.114  0.00  0.00    +0.000 A 
ATOM     24  C   UNL     1      10.014  13.874  19.691  0.00  0.00    +0.000 A 
ATOM     25  C   UNL     1       9.203  12.936  19.052  0.00  0.00    +0.000 A 
ENDBRANCH  19  20
ENDBRANCH   6  19
TORSDOF 5
ENDMDL
MODEL 8
REMARK VINA RESULT:      -8.0      1.641      2.736
REMARK  Name = 
REMARK  7 active torsions:
REMARK  status: ('A' for Active; 'I' for Inactive)
REMARK    1  A    between atoms: C_1  and  C_2
REMARK    2  A    between atoms: C_5  and  C_6
REMARK    3  A    between atoms: C_7  and  S_8
REMARK    4  A    between atoms: S_8  and  C_9
REMARK    5  A    between atoms: C_9  and  C_10
REMARK    6  A    between atoms: N_15  and  C_16
REMARK    7  A    between atoms: C_16  and  C_17
REMARK                            x       y       z     vdW  Elec       q    Type
REMARK                         _______ _______ _______ _____ _____    ______ ____
ROOT
ATOM      1  C   UNL     1       6.936   5.274  16.153  0.00  0.00    +0.000 C 
ATOM      2  O   UNL     1       6.970   4.805  15.015  0.00  0.00    +0.000 OA
ATOM      3  N   UNL     1       7.492   6.525  16.334  0.00  0.00    +0.000 N 
ATOM      4  C   UNL     1       7.641   7.213  17.511  0.00  0.00    +0.000 C 
ATOM      5  O   UNL     1       7.318   6.774  18.606  0.00  0.00    +0.000 OA
ATOM      6  N   UNL     1       8.158   8.475  17.352  0.00  0.00    +0.000 N 
ATOM      7  H   UNL     1       7.849   6.931  15.485  0.00  0.00    +0.000 HD
ATOM      8  H   UNL     1       8.692   8.690  16.521  0.00  0.00    +0.000 HD
ENDROOT
BRANCH   1   9
ATOM      9  C   UNL     1       6.319   4.578  17.375  0.00  0.00    +0.000 C 
BRANCH   9  10
ATOM     10  S   UNL     1       4.629   4.000  17.017  0.00  0.00    +0.000 S 
BRANCH  10  17
ATOM     11  C   UNL     1       1.933   3.060  21.561  0.00  0.00    +0.000 C 
ATOM     12  C   UNL     1       2.408   4.030  20.517  0.00  0.00    +0.000 A 
ATOM     13  C   UNL     1       2.087   5.384  20.626  0.00  0.00    +0.000 A 
ATOM     14  C   UNL     1       2.525   6.286  19.662  0.00  0.00    +0.000 A 
ATOM     15  C   UNL     1       3.295   5.855  18.569  0.00  0.00    +0.000 A 
ATOM     16  C   UNL     1       3.734   6.892  17.566  0.00  0.00    +0.000 C 
ATOM     17  C   UNL     1       3.633   4.486  18.440  0.00  0.00    +0.000 A 
ATOM     18  C   UNL     1       3.179   3.589  19.423  0.00  0.00    +0.000 A 
ENDBRANCH  10  17
ENDBRANCH   9  10
ENDBRANCH   1   9
BRANCH   6  19
ATOM     19  C   UNL     1       8.430   9.255  18.537  0.00  0.00    +0.000 C 
BRANCH  19  20
ATOM     20  C   UNL     1       9.040  10.587  18.211  0.00  0.00    +0.000 A 
ATOM     21  C   UNL     1       8.227  11.639  17.762  0.00  0.00    +0.000 A 
ATOM     22  C   UNL     1       8.777  12.891  17.485  0.00  0.00    +0.000 A 
ATOM     23  C   UNL     1      10.146  13.099  17.645  0.00  0.00    +0.000 A 
ATOM     24  C   UNL     1      10.964  12.057  18.080  0.00  0.00    +0.000 A 
ATOM     25  C   UNL     1      10.415  10.805  18.359  0.00  0.00    +0.000 A 
ENDBRANCH  19  20
ENDBRANCH   6  19
TORSDOF 5
ENDMDL
MODEL 9
REMARK VINA RESULT:      -7.9      1.506      2.113
REMARK  Name = 
REMARK  7 active torsions:
REMARK  status: ('A' for Active; 'I' for Inactive)
REMARK    1  A    between atoms: C_1  and  C_2
REMARK    2  A    between atoms: C_5  and  C_6
REMARK    3  A    between atoms: C_7  and  S_8
REMARK    4  A    between atoms: S_8  and  C_9
REMARK    5  A    between atoms: C_9  and  C_10
REMARK    6  A    between atoms: N_15  and  C_16
REMARK    7  A    between atoms: C_16  and  C_17
REMARK                            x       y       z     vdW  Elec       q    Type
REMARK                         _______ _______ _______ _____ _____    ______ ____
ROOT
ATOM      1  C   UNL     1       6.184   6.545  16.625  0.00  0.00    +0.000 C 
ATOM      2  O   UNL     1       5.471   6.508  15.622  0.00  0.00    +0.000 OA
ATOM      3  N   UNL     1       6.835   7.735  16.889  0.00  0.00    +0.000 N 
ATOM      4  C   UNL     1       7.734   7.994  17.892  0.00  0.00    +0.000 C 
ATOM      5  O   UNL     1       8.121   7.157  18.696  0.00  0.00    +0.000 OA
ATOM      6  N   UNL     1       8.145   9.302  17.943  0.00  0.00    +0.000 N 
ATOM      7  H   UNL     1       6.624   8.462  16.226  0.00  0.00    +0.000 HD
ATOM      8  H   UNL     1       8.069   9.878  17.114  0.00  0.00    +0.000 HD
ENDROOT
BRANCH   1   9
ATOM      9  C   UNL     1       6.398   5.378  17.599  0.00  0.00    +0.000 C 
BRANCH   9  10
ATOM     10  S   UNL     1       5.198   4.042  17.295  0.00  0.00    +0.000 S 
BRANCH  10  17
ATOM     11  C   UNL     1       2.050   7.220  20.259  0.00  0.00    +0.000 C 
ATOM     12  C   UNL     1       2.379   5.851  19.739  0.00  0.00    +0.000 A 
ATOM     13  C   UNL     1       1.584   4.760  20.094  0.00  0.00    +0.000 A 
ATOM     14  C   UNL     1       1.886   3.490  19.613  0.00  0.00    +0.000 A 
ATOM     15  C   UNL     1       2.986   3.282  18.765  0.00  0.00    +0.000 A 
ATOM     16  C   UNL     1       3.248   1.877  18.284  0.00  0.00    +0.000 C 
ATOM     17  C   UNL     1       3.805   4.375  18.391  0.00  0.00    +0.000 A 
ATOM     18  C   UNL     1       3.486   5.651  18.889  0.00  0.00    +0.000 A 
ENDBRANCH  10  17
ENDBRANCH   9  10
ENDBRANCH   1   9
BRANCH   6  19
ATOM     19  C   UNL     1       9.153   9.664  18.912  0.00  0.00    +0.000 C 
BRANCH  19  20
ATOM     20  C   UNL     1       9.741  11.018  18.639  0.00  0.00    +0.000 A 
ATOM     21  C   UNL     1      11.021  11.336  19.119  0.00  0.00    +0.000 A 
ATOM     22  C   UNL     1      11.591  12.580  18.847  0.00  0.00    +0.000 A 
ATOM     23  C   UNL     1      10.884  13.519  18.099  0.00  0.00    +0.000 A 
ATOM     24  C   UNL     1       9.608  13.217  17.626  0.00  0.00    +0.000 A 
ATOM     25  C   UNL     1       9.036  11.973  17.896  0.00  0.00    +0.000 A 
ENDBRANCH  19  20
ENDBRANCH   6  19
TORSDOF 5
ENDMDL
