MODEL 1
REMARK VINA RESULT:      -7.7      0.000      0.000
REMARK  Name = 
REMARK  7 active torsions:
REMARK  status: ('A' for Active; 'I' for Inactive)
REMARK    1  A    between atoms: C_1  and  C_2
REMARK    2  A    between atoms: C_6  and  C_7
REMARK    3  A    between atoms: N_9  and  C_10
REMARK    4  A    between atoms: C_10  and  C_11
REMARK    5  A    between atoms: C_15  and  O_16
REMARK    6  A    between atoms: O_16  and  C_17
REMARK    7  A    between atoms: C_17  and  C_18
REMARK                            x       y       z     vdW  Elec       q    Type
REMARK                         _______ _______ _______ _____ _____    ______ ____
ROOT
ATOM      1  C   UNL     1       5.031   6.277  17.070  0.00  0.00    +0.000 A 
ATOM      2  C   UNL     1       6.225   6.895  17.455  0.00  0.00    +0.000 A 
ATOM      3  C   UNL     1       7.412   6.472  16.878  0.00  0.00    +0.000 A 
ATOM      4  N   UNL     1       7.497   5.468  15.979  0.00  0.00    +0.000 NA
ATOM      5  C   UNL     1       6.339   4.879  15.625  0.00  0.00    +0.000 A 
ATOM      6  C   UNL     1       5.096   5.247  16.127  0.00  0.00    +0.000 A 
ENDROOT
BRANCH   1   7
ATOM      7  C   UNL     1       3.721   6.688  17.688  0.00  0.00    +0.000 C 
BRANCH   7  10
ATOM      8  C   UNL     1       2.292   4.934  18.645  0.00  0.00    +0.000 C 
ATOM      9  O   UNL     1       1.617   4.886  17.620  0.00  0.00    +0.000 OA
ATOM     10  N   UNL     1       3.353   5.804  18.769  0.00  0.00    +0.000 N 
ATOM     11  H   UNL     1       3.915   5.819  19.602  0.00  0.00    +0.000 HD
BRANCH   8  17
ATOM     12  C   UNL     1       0.645   1.960  18.934  0.00  0.00    +0.000 C 
ATOM     13  C   UNL     1       1.330   2.871  19.872  0.00  0.00    +0.000 A 
ATOM     14  O   UNL     1       1.326   2.456  21.171  0.00  0.00    +0.000 OA
ATOM     15  N   UNL     1       1.991   3.372  21.958  0.00  0.00    +0.000 NA
ATOM     16  C   UNL     1       2.388   4.329  21.118  0.00  0.00    +0.000 A 
ATOM     17  C   UNL     1       2.002   4.076  19.778  0.00  0.00    +0.000 A 
ENDBRANCH   8  17
ENDBRANCH   7  10
ENDBRANCH   1   7
BRANCH   5  18
ATOM     18  O   UNL     1       6.369   3.855  14.705  0.00  0.00    +0.000 OA
BRANCH  18  19
ATOM     19  C   UNL     1       5.384   4.011  13.670  0.00  0.00    +0.000 C 
BRANCH  19  20
ATOM     20  C   UNL     1       5.788   3.491  12.291  0.00  0.00    +0.000 C 
ATOM     21  F   UNL     1       6.905   4.070  11.799  0.00  0.00    +0.000 F 
ATOM     22  F   UNL     1       5.974   2.152  12.299  0.00  0.00    +0.000 F 
ATOM     23  F   UNL     1       4.794   3.740  11.398  0.00  0.00    +0.000 F 
ENDBRANCH  19  20
ENDBRANCH  18  19
ENDBRANCH   5  18
TORSDOF 6
ENDMDL
MODEL 2
REMARK VINA RESULT:      -7.6      1.110      1.110
REMARK  Name = 
REMARK  7 active torsions:
REMARK  status: ('A' for Active; 'I' for Inactive)
REMARK    1  A    between atoms: C_1  and  C_2
REMARK    2  A    between atoms: C_6  and  C_7
REMARK    3  A    between atoms: N_9  and  C_10
REMARK    4  A    between atoms: C_10  and  C_11
REMARK    5  A    between atoms: C_15  and  O_16
REMARK    6  A    between atoms: O_16  and  C_17
REMARK    7  A    between atoms: C_17  and  C_18
REMARK                            x       y       z     vdW  Elec       q    Type
REMARK                         _______ _______ _______ _____ _____    ______ ____
ROOT
ATOM      1  C   UNL     1       5.007   6.391  16.823  0.00  0.00    +0.000 A 
ATOM      2  C   UNL     1       6.151   7.016  17.328  0.00  0.00    +0.000 A 
ATOM      3  C   UNL     1       7.393   6.615  16.859  0.00  0.00    +0.000 A 
ATOM      4  N   UNL     1       7.574   5.627  15.957  0.00  0.00    +0.000 NA
ATOM      5  C   UNL     1       6.462   5.032  15.486  0.00  0.00    +0.000 A 
ATOM      6  C   UNL     1       5.173   5.377  15.874  0.00  0.00    +0.000 A 
ENDROOT
BRANCH   1   7
ATOM      7  C   UNL     1       3.640   6.778  17.321  0.00  0.00    +0.000 C 
BRANCH   7  10
ATOM      8  C   UNL     1       3.270   5.163  19.134  0.00  0.00    +0.000 C 
ATOM      9  O   UNL     1       4.160   5.675  19.808  0.00  0.00    +0.000 OA
ATOM     10  N   UNL     1       2.948   5.641  17.884  0.00  0.00    +0.000 N 
ATOM     11  H   UNL     1       2.201   5.232  17.349  0.00  0.00    +0.000 HD
BRANCH   8  17
ATOM     12  C   UNL     1       2.933   1.957  18.017  0.00  0.00    +0.000 C 
ATOM     13  C   UNL     1       2.393   2.730  19.152  0.00  0.00    +0.000 A 
ATOM     14  O   UNL     1       1.559   2.028  19.971  0.00  0.00    +0.000 OA
ATOM     15  N   UNL     1       1.116   2.838  20.995  0.00  0.00    +0.000 NA
ATOM     16  C   UNL     1       1.692   4.021  20.776  0.00  0.00    +0.000 A 
ATOM     17  C   UNL     1       2.515   4.025  19.623  0.00  0.00    +0.000 A 
ENDBRANCH   8  17
ENDBRANCH   7  10
ENDBRANCH   1   7
BRANCH   5  18
ATOM     18  O   UNL     1       6.591   4.023  14.558  0.00  0.00    +0.000 OA
BRANCH  18  19
ATOM     19  C   UNL     1       5.447   3.917  13.694  0.00  0.00    +0.000 C 
BRANCH  19  20
ATOM     20  C   UNL     1       5.743   3.478  12.260  0.00  0.00    +0.000 C 
ATOM     21  F   UNL     1       6.826   4.080  11.721  0.00  0.00    +0.000 F 
ATOM     22  F   UNL     1       5.916   2.140  12.173  0.00  0.00    +0.000 F 
ATOM     23  F   UNL     1       4.688   3.786  11.460  0.00  0.00    +0.000 F 
ENDBRANCH  19  20
ENDBRANCH  18  19
ENDBRANCH   5  18
TORSDOF 6
ENDMDL
MODEL 3
REMARK VINA RESULT:      -7.6      0.856      1.169
REMARK  Name = 
REMARK  7 active torsions:
REMARK  status: ('A' for Active; 'I' for Inactive)
REMARK    1  A    between atoms: C_1  and  C_2
REMARK    2  A    between atoms: C_6  and  C_7
REMARK    3  A    between atoms: N_9  and  C_10
REMARK    4  A    between atoms: C_10  and  C_11
REMARK    5  A    between atoms: C_15  and  O_16
REMARK    6  A    between atoms: O_16  and  C_17
REMARK    7  A    between atoms: C_17  and  C_18
REMARK                            x       y       z     vdW  Elec       q    Type
REMARK                         _______ _______ _______ _____ _____    ______ ____
ROOT
ATOM      1  C   UNL     1       4.926   6.166  16.854  0.00  0.00    +0.000 A 
ATOM      2  C   UNL     1       6.022   6.830  17.414  0.00  0.00    +0.000 A 
ATOM      3  C   UNL     1       7.289   6.565  16.918  0.00  0.00    +0.000 A 
ATOM      4  N   UNL     1       7.542   5.673  15.937  0.00  0.00    +0.000 NA
ATOM      5  C   UNL     1       6.476   5.037  15.413  0.00  0.00    +0.000 A 
ATOM      6  C   UNL     1       5.166   5.251  15.824  0.00  0.00    +0.000 A 
ENDROOT
BRANCH   1   7
ATOM      7  C   UNL     1       3.535   6.406  17.377  0.00  0.00    +0.000 C 
BRANCH   7  10
ATOM      8  C   UNL     1       2.769   5.385  19.475  0.00  0.00    +0.000 C 
ATOM      9  O   UNL     1       2.914   6.446  20.077  0.00  0.00    +0.000 OA
ATOM     10  N   UNL     1       3.059   5.272  18.134  0.00  0.00    +0.000 N 
ATOM     11  H   UNL     1       2.914   4.406  17.644  0.00  0.00    +0.000 HD
BRANCH   8  17
ATOM     12  C   UNL     1       1.638   2.373  18.339  0.00  0.00    +0.000 C 
ATOM     13  C   UNL     1       1.831   2.983  19.669  0.00  0.00    +0.000 A 
ATOM     14  O   UNL     1       1.488   2.180  20.716  0.00  0.00    +0.000 OA
ATOM     15  N   UNL     1       1.709   2.841  21.907  0.00  0.00    +0.000 NA
ATOM     16  C   UNL     1       2.183   4.037  21.556  0.00  0.00    +0.000 A 
ATOM     17  C   UNL     1       2.286   4.196  20.152  0.00  0.00    +0.000 A 
ENDBRANCH   8  17
ENDBRANCH   7  10
ENDBRANCH   1   7
BRANCH   5  18
ATOM     18  O   UNL     1       6.678   4.123  14.404  0.00  0.00    +0.000 OA
BRANCH  18  19
ATOM     19  C   UNL     1       5.476   3.834  13.670  0.00  0.00    +0.000 C 
BRANCH  19  20
ATOM     20  C   UNL     1       5.677   3.416  12.214  0.00  0.00    +0.000 C 
ATOM     21  F   UNL     1       5.918   2.096  12.056  0.00  0.00    +0.000 F 
ATOM     22  F   UNL     1       4.613   3.746  11.449  0.00  0.00    +0.000 F 
ATOM     23  F   UNL     1       6.747   4.072  11.693  0.00  0.00    +0.000 F 
ENDBRANCH  19  20
ENDBRANCH  18  19
ENDBRANCH   5  18
TORSDOF 6
ENDMDL
MODEL 4
REMARK VINA RESULT:      -7.6      1.166      1.514
REMARK  Name = 
REMARK  7 active torsions:
REMARK  status: ('A' for Active; 'I' for Inactive)
REMARK    1  A    between atoms: C_1  and  C_2
REMARK    2  A    between atoms: C_6  and  C_7
REMARK    3  A    between atoms: N_9  and  C_10
REMARK    4  A    between atoms: C_10  and  C_11
REMARK    5  A    between atoms: C_15  and  O_16
REMARK    6  A    between atoms: O_16  and  C_17
REMARK    7  A    between atoms: C_17  and  C_18
REMARK                            x       y       z     vdW  Elec       q    Type
REMARK                         _______ _______ _______ _____ _____    ______ ____
ROOT
ATOM      1  C   UNL     1       4.960   6.216  17.257  0.00  0.00    +0.000 A 
ATOM      2  C   UNL     1       6.139   6.195  18.008  0.00  0.00    +0.000 A 
ATOM      3  C   UNL     1       7.331   5.881  17.372  0.00  0.00    +0.000 A 
ATOM      4  N   UNL     1       7.424   5.559  16.065  0.00  0.00    +0.000 NA
ATOM      5  C   UNL     1       6.278   5.577  15.358  0.00  0.00    +0.000 A 
ATOM      6  C   UNL     1       5.039   5.903  15.896  0.00  0.00    +0.000 A 
ENDROOT
BRANCH   1   7
ATOM      7  C   UNL     1       3.641   6.529  17.911  0.00  0.00    +0.000 C 
BRANCH   7  10
ATOM      8  C   UNL     1       2.892   4.432  18.947  0.00  0.00    +0.000 C 
ATOM      9  O   UNL     1       2.577   3.971  17.853  0.00  0.00    +0.000 OA
ATOM     10  N   UNL     1       3.422   5.696  19.071  0.00  0.00    +0.000 N 
ATOM     11  H   UNL     1       3.699   6.056  19.968  0.00  0.00    +0.000 HD
BRANCH   8  17
ATOM     12  C   UNL     1       4.704   1.922  20.381  0.00  0.00    +0.000 C 
ATOM     13  C   UNL     1       3.467   2.647  20.728  0.00  0.00    +0.000 A 
ATOM     14  O   UNL     1       2.884   2.248  21.894  0.00  0.00    +0.000 OA
ATOM     15  N   UNL     1       1.743   2.988  22.126  0.00  0.00    +0.000 NA
ATOM     16  C   UNL     1       1.657   3.825  21.092  0.00  0.00    +0.000 A 
ATOM     17  C   UNL     1       2.717   3.664  20.165  0.00  0.00    +0.000 A 
ENDBRANCH   8  17
ENDBRANCH   7  10
ENDBRANCH   1   7
BRANCH   5  18
ATOM     18  O   UNL     1       6.319   5.264  14.017  0.00  0.00    +0.000 OA
BRANCH  18  19
ATOM     19  C   UNL     1       6.274   3.847  13.778  0.00  0.00    +0.000 C 
BRANCH  19  20
ATOM     20  C   UNL     1       6.173   3.429  12.311  0.00  0.00    +0.000 C 
ATOM     21  F   UNL     1       5.114   3.965  11.667  0.00  0.00    +0.000 F 
ATOM     22  F   UNL     1       7.292   3.748  11.624  0.00  0.00    +0.000 F 
ATOM     23  F   UNL     1       6.037   2.079  12.228  0.00  0.00    +0.000 F 
ENDBRANCH  19  20
ENDBRANCH  18  19
ENDBRANCH   5  18
TORSDOF 6
ENDMDL
MODEL 5
REMARK VINA RESULT:      -7.5      1.223      1.520
REMARK  Name = 
REMARK  7 active torsions:
REMARK  status: ('A' for Active; 'I' for Inactive)
REMARK    1  A    between atoms: C_1  and  C_2
REMARK    2  A    between atoms: C_6  and  C_7
REMARK    3  A    between atoms: N_9  and  C_10
REMARK    4  A    between atoms: C_10  and  C_11
REMARK    5  A    between atoms: C_15  and  O_16
REMARK    6  A    between atoms: O_16  and  C_17
REMARK    7  A    between atoms: C_17  and  C_18
REMARK                            x       y       z     vdW  Elec       q    Type
REMARK                         _______ _______ _______ _____ _____    ______ ____
ROOT
ATOM      1  C   UNL     1       5.038   6.401  16.912  0.00  0.00    +0.000 A 
ATOM      2  C   UNL     1       6.186   7.024  17.410  0.00  0.00    +0.000 A 
ATOM      3  C   UNL     1       7.423   6.634  16.921  0.00  0.00    +0.000 A 
ATOM      4  N   UNL     1       7.597   5.657  16.005  0.00  0.00    +0.000 NA
ATOM      5  C   UNL     1       6.481   5.063  15.541  0.00  0.00    +0.000 A 
ATOM      6  C   UNL     1       5.195   5.399  15.949  0.00  0.00    +0.000 A 
ENDROOT
BRANCH   1   7
ATOM      7  C   UNL     1       3.675   6.777  17.432  0.00  0.00    +0.000 C 
BRANCH   7  10
ATOM      8  C   UNL     1       2.747   5.127  18.996  0.00  0.00    +0.000 C 
ATOM      9  O   UNL     1       3.304   5.672  19.945  0.00  0.00    +0.000 OA
ATOM     10  N   UNL     1       2.881   5.603  17.711  0.00  0.00    +0.000 N 
ATOM     11  H   UNL     1       2.401   5.165  16.944  0.00  0.00    +0.000 HD
BRANCH   8  17
ATOM     12  C   UNL     1       2.126   3.142  21.701  0.00  0.00    +0.000 C 
ATOM     13  C   UNL     1       1.684   3.158  20.293  0.00  0.00    +0.000 A 
ATOM     14  O   UNL     1       0.820   2.158  19.959  0.00  0.00    +0.000 OA
ATOM     15  N   UNL     1       0.468   2.266  18.630  0.00  0.00    +0.000 NA
ATOM     16  C   UNL     1       1.129   3.335  18.182  0.00  0.00    +0.000 A 
ATOM     17  C   UNL     1       1.921   3.949  19.184  0.00  0.00    +0.000 A 
ENDBRANCH   8  17
ENDBRANCH   7  10
ENDBRANCH   1   7
BRANCH   5  18
ATOM     18  O   UNL     1       6.602   4.066  14.599  0.00  0.00    +0.000 OA
BRANCH  18  19
ATOM     19  C   UNL     1       5.428   3.935  13.779  0.00  0.00    +0.000 C 
BRANCH  19  20
ATOM     20  C   UNL     1       5.680   3.505  12.334  0.00  0.00    +0.000 C 
ATOM     21  F   UNL     1       6.762   4.088  11.774  0.00  0.00    +0.000 F 
ATOM     22  F   UNL     1       5.820   2.164  12.230  0.00  0.00    +0.000 F 
ATOM     23  F   UNL     1       4.612   3.844  11.563  0.00  0.00    +0.000 F 
ENDBRANCH  19  20
ENDBRANCH  18  19
ENDBRANCH   5  18
TORSDOF 6
ENDMDL
MODEL 6
REMARK VINA RESULT:      -7.5      4.132      7.606
REMARK  Name = 
REMARK  7 active torsions:
REMARK  status: ('A' for Active; 'I' for Inactive)
REMARK    1  A    between atoms: C_1  and  C_2
REMARK    2  A    between atoms: C_6  and  C_7
REMARK    3  A    between atoms: N_9  and  C_10
REMARK    4  A    between atoms: C_10  and  C_11
REMARK    5  A    between atoms: C_15  and  O_16
REMARK    6  A    between atoms: O_16  and  C_17
REMARK    7  A    between atoms: C_17  and  C_18
REMARK                            x       y       z     vdW  Elec       q    Type
REMARK                         _______ _______ _______ _____ _____    ______ ____
ROOT
ATOM      1  C   UNL     1       4.895   6.498  17.830  0.00  0.00    +0.000 A 
ATOM      2  C   UNL     1       3.747   7.266  17.610  0.00  0.00    +0.000 A 
ATOM      3  C   UNL     1       2.574   6.914  18.260  0.00  0.00    +0.000 A 
ATOM      4  N   UNL     1       2.457   5.845  19.076  0.00  0.00    +0.000 NA
ATOM      5  C   UNL     1       3.570   5.113  19.271  0.00  0.00    +0.000 A 
ATOM      6  C   UNL     1       4.799   5.398  18.687  0.00  0.00    +0.000 A 
ENDROOT
BRANCH   1   7
ATOM      7  C   UNL     1       6.185   6.830  17.127  0.00  0.00    +0.000 C 
BRANCH   7  10
ATOM      8  C   UNL     1       6.888   5.130  15.500  0.00  0.00    +0.000 C 
ATOM      9  O   UNL     1       7.512   4.520  16.365  0.00  0.00    +0.000 OA
ATOM     10  N   UNL     1       6.204   6.290  15.787  0.00  0.00    +0.000 N 
ATOM     11  H   UNL     1       5.676   6.769  15.079  0.00  0.00    +0.000 HD
BRANCH   8  17
ATOM     12  C   UNL     1       8.681   5.938  12.712  0.00  0.00    +0.000 C 
ATOM     13  C   UNL     1       7.582   4.999  13.013  0.00  0.00    +0.000 A 
ATOM     14  O   UNL     1       7.160   4.262  11.947  0.00  0.00    +0.000 OA
ATOM     15  N   UNL     1       6.139   3.419  12.335  0.00  0.00    +0.000 NA
ATOM     16  C   UNL     1       5.963   3.663  13.634  0.00  0.00    +0.000 A 
ATOM     17  C   UNL     1       6.844   4.656  14.130  0.00  0.00    +0.000 A 
ENDBRANCH   8  17
ENDBRANCH   7  10
ENDBRANCH   1   7
BRANCH   5  18
ATOM     18  O   UNL     1       3.507   4.017  20.102  0.00  0.00    +0.000 OA
BRANCH  18  19
ATOM     19  C   UNL     1       2.416   4.092  21.035  0.00  0.00    +0.000 C 
BRANCH  19  20
ATOM     20  C   UNL     1       1.315   3.049  20.847  0.00  0.00    +0.000 C 
ATOM     21  F   UNL     1       0.212   3.529  20.233  0.00  0.00    +0.000 F 
ATOM     22  F   UNL     1       1.757   1.979  20.149  0.00  0.00    +0.000 F 
ATOM     23  F   UNL     1       0.914   2.582  22.059  0.00  0.00    +0.000 F 
ENDBRANCH  19  20
ENDBRANCH  18  19
ENDBRANCH   5  18
TORSDOF 6
ENDMDL
MODEL 7
REMARK VINA RESULT:      -7.4      1.625      1.824
REMARK  Name = 
REMARK  7 active torsions:
REMARK  status: ('A' for Active; 'I' for Inactive)
REMARK    1  A    between atoms: C_1  and  C_2
REMARK    2  A    between atoms: C_6  and  C_7
REMARK    3  A    between atoms: N_9  and  C_10
REMARK    4  A    between atoms: C_10  and  C_11
REMARK    5  A    between atoms: C_15  and  O_16
REMARK    6  A    between atoms: O_16  and  C_17
REMARK    7  A    between atoms: C_17  and  C_18
REMARK                            x       y       z     vdW  Elec       q    Type
REMARK                         _______ _______ _______ _____ _____    ______ ____
ROOT
ATOM      1  C   UNL     1       5.927   5.049  17.671  0.00  0.00    +0.000 A 
ATOM      2  C   UNL     1       5.120   6.190  17.619  0.00  0.00    +0.000 A 
ATOM      3  C   UNL     1       4.926   6.817  16.398  0.00  0.00    +0.000 A 
ATOM      4  N   UNL     1       5.498   6.411  15.244  0.00  0.00    +0.000 NA
ATOM      5  C   UNL     1       6.278   5.315  15.313  0.00  0.00    +0.000 A 
ATOM      6  C   UNL     1       6.514   4.602  16.483  0.00  0.00    +0.000 A 
ENDROOT
BRANCH   1   7
ATOM      7  C   UNL     1       6.184   4.350  18.979  0.00  0.00    +0.000 C 
BRANCH   7  10
ATOM      8  C   UNL     1       4.122   3.073  19.367  0.00  0.00    +0.000 C 
ATOM      9  O   UNL     1       4.390   2.308  18.444  0.00  0.00    +0.000 OA
ATOM     10  N   UNL     1       4.953   4.119  19.699  0.00  0.00    +0.000 N 
ATOM     11  H   UNL     1       4.738   4.726  20.472  0.00  0.00    +0.000 HD
BRANCH   8  17
ATOM     12  C   UNL     1       0.813   3.037  18.537  0.00  0.00    +0.000 C 
ATOM     13  C   UNL     1       1.577   2.900  19.792  0.00  0.00    +0.000 A 
ATOM     14  O   UNL     1       0.812   2.711  20.904  0.00  0.00    +0.000 OA
ATOM     15  N   UNL     1       1.620   2.592  22.016  0.00  0.00    +0.000 NA
ATOM     16  C   UNL     1       2.865   2.712  21.553  0.00  0.00    +0.000 A 
ATOM     17  C   UNL     1       2.913   2.911  20.151  0.00  0.00    +0.000 A 
ENDBRANCH   8  17
ENDBRANCH   7  10
ENDBRANCH   1   7
BRANCH   5  18
ATOM     18  O   UNL     1       6.879   4.854  14.163  0.00  0.00    +0.000 OA
BRANCH  18  19
ATOM     19  C   UNL     1       6.212   3.706  13.612  0.00  0.00    +0.000 C 
BRANCH  19  20
ATOM     20  C   UNL     1       6.371   3.513  12.104  0.00  0.00    +0.000 C 
ATOM     21  F   UNL     1       7.143   4.451  11.515  0.00  0.00    +0.000 F 
ATOM     22  F   UNL     1       6.882   2.297  11.808  0.00  0.00    +0.000 F 
ATOM     23  F   UNL     1       5.153   3.577  11.504  0.00  0.00    +0.000 F 
ENDBRANCH  19  20
ENDBRANCH  18  19
ENDBRANCH   5  18
TORSDOF 6
ENDMDL
MODEL 8
REMARK VINA RESULT:      -7.4      3.866      7.031
REMARK  Name = 
REMARK  7 active torsions:
REMARK  status: ('A' for Active; 'I' for Inactive)
REMARK    1  A    between atoms: C_1  and  C_2
REMARK    2  A    between atoms: C_6  and  C_7
REMARK    3  A    between atoms: N_9  and  C_10
REMARK    4  A    between atoms: C_10  and  C_11
REMARK    5  A    between atoms: C_15  and  O_16
REMARK    6  A    between atoms: O_16  and  C_17
REMARK    7  A    between atoms: C_17  and  C_18
REMARK                            x       y       z     vdW  Elec       q    Type
REMARK                         _______ _______ _______ _____ _____    ______ ____
ROOT
ATOM      1  C   UNL     1       3.331   3.427  19.933  0.00  0.00    +0.000 A 
ATOM      2  C   UNL     1       2.222   2.665  20.310  0.00  0.00    +0.000 A 
ATOM      3  C   UNL     1       1.039   3.317  20.625  0.00  0.00    +0.000 A 
ATOM      4  N   UNL     1       0.896   4.659  20.620  0.00  0.00    +0.000 NA
ATOM      5  C   UNL     1       1.976   5.378  20.260  0.00  0.00    +0.000 A 
ATOM      6  C   UNL     1       3.197   4.819  19.904  0.00  0.00    +0.000 A 
ENDROOT
BRANCH   1   7
ATOM      7  C   UNL     1       4.642   2.763  19.606  0.00  0.00    +0.000 C 
BRANCH   7  10
ATOM      8  C   UNL     1       5.272   3.821  17.481  0.00  0.00    +0.000 C 
ATOM      9  O   UNL     1       4.358   3.248  16.893  0.00  0.00    +0.000 OA
ATOM     10  N   UNL     1       5.491   3.635  18.827  0.00  0.00    +0.000 N 
ATOM     11  H   UNL     1       6.226   4.127  19.306  0.00  0.00    +0.000 HD
BRANCH   8  17
ATOM     12  C   UNL     1       6.343   3.974  14.245  0.00  0.00    +0.000 C 
ATOM     13  C   UNL     1       6.589   4.766  15.466  0.00  0.00    +0.000 A 
ATOM     14  O   UNL     1       7.440   5.818  15.297  0.00  0.00    +0.000 OA
ATOM     15  N   UNL     1       7.597   6.490  16.491  0.00  0.00    +0.000 NA
ATOM     16  C   UNL     1       6.835   5.830  17.364  0.00  0.00    +0.000 A 
ATOM     17  C   UNL     1       6.168   4.723  16.782  0.00  0.00    +0.000 A 
ENDBRANCH   8  17
ENDBRANCH   7  10
ENDBRANCH   1   7
BRANCH   5  18
ATOM     18  O   UNL     1       1.880   6.752  20.231  0.00  0.00    +0.000 OA
BRANCH  18  19
ATOM     19  C   UNL     1       2.629   7.336  19.151  0.00  0.00    +0.000 C 
BRANCH  19  20
ATOM     20  C   UNL     1       1.960   8.517  18.448  0.00  0.00    +0.000 C 
ATOM     21  F   UNL     1       2.834   9.378  17.885  0.00  0.00    +0.000 F 
ATOM     22  F   UNL     1       1.097   8.104  17.494  0.00  0.00    +0.000 F 
ATOM     23  F   UNL     1       1.232   9.231  19.347  0.00  0.00    +0.000 F 
ENDBRANCH  19  20
ENDBRANCH  18  19
ENDBRANCH   5  18
TORSDOF 6
ENDMDL
MODEL 9
REMARK VINA RESULT:      -7.3      5.055      6.541
REMARK  Name = 
REMARK  7 active torsions:
REMARK  status: ('A' for Active; 'I' for Inactive)
REMARK    1  A    between atoms: C_1  and  C_2
REMARK    2  A    between atoms: C_6  and  C_7
REMARK    3  A    between atoms: N_9  and  C_10
REMARK    4  A    between atoms: C_10  and  C_11
REMARK    5  A    between atoms: C_15  and  O_16
REMARK    6  A    between atoms: O_16  and  C_17
REMARK    7  A    between atoms: C_17  and  C_18
REMARK                            x       y       z     vdW  Elec       q    Type
REMARK                         _______ _______ _______ _____ _____    ______ ____
ROOT
ATOM      1  C   UNL     1       3.564   5.810  17.558  0.00  0.00    +0.000 A 
ATOM      2  C   UNL     1       4.675   5.124  17.056  0.00  0.00    +0.000 A 
ATOM      3  C   UNL     1       4.643   3.739  17.020  0.00  0.00    +0.000 A 
ATOM      4  N   UNL     1       3.610   2.997  17.471  0.00  0.00    +0.000 NA
ATOM      5  C   UNL     1       2.552   3.674  17.957  0.00  0.00    +0.000 A 
ATOM      6  C   UNL     1       2.476   5.060  18.014  0.00  0.00    +0.000 A 
ENDROOT
BRANCH   1   7
ATOM      7  C   UNL     1       3.565   7.314  17.638  0.00  0.00    +0.000 C 
BRANCH   7  10
ATOM      8  C   UNL     1       1.888   8.931  18.417  0.00  0.00    +0.000 C 
ATOM      9  O   UNL     1       2.014   9.597  17.393  0.00  0.00    +0.000 OA
ATOM     10  N   UNL     1       2.622   7.785  18.626  0.00  0.00    +0.000 N 
ATOM     11  H   UNL     1       2.494   7.232  19.457  0.00  0.00    +0.000 HD
BRANCH   8  17
ATOM     12  C   UNL     1      -0.950  10.825  18.395  0.00  0.00    +0.000 C 
ATOM     13  C   UNL     1      -0.190  10.093  19.427  0.00  0.00    +0.000 A 
ATOM     14  O   UNL     1      -0.720  10.168  20.681  0.00  0.00    +0.000 OA
ATOM     15  N   UNL     1       0.061   9.451  21.563  0.00  0.00    +0.000 NA
ATOM     16  C   UNL     1       1.053   8.953  20.824  0.00  0.00    +0.000 A 
ATOM     17  C   UNL     1       0.958   9.322  19.459  0.00  0.00    +0.000 A 
ENDBRANCH   8  17
ENDBRANCH   7  10
ENDBRANCH   1   7
BRANCH   5  18
ATOM     18  O   UNL     1       1.467   2.965  18.423  0.00  0.00    +0.000 OA
BRANCH  18  19
ATOM     19  C   UNL     1       1.712   2.356  19.703  0.00  0.00    +0.000 C 
BRANCH  19  20
ATOM     20  C   UNL     1       1.414   3.235  20.918  0.00  0.00    +0.000 C 
ATOM     21  F   UNL     1       0.900   2.556  21.966  0.00  0.00    +0.000 F 
ATOM     22  F   UNL     1       2.517   3.892  21.340  0.00  0.00    +0.000 F 
ATOM     23  F   UNL     1       0.501   4.184  20.583  0.00  0.00    +0.000 F 
ENDBRANCH  19  20
ENDBRANCH  18  19
ENDBRANCH   5  18
TORSDOF 6
ENDMDL
