MODEL 1
REMARK VINA RESULT:      -7.4      0.000      0.000
REMARK  Name = 
REMARK  11 active torsions:
REMARK  status: ('A' for Active; 'I' for Inactive)
REMARK    1  A    between atoms: C_1  and  C_2
REMARK    2  A    between atoms: C_2  and  C_3
REMARK    3  A    between atoms: C_6  and  C_7
REMARK    4  A    between atoms: C_8  and  C_9
REMARK    5  A    between atoms: C_9  and  N_10
REMARK    6  A    between atoms: N_10  and  C_11
REMARK    7  A    between atoms: C_11  and  C_12
REMARK    8  A    between atoms: C_11  and  C_18
REMARK    9  A    between atoms: N_15  and  C_16
REMARK   10  A    between atoms: C_18  and  C_19
REMARK   11  A    between atoms: C_19  and  O_20
REMARK                            x       y       z     vdW  Elec       q    Type
REMARK                         _______ _______ _______ _____ _____    ______ ____
ROOT
ATOM      1  C   UNL     1       3.533   4.684  18.589  0.00  0.00    +0.000 C 
ENDROOT
BRANCH   1   2
ATOM      2  C   UNL     1       2.847   5.983  18.899  0.00  0.00    +0.000 A 
ATOM      3  C   UNL     1       2.670   7.078  18.016  0.00  0.00    +0.000 A 
ATOM      4  N   UNL     1       2.092   8.126  18.604  0.00  0.00    +0.000 NA
ATOM      5  N   UNL     1       1.890   7.713  19.866  0.00  0.00    +0.000 N 
ATOM      6  C   UNL     1       1.323   8.610  20.843  0.00  0.00    +0.000 C 
ATOM      7  C   UNL     1       2.307   6.430  20.090  0.00  0.00    +0.000 A 
ENDBRANCH   1   2
BRANCH   1   8
ATOM      8  C   UNL     1       2.659   3.440  18.956  0.00  0.00    +0.000 C 
ATOM      9  C   UNL     1       2.916   2.903  20.407  0.00  0.00    +0.000 C 
ATOM     10  C   UNL     1       1.397   2.738  20.591  0.00  0.00    +0.000 C 
ATOM     11  C   UNL     1       1.177   3.694  19.405  0.00  0.00    +0.000 C 
BRANCH   8  12
ATOM     12  C   UNL     1       2.812   2.347  17.869  0.00  0.00    +0.000 C 
BRANCH  12  13
ATOM     13  O   UNL     1       3.770   1.351  18.225  0.00  0.00    +0.000 OA
ATOM     14  H   UNL     1       3.405   0.833  18.960  0.00  0.00    +0.000 HD
ENDBRANCH  12  13
ENDBRANCH   8  12
ENDBRANCH   1   8
BRANCH   1  15
ATOM     15  N   UNL     1       4.839   4.666  19.274  0.00  0.00    +0.000 NA
ATOM     16  H   UNL     1       5.126   5.623  19.465  0.00  0.00    +0.000 HD
BRANCH  15  17
ATOM     17  C   UNL     1       5.899   4.015  18.502  0.00  0.00    +0.000 C 
BRANCH  17  23
ATOM     18  C   UNL     1       6.121   5.088  16.170  0.00  0.00    +0.000 A 
ATOM     19  O   UNL     1       6.822   6.114  15.619  0.00  0.00    +0.000 OA
ATOM     20  N   UNL     1       7.584   6.729  16.594  0.00  0.00    +0.000 NA
ATOM     21  C   UNL     1       7.329   6.067  17.727  0.00  0.00    +0.000 A 
ATOM     22  C   UNL     1       7.976   6.484  18.994  0.00  0.00    +0.000 C 
ATOM     23  C   UNL     1       6.415   5.001  17.517  0.00  0.00    +0.000 A 
BRANCH  18  25
ATOM     24  C   UNL     1       5.927   3.977  13.953  0.00  0.00    +0.000 C 
ATOM     25  C   UNL     1       5.230   4.336  15.254  0.00  0.00    +0.000 C 
ENDBRANCH  18  25
ENDBRANCH  17  23
ENDBRANCH  15  17
ENDBRANCH   1  15
TORSDOF 8
ENDMDL
MODEL 2
REMARK VINA RESULT:      -7.3      0.615      1.018
REMARK  Name = 
REMARK  11 active torsions:
REMARK  status: ('A' for Active; 'I' for Inactive)
REMARK    1  A    between atoms: C_1  and  C_2
REMARK    2  A    between atoms: C_2  and  C_3
REMARK    3  A    between atoms: C_6  and  C_7
REMARK    4  A    between atoms: C_8  and  C_9
REMARK    5  A    between atoms: C_9  and  N_10
REMARK    6  A    between atoms: N_10  and  C_11
REMARK    7  A    between atoms: C_11  and  C_12
REMARK    8  A    between atoms: C_11  and  C_18
REMARK    9  A    between atoms: N_15  and  C_16
REMARK   10  A    between atoms: C_18  and  C_19
REMARK   11  A    between atoms: C_19  and  O_20
REMARK                            x       y       z     vdW  Elec       q    Type
REMARK                         _______ _______ _______ _____ _____    ______ ____
ROOT
ATOM      1  C   UNL     1       3.575   4.847  18.490  0.00  0.00    +0.000 C 
ENDROOT
BRANCH   1   2
ATOM      2  C   UNL     1       2.974   6.202  18.727  0.00  0.00    +0.000 A 
ATOM      3  C   UNL     1       2.530   6.724  19.968  0.00  0.00    +0.000 A 
ATOM      4  N   UNL     1       1.968   7.928  19.849  0.00  0.00    +0.000 NA
ATOM      5  N   UNL     1       2.052   8.190  18.533  0.00  0.00    +0.000 N 
ATOM      6  C   UNL     1       1.487   9.405  17.997  0.00  0.00    +0.000 C 
ATOM      7  C   UNL     1       2.664   7.197  17.821  0.00  0.00    +0.000 A 
ENDBRANCH   1   2
BRANCH   1   8
ATOM      8  C   UNL     1       2.594   3.682  18.850  0.00  0.00    +0.000 C 
ATOM      9  C   UNL     1       2.805   3.112  20.295  0.00  0.00    +0.000 C 
ATOM     10  C   UNL     1       1.278   3.082  20.483  0.00  0.00    +0.000 C 
ATOM     11  C   UNL     1       1.141   4.064  19.305  0.00  0.00    +0.000 C 
BRANCH   8  12
ATOM     12  C   UNL     1       2.645   2.590  17.753  0.00  0.00    +0.000 C 
BRANCH  12  13
ATOM     13  O   UNL     1       3.236   1.377  18.216  0.00  0.00    +0.000 OA
ATOM     14  H   UNL     1       2.600   0.658  18.066  0.00  0.00    +0.000 HD
ENDBRANCH  12  13
ENDBRANCH   8  12
ENDBRANCH   1   8
BRANCH   1  15
ATOM     15  N   UNL     1       4.841   4.755  19.242  0.00  0.00    +0.000 NA
ATOM     16  H   UNL     1       5.195   5.694  19.409  0.00  0.00    +0.000 HD
BRANCH  15  17
ATOM     17  C   UNL     1       5.881   3.990  18.550  0.00  0.00    +0.000 C 
BRANCH  17  23
ATOM     18  C   UNL     1       6.307   4.810  16.145  0.00  0.00    +0.000 A 
ATOM     19  O   UNL     1       7.052   5.778  15.550  0.00  0.00    +0.000 OA
ATOM     20  N   UNL     1       7.724   6.503  16.517  0.00  0.00    +0.000 NA
ATOM     21  C   UNL     1       7.371   5.963  17.687  0.00  0.00    +0.000 A 
ATOM     22  C   UNL     1       7.902   6.521  18.954  0.00  0.00    +0.000 C 
ATOM     23  C   UNL     1       6.481   4.870  17.514  0.00  0.00    +0.000 A 
BRANCH  18  25
ATOM     24  C   UNL     1       6.039   3.967  13.821  0.00  0.00    +0.000 C 
ATOM     25  C   UNL     1       5.502   3.954  15.241  0.00  0.00    +0.000 C 
ENDBRANCH  18  25
ENDBRANCH  17  23
ENDBRANCH  15  17
ENDBRANCH   1  15
TORSDOF 8
ENDMDL
MODEL 3
REMARK VINA RESULT:      -7.3      1.178      2.495
REMARK  Name = 
REMARK  11 active torsions:
REMARK  status: ('A' for Active; 'I' for Inactive)
REMARK    1  A    between atoms: C_1  and  C_2
REMARK    2  A    between atoms: C_2  and  C_3
REMARK    3  A    between atoms: C_6  and  C_7
REMARK    4  A    between atoms: C_8  and  C_9
REMARK    5  A    between atoms: C_9  and  N_10
REMARK    6  A    between atoms: N_10  and  C_11
REMARK    7  A    between atoms: C_11  and  C_12
REMARK    8  A    between atoms: C_11  and  C_18
REMARK    9  A    between atoms: N_15  and  C_16
REMARK   10  A    between atoms: C_18  and  C_19
REMARK   11  A    between atoms: C_19  and  O_20
REMARK                            x       y       z     vdW  Elec       q    Type
REMARK                         _______ _______ _______ _____ _____    ______ ____
ROOT
ATOM      1  C   UNL     1       2.853   4.913  17.919  0.00  0.00    +0.000 C 
ENDROOT
BRANCH   1   2
ATOM      2  C   UNL     1       2.417   6.171  18.613  0.00  0.00    +0.000 A 
ATOM      3  C   UNL     1       2.355   7.469  18.047  0.00  0.00    +0.000 A 
ATOM      4  N   UNL     1       2.006   8.402  18.934  0.00  0.00    +0.000 NA
ATOM      5  N   UNL     1       1.836   7.710  20.074  0.00  0.00    +0.000 N 
ATOM      6  C   UNL     1       1.502   8.397  21.298  0.00  0.00    +0.000 C 
ATOM      7  C   UNL     1       2.051   6.368  19.930  0.00  0.00    +0.000 A 
ENDBRANCH   1   2
BRANCH   1   8
ATOM      8  C   UNL     1       2.592   3.631  18.778  0.00  0.00    +0.000 C 
ATOM      9  C   UNL     1       1.141   3.559  19.367  0.00  0.00    +0.000 C 
ATOM     10  C   UNL     1       1.084   2.069  18.988  0.00  0.00    +0.000 C 
ATOM     11  C   UNL     1       2.257   2.299  18.019  0.00  0.00    +0.000 C 
BRANCH   8  12
ATOM     12  C   UNL     1       3.692   3.485  19.857  0.00  0.00    +0.000 C 
BRANCH  12  13
ATOM     13  O   UNL     1       4.767   2.647  19.434  0.00  0.00    +0.000 OA
ATOM     14  H   UNL     1       5.576   3.184  19.413  0.00  0.00    +0.000 HD
ENDBRANCH  12  13
ENDBRANCH   8  12
ENDBRANCH   1   8
BRANCH   1  15
ATOM     15  N   UNL     1       4.274   5.049  17.546  0.00  0.00    +0.000 NA
ATOM     16  H   UNL     1       4.477   6.031  17.371  0.00  0.00    +0.000 HD
BRANCH  15  17
ATOM     17  C   UNL     1       4.644   4.285  16.353  0.00  0.00    +0.000 C 
BRANCH  17  23
ATOM     18  C   UNL     1       6.774   5.732  16.441  0.00  0.00    +0.000 A 
ATOM     19  O   UNL     1       7.791   6.044  15.596  0.00  0.00    +0.000 OA
ATOM     20  N   UNL     1       7.616   5.376  14.398  0.00  0.00    +0.000 NA
ATOM     21  C   UNL     1       6.493   4.666  14.538  0.00  0.00    +0.000 A 
ATOM     22  C   UNL     1       6.015   3.804  13.430  0.00  0.00    +0.000 C 
ATOM     23  C   UNL     1       5.902   4.863  15.814  0.00  0.00    +0.000 A 
BRANCH  18  25
ATOM     24  C   UNL     1       7.763   5.603  18.719  0.00  0.00    +0.000 C 
ATOM     25  C   UNL     1       6.827   6.352  17.787  0.00  0.00    +0.000 C 
ENDBRANCH  18  25
ENDBRANCH  17  23
ENDBRANCH  15  17
ENDBRANCH   1  15
TORSDOF 8
ENDMDL
MODEL 4
REMARK VINA RESULT:      -7.2      0.921      2.406
REMARK  Name = 
REMARK  11 active torsions:
REMARK  status: ('A' for Active; 'I' for Inactive)
REMARK    1  A    between atoms: C_1  and  C_2
REMARK    2  A    between atoms: C_2  and  C_3
REMARK    3  A    between atoms: C_6  and  C_7
REMARK    4  A    between atoms: C_8  and  C_9
REMARK    5  A    between atoms: C_9  and  N_10
REMARK    6  A    between atoms: N_10  and  C_11
REMARK    7  A    between atoms: C_11  and  C_12
REMARK    8  A    between atoms: C_11  and  C_18
REMARK    9  A    between atoms: N_15  and  C_16
REMARK   10  A    between atoms: C_18  and  C_19
REMARK   11  A    between atoms: C_19  and  O_20
REMARK                            x       y       z     vdW  Elec       q    Type
REMARK                         _______ _______ _______ _____ _____    ______ ____
ROOT
ATOM      1  C   UNL     1       3.419   5.028  18.517  0.00  0.00    +0.000 C 
ENDROOT
BRANCH   1   2
ATOM      2  C   UNL     1       2.826   6.386  18.756  0.00  0.00    +0.000 A 
ATOM      3  C   UNL     1       2.356   6.898  19.991  0.00  0.00    +0.000 A 
ATOM      4  N   UNL     1       1.810   8.109  19.873  0.00  0.00    +0.000 NA
ATOM      5  N   UNL     1       1.929   8.386  18.563  0.00  0.00    +0.000 N 
ATOM      6  C   UNL     1       1.389   9.612  18.028  0.00  0.00    +0.000 C 
ATOM      7  C   UNL     1       2.548   7.395  17.854  0.00  0.00    +0.000 A 
ENDBRANCH   1   2
BRANCH   1   8
ATOM      8  C   UNL     1       2.477   3.870  18.985  0.00  0.00    +0.000 C 
ATOM      9  C   UNL     1       2.914   3.219  20.344  0.00  0.00    +0.000 C 
ATOM     10  C   UNL     1       1.442   3.216  20.791  0.00  0.00    +0.000 C 
ATOM     11  C   UNL     1       1.138   4.261  19.702  0.00  0.00    +0.000 C 
BRANCH   8  12
ATOM     12  C   UNL     1       2.305   2.835  17.846  0.00  0.00    +0.000 C 
BRANCH  12  13
ATOM     13  O   UNL     1       2.920   1.583  18.145  0.00  0.00    +0.000 OA
ATOM     14  H   UNL     1       3.795   1.570  17.725  0.00  0.00    +0.000 HD
ENDBRANCH  12  13
ENDBRANCH   8  12
ENDBRANCH   1   8
BRANCH   1  15
ATOM     15  N   UNL     1       4.739   4.968  19.175  0.00  0.00    +0.000 NA
ATOM     16  H   UNL     1       5.113   5.911  19.251  0.00  0.00    +0.000 HD
BRANCH  15  17
ATOM     17  C   UNL     1       5.715   4.143  18.459  0.00  0.00    +0.000 C 
BRANCH  17  23
ATOM     18  C   UNL     1       7.177   6.021  17.471  0.00  0.00    +0.000 A 
ATOM     19  O   UNL     1       7.436   6.524  16.236  0.00  0.00    +0.000 OA
ATOM     20  N   UNL     1       6.733   5.803  15.288  0.00  0.00    +0.000 NA
ATOM     21  C   UNL     1       6.060   4.869  15.967  0.00  0.00    +0.000 A 
ATOM     22  C   UNL     1       5.207   3.895  15.245  0.00  0.00    +0.000 C 
ATOM     23  C   UNL     1       6.291   4.967  17.364  0.00  0.00    +0.000 A 
BRANCH  18  25
ATOM     24  C   UNL     1       8.221   8.121  18.300  0.00  0.00    +0.000 C 
ATOM     25  C   UNL     1       7.877   6.673  18.604  0.00  0.00    +0.000 C 
ENDBRANCH  18  25
ENDBRANCH  17  23
ENDBRANCH  15  17
ENDBRANCH   1  15
TORSDOF 8
ENDMDL
MODEL 5
REMARK VINA RESULT:      -7.2      1.078      1.166
REMARK  Name = 
REMARK  11 active torsions:
REMARK  status: ('A' for Active; 'I' for Inactive)
REMARK    1  A    between atoms: C_1  and  C_2
REMARK    2  A    between atoms: C_2  and  C_3
REMARK    3  A    between atoms: C_6  and  C_7
REMARK    4  A    between atoms: C_8  and  C_9
REMARK    5  A    between atoms: C_9  and  N_10
REMARK    6  A    between atoms: N_10  and  C_11
REMARK    7  A    between atoms: C_11  and  C_12
REMARK    8  A    between atoms: C_11  and  C_18
REMARK    9  A    between atoms: N_15  and  C_16
REMARK   10  A    between atoms: C_18  and  C_19
REMARK   11  A    between atoms: C_19  and  O_20
REMARK                            x       y       z     vdW  Elec       q    Type
REMARK                         _______ _______ _______ _____ _____    ______ ____
ROOT
ATOM      1  C   UNL     1       3.480   5.133  18.671  0.00  0.00    +0.000 C 
ENDROOT
BRANCH   1   2
ATOM      2  C   UNL     1       2.934   6.519  18.486  0.00  0.00    +0.000 A 
ATOM      3  C   UNL     1       3.207   7.398  17.408  0.00  0.00    +0.000 A 
ATOM      4  N   UNL     1       2.639   8.595  17.560  0.00  0.00    +0.000 NA
ATOM      5  N   UNL     1       1.992   8.492  18.734  0.00  0.00    +0.000 N 
ATOM      6  C   UNL     1       1.290   9.629  19.278  0.00  0.00    +0.000 C 
ATOM      7  C   UNL     1       2.121   7.263  19.319  0.00  0.00    +0.000 A 
ENDBRANCH   1   2
BRANCH   1   8
ATOM      8  C   UNL     1       2.491   4.195  19.439  0.00  0.00    +0.000 C 
ATOM      9  C   UNL     1       3.196   2.976  20.130  0.00  0.00    +0.000 C 
ATOM     10  C   UNL     1       2.328   3.208  21.378  0.00  0.00    +0.000 C 
ATOM     11  C   UNL     1       2.034   4.633  20.875  0.00  0.00    +0.000 C 
BRANCH   8  12
ATOM     12  C   UNL     1       1.329   3.774  18.506  0.00  0.00    +0.000 C 
BRANCH  12  13
ATOM     13  O   UNL     1       1.772   3.454  17.189  0.00  0.00    +0.000 OA
ATOM     14  H   UNL     1       2.743   3.418  17.199  0.00  0.00    +0.000 HD
ENDBRANCH  12  13
ENDBRANCH   8  12
ENDBRANCH   1   8
BRANCH   1  15
ATOM     15  N   UNL     1       4.789   5.229  19.345  0.00  0.00    +0.000 NA
ATOM     16  H   UNL     1       5.087   6.202  19.351  0.00  0.00    +0.000 HD
BRANCH  15  17
ATOM     17  C   UNL     1       5.838   4.431  18.708  0.00  0.00    +0.000 C 
BRANCH  17  23
ATOM     18  C   UNL     1       6.148   5.160  16.256  0.00  0.00    +0.000 A 
ATOM     19  O   UNL     1       6.912   6.060  15.583  0.00  0.00    +0.000 OA
ATOM     20  N   UNL     1       7.696   6.761  16.480  0.00  0.00    +0.000 NA
ATOM     21  C   UNL     1       7.391   6.276  17.687  0.00  0.00    +0.000 A 
ATOM     22  C   UNL     1       8.045   6.828  18.898  0.00  0.00    +0.000 C 
ATOM     23  C   UNL     1       6.421   5.242  17.607  0.00  0.00    +0.000 A 
BRANCH  18  25
ATOM     24  C   UNL     1       5.837   3.972  14.093  0.00  0.00    +0.000 C 
ATOM     25  C   UNL     1       5.226   4.338  15.434  0.00  0.00    +0.000 C 
ENDBRANCH  18  25
ENDBRANCH  17  23
ENDBRANCH  15  17
ENDBRANCH   1  15
TORSDOF 8
ENDMDL
MODEL 6
REMARK VINA RESULT:      -7.2      1.505      1.837
REMARK  Name = 
REMARK  11 active torsions:
REMARK  status: ('A' for Active; 'I' for Inactive)
REMARK    1  A    between atoms: C_1  and  C_2
REMARK    2  A    between atoms: C_2  and  C_3
REMARK    3  A    between atoms: C_6  and  C_7
REMARK    4  A    between atoms: C_8  and  C_9
REMARK    5  A    between atoms: C_9  and  N_10
REMARK    6  A    between atoms: N_10  and  C_11
REMARK    7  A    between atoms: C_11  and  C_12
REMARK    8  A    between atoms: C_11  and  C_18
REMARK    9  A    between atoms: N_15  and  C_16
REMARK   10  A    between atoms: C_18  and  C_19
REMARK   11  A    between atoms: C_19  and  O_20
REMARK                            x       y       z     vdW  Elec       q    Type
REMARK                         _______ _______ _______ _____ _____    ______ ____
ROOT
ATOM      1  C   UNL     1       3.322   6.103  18.103  0.00  0.00    +0.000 C 
ENDROOT
BRANCH   1   2
ATOM      2  C   UNL     1       2.482   7.143  18.786  0.00  0.00    +0.000 A 
ATOM      3  C   UNL     1       1.938   8.312  18.197  0.00  0.00    +0.000 A 
ATOM      4  N   UNL     1       1.301   9.085  19.078  0.00  0.00    +0.000 NA
ATOM      5  N   UNL     1       1.426   8.417  20.237  0.00  0.00    +0.000 N 
ATOM      6  C   UNL     1       0.903   8.979  21.459  0.00  0.00    +0.000 C 
ATOM      7  C   UNL     1       2.108   7.238  20.113  0.00  0.00    +0.000 A 
ENDBRANCH   1   2
BRANCH   1   8
ATOM      8  C   UNL     1       2.931   4.646  18.515  0.00  0.00    +0.000 C 
ATOM      9  C   UNL     1       1.435   4.504  18.965  0.00  0.00    +0.000 C 
ATOM     10  C   UNL     1       1.336   3.203  18.150  0.00  0.00    +0.000 C 
ATOM     11  C   UNL     1       2.593   3.628  17.370  0.00  0.00    +0.000 C 
BRANCH   8  12
ATOM     12  C   UNL     1       3.933   4.107  19.565  0.00  0.00    +0.000 C 
BRANCH  12  13
ATOM     13  O   UNL     1       4.888   3.210  19.002  0.00  0.00    +0.000 OA
ATOM     14  H   UNL     1       5.564   3.739  18.547  0.00  0.00    +0.000 HD
ENDBRANCH  12  13
ENDBRANCH   8  12
ENDBRANCH   1   8
BRANCH   1  15
ATOM     15  N   UNL     1       4.743   6.393  18.375  0.00  0.00    +0.000 NA
ATOM     16  H   UNL     1       4.804   7.213  18.974  0.00  0.00    +0.000 HD
BRANCH  15  17
ATOM     17  C   UNL     1       5.533   6.646  17.169  0.00  0.00    +0.000 C 
BRANCH  17  23
ATOM     18  C   UNL     1       7.079   4.923  16.036  0.00  0.00    +0.000 A 
ATOM     19  O   UNL     1       8.083   4.094  16.423  0.00  0.00    +0.000 OA
ATOM     20  N   UNL     1       8.324   4.261  17.774  0.00  0.00    +0.000 NA
ATOM     21  C   UNL     1       7.461   5.195  18.185  0.00  0.00    +0.000 A 
ATOM     22  C   UNL     1       7.461   5.636  19.601  0.00  0.00    +0.000 C 
ATOM     23  C   UNL     1       6.631   5.645  17.125  0.00  0.00    +0.000 A 
BRANCH  18  25
ATOM     24  C   UNL     1       5.388   4.177  14.372  0.00  0.00    +0.000 C 
ATOM     25  C   UNL     1       6.713   4.884  14.600  0.00  0.00    +0.000 C 
ENDBRANCH  18  25
ENDBRANCH  17  23
ENDBRANCH  15  17
ENDBRANCH   1  15
TORSDOF 8
ENDMDL
MODEL 7
REMARK VINA RESULT:      -7.2      2.226      5.901
REMARK  Name = 
REMARK  11 active torsions:
REMARK  status: ('A' for Active; 'I' for Inactive)
REMARK    1  A    between atoms: C_1  and  C_2
REMARK    2  A    between atoms: C_2  and  C_3
REMARK    3  A    between atoms: C_6  and  C_7
REMARK    4  A    between atoms: C_8  and  C_9
REMARK    5  A    between atoms: C_9  and  N_10
REMARK    6  A    between atoms: N_10  and  C_11
REMARK    7  A    between atoms: C_11  and  C_12
REMARK    8  A    between atoms: C_11  and  C_18
REMARK    9  A    between atoms: N_15  and  C_16
REMARK   10  A    between atoms: C_18  and  C_19
REMARK   11  A    between atoms: C_19  and  O_20
REMARK                            x       y       z     vdW  Elec       q    Type
REMARK                         _______ _______ _______ _____ _____    ______ ____
ROOT
ATOM      1  C   UNL     1       5.094   5.584  17.308  0.00  0.00    +0.000 C 
ENDROOT
BRANCH   1   2
ATOM      2  C   UNL     1       4.715   4.298  17.984  0.00  0.00    +0.000 A 
ATOM      3  C   UNL     1       3.939   3.249  17.430  0.00  0.00    +0.000 A 
ATOM      4  N   UNL     1       3.702   2.268  18.301  0.00  0.00    +0.000 NA
ATOM      5  N   UNL     1       4.327   2.676  19.419  0.00  0.00    +0.000 N 
ATOM      6  C   UNL     1       4.246   1.888  20.625  0.00  0.00    +0.000 C 
ATOM      7  C   UNL     1       4.965   3.877  19.275  0.00  0.00    +0.000 A 
ENDBRANCH   1   2
BRANCH   1   8
ATOM      8  C   UNL     1       6.633   5.861  17.361  0.00  0.00    +0.000 C 
ATOM      9  C   UNL     1       7.012   7.344  17.021  0.00  0.00    +0.000 C 
ATOM     10  C   UNL     1       8.014   7.333  18.190  0.00  0.00    +0.000 C 
ATOM     11  C   UNL     1       7.283   6.107  18.768  0.00  0.00    +0.000 C 
BRANCH   8  12
ATOM     12  C   UNL     1       7.387   4.827  16.488  0.00  0.00    +0.000 C 
BRANCH  12  13
ATOM     13  O   UNL     1       8.229   3.971  17.258  0.00  0.00    +0.000 OA
ATOM     14  H   UNL     1       7.833   3.875  18.140  0.00  0.00    +0.000 HD
ENDBRANCH  12  13
ENDBRANCH   8  12
ENDBRANCH   1   8
BRANCH   1  15
ATOM     15  N   UNL     1       4.313   6.681  17.910  0.00  0.00    +0.000 NA
ATOM     16  H   UNL     1       4.552   6.753  18.897  0.00  0.00    +0.000 HD
BRANCH  15  17
ATOM     17  C   UNL     1       2.864   6.500  17.801  0.00  0.00    +0.000 C 
BRANCH  17  23
ATOM     18  C   UNL     1       1.931   6.637  20.199  0.00  0.00    +0.000 A 
ATOM     19  O   UNL     1       1.334   7.581  20.973  0.00  0.00    +0.000 OA
ATOM     20  N   UNL     1       1.239   8.765  20.266  0.00  0.00    +0.000 NA
ATOM     21  C   UNL     1       1.786   8.520  19.071  0.00  0.00    +0.000 A 
ATOM     22  C   UNL     1       1.868   9.598  18.056  0.00  0.00    +0.000 C 
ATOM     23  C   UNL     1       2.232   7.177  18.963  0.00  0.00    +0.000 A 
BRANCH  18  25
ATOM     24  C   UNL     1       1.139   4.282  20.304  0.00  0.00    +0.000 C 
ATOM     25  C   UNL     1       2.132   5.307  20.824  0.00  0.00    +0.000 C 
ENDBRANCH  18  25
ENDBRANCH  17  23
ENDBRANCH  15  17
ENDBRANCH   1  15
TORSDOF 8
ENDMDL
MODEL 8
REMARK VINA RESULT:      -7.2      1.206      2.611
REMARK  Name = 
REMARK  11 active torsions:
REMARK  status: ('A' for Active; 'I' for Inactive)
REMARK    1  A    between atoms: C_1  and  C_2
REMARK    2  A    between atoms: C_2  and  C_3
REMARK    3  A    between atoms: C_6  and  C_7
REMARK    4  A    between atoms: C_8  and  C_9
REMARK    5  A    between atoms: C_9  and  N_10
REMARK    6  A    between atoms: N_10  and  C_11
REMARK    7  A    between atoms: C_11  and  C_12
REMARK    8  A    between atoms: C_11  and  C_18
REMARK    9  A    between atoms: N_15  and  C_16
REMARK   10  A    between atoms: C_18  and  C_19
REMARK   11  A    between atoms: C_19  and  O_20
REMARK                            x       y       z     vdW  Elec       q    Type
REMARK                         _______ _______ _______ _____ _____    ______ ____
ROOT
ATOM      1  C   UNL     1       2.936   4.723  17.943  0.00  0.00    +0.000 C 
ENDROOT
BRANCH   1   2
ATOM      2  C   UNL     1       2.593   6.077  18.493  0.00  0.00    +0.000 A 
ATOM      3  C   UNL     1       2.404   6.412  19.857  0.00  0.00    +0.000 A 
ATOM      4  N   UNL     1       2.028   7.680  20.030  0.00  0.00    +0.000 NA
ATOM      5  N   UNL     1       1.977   8.170  18.779  0.00  0.00    +0.000 N 
ATOM      6  C   UNL     1       1.544   9.527  18.548  0.00  0.00    +0.000 C 
ATOM      7  C   UNL     1       2.325   7.256  17.824  0.00  0.00    +0.000 A 
ENDBRANCH   1   2
BRANCH   1   8
ATOM      8  C   UNL     1       2.431   3.557  18.855  0.00  0.00    +0.000 C 
ATOM      9  C   UNL     1       0.994   3.795  19.436  0.00  0.00    +0.000 C 
ATOM     10  C   UNL     1       0.649   2.329  19.124  0.00  0.00    +0.000 C 
ATOM     11  C   UNL     1       1.844   2.282  18.154  0.00  0.00    +0.000 C 
BRANCH   8  12
ATOM     12  C   UNL     1       3.483   3.249  19.949  0.00  0.00    +0.000 C 
BRANCH  12  13
ATOM     13  O   UNL     1       4.415   2.246  19.546  0.00  0.00    +0.000 OA
ATOM     14  H   UNL     1       4.169   1.415  19.984  0.00  0.00    +0.000 HD
ENDBRANCH  12  13
ENDBRANCH   8  12
ENDBRANCH   1   8
BRANCH   1  15
ATOM     15  N   UNL     1       4.393   4.661  17.720  0.00  0.00    +0.000 NA
ATOM     16  H   UNL     1       4.775   5.603  17.768  0.00  0.00    +0.000 HD
BRANCH  15  17
ATOM     17  C   UNL     1       4.766   4.080  16.428  0.00  0.00    +0.000 C 
BRANCH  17  23
ATOM     18  C   UNL     1       6.720   5.752  16.600  0.00  0.00    +0.000 A 
ATOM     19  O   UNL     1       7.727   6.179  15.795  0.00  0.00    +0.000 OA
ATOM     20  N   UNL     1       7.670   5.506  14.588  0.00  0.00    +0.000 NA
ATOM     21  C   UNL     1       6.627   4.675  14.684  0.00  0.00    +0.000 A 
ATOM     22  C   UNL     1       6.287   3.775  13.556  0.00  0.00    +0.000 C 
ATOM     23  C   UNL     1       5.972   4.797  15.938  0.00  0.00    +0.000 A 
BRANCH  18  25
ATOM     24  C   UNL     1       8.032   6.500  18.576  0.00  0.00    +0.000 C 
ATOM     25  C   UNL     1       6.655   6.364  17.950  0.00  0.00    +0.000 C 
ENDBRANCH  18  25
ENDBRANCH  17  23
ENDBRANCH  15  17
ENDBRANCH   1  15
TORSDOF 8
ENDMDL
MODEL 9
REMARK VINA RESULT:      -7.1      1.505      1.789
REMARK  Name = 
REMARK  11 active torsions:
REMARK  status: ('A' for Active; 'I' for Inactive)
REMARK    1  A    between atoms: C_1  and  C_2
REMARK    2  A    between atoms: C_2  and  C_3
REMARK    3  A    between atoms: C_6  and  C_7
REMARK    4  A    between atoms: C_8  and  C_9
REMARK    5  A    between atoms: C_9  and  N_10
REMARK    6  A    between atoms: N_10  and  C_11
REMARK    7  A    between atoms: C_11  and  C_12
REMARK    8  A    between atoms: C_11  and  C_18
REMARK    9  A    between atoms: N_15  and  C_16
REMARK   10  A    between atoms: C_18  and  C_19
REMARK   11  A    between atoms: C_19  and  O_20
REMARK                            x       y       z     vdW  Elec       q    Type
REMARK                         _______ _______ _______ _____ _____    ______ ____
ROOT
ATOM      1  C   UNL     1       2.936   5.812  18.413  0.00  0.00    +0.000 C 
ENDROOT
BRANCH   1   2
ATOM      2  C   UNL     1       2.351   7.136  18.811  0.00  0.00    +0.000 A 
ATOM      3  C   UNL     1       2.012   7.550  20.123  0.00  0.00    +0.000 A 
ATOM      4  N   UNL     1       1.435   8.752  20.152  0.00  0.00    +0.000 NA
ATOM      5  N   UNL     1       1.404   9.122  18.860  0.00  0.00    +0.000 N 
ATOM      6  C   UNL     1       0.787  10.368  18.476  0.00  0.00    +0.000 C 
ATOM      7  C   UNL     1       1.957   8.197  18.019  0.00  0.00    +0.000 A 
ENDBRANCH   1   2
BRANCH   1   8
ATOM      8  C   UNL     1       2.226   4.606  19.111  0.00  0.00    +0.000 C 
ATOM      9  C   UNL     1       3.205   3.689  19.923  0.00  0.00    +0.000 C 
ATOM     10  C   UNL     1       2.171   3.630  21.061  0.00  0.00    +0.000 C 
ATOM     11  C   UNL     1       1.490   4.877  20.470  0.00  0.00    +0.000 C 
BRANCH   8  12
ATOM     12  C   UNL     1       1.378   3.823  18.078  0.00  0.00    +0.000 C 
BRANCH  12  13
ATOM     13  O   UNL     1       2.158   3.328  16.991  0.00  0.00    +0.000 OA
ATOM     14  H   UNL     1       2.673   2.570  17.312  0.00  0.00    +0.000 HD
ENDBRANCH  12  13
ENDBRANCH   8  12
ENDBRANCH   1   8
BRANCH   1  15
ATOM     15  N   UNL     1       4.386   5.836  18.690  0.00  0.00    +0.000 NA
ATOM     16  H   UNL     1       4.545   6.316  19.573  0.00  0.00    +0.000 HD
BRANCH  15  17
ATOM     17  C   UNL     1       5.171   6.509  17.654  0.00  0.00    +0.000 C 
BRANCH  17  23
ATOM     18  C   UNL     1       6.390   4.887  16.066  0.00  0.00    +0.000 A 
ATOM     19  O   UNL     1       7.526   4.143  16.097  0.00  0.00    +0.000 OA
ATOM     20  N   UNL     1       8.182   4.352  17.296  0.00  0.00    +0.000 NA
ATOM     21  C   UNL     1       7.431   5.226  17.973  0.00  0.00    +0.000 A 
ATOM     22  C   UNL     1       7.860   5.693  19.314  0.00  0.00    +0.000 C 
ATOM     23  C   UNL     1       6.268   5.593  17.247  0.00  0.00    +0.000 A 
BRANCH  18  25
ATOM     24  C   UNL     1       6.251   3.931  13.774  0.00  0.00    +0.000 C 
ATOM     25  C   UNL     1       5.578   4.793  14.828  0.00  0.00    +0.000 C 
ENDBRANCH  18  25
ENDBRANCH  17  23
ENDBRANCH  15  17
ENDBRANCH   1  15
TORSDOF 8
ENDMDL
