MODEL 1
REMARK VINA RESULT:      -7.1      0.000      0.000
REMARK  Name = 
REMARK  4 active torsions:
REMARK  status: ('A' for Active; 'I' for Inactive)
REMARK    1  A    between atoms: C_1  and  C_2
REMARK    2  A    between atoms: C_2  and  S_3
REMARK    3  A    between atoms: S_3  and  C_4
REMARK    4  A    between atoms: C_7  and  C_8
REMARK                            x       y       z     vdW  Elec       q    Type
REMARK                         _______ _______ _______ _____ _____    ______ ____
ROOT
ATOM      1  C   UNL     1       5.912   4.546  17.174  0.00  0.00    +0.000 A 
ATOM      2  C   UNL     1       6.679   4.781  18.296  0.00  0.00    +0.000 A 
ATOM      3  N   UNL     1       5.874   4.632  19.392  0.00  0.00    +0.000 N 
ATOM      4  C   UNL     1       4.603   4.269  19.003  0.00  0.00    +0.000 A 
ATOM      5  C   UNL     1       3.473   3.987  19.781  0.00  0.00    +0.000 A 
ATOM      6  C   UNL     1       2.303   3.612  19.114  0.00  0.00    +0.000 A 
ATOM      7  C   UNL     1       2.264   3.539  17.724  0.00  0.00    +0.000 A 
ATOM      8  C   UNL     1       3.397   3.841  16.959  0.00  0.00    +0.000 A 
ATOM      9  C   UNL     1       4.597   4.208  17.606  0.00  0.00    +0.000 A 
ATOM     10  H   UNL     1       6.165   4.757  20.352  0.00  0.00    +0.000 HD
ENDROOT
BRANCH   1  14
ATOM     11  C   UNL     1       6.732   4.291  13.693  0.00  0.00    +0.000 A 
ATOM     12  N   UNL     1       7.551   5.262  14.036  0.00  0.00    +0.000 NA
ATOM     13  N   UNL     1       7.347   5.490  15.381  0.00  0.00    +0.000 NA
ATOM     14  C   UNL     1       6.426   4.632  15.780  0.00  0.00    +0.000 A 
ATOM     15  O   UNL     1       5.992   3.836  14.747  0.00  0.00    +0.000 OA
BRANCH  11  16
ATOM     16  S   UNL     1       6.561   3.648  12.089  0.00  0.00    +0.000 S 
BRANCH  16  18
ATOM     17  C   UNL     1       4.100   3.433  10.917  0.00  0.00    +0.000 C 
ATOM     18  C   UNL     1       4.861   3.020  12.166  0.00  0.00    +0.000 C 
ENDBRANCH  16  18
ENDBRANCH  11  16
ENDBRANCH   1  14
TORSDOF 3
ENDMDL
MODEL 2
REMARK VINA RESULT:      -7.1      2.642      6.003
REMARK  Name = 
REMARK  4 active torsions:
REMARK  status: ('A' for Active; 'I' for Inactive)
REMARK    1  A    between atoms: C_1  and  C_2
REMARK    2  A    between atoms: C_2  and  S_3
REMARK    3  A    between atoms: S_3  and  C_4
REMARK    4  A    between atoms: C_7  and  C_8
REMARK                            x       y       z     vdW  Elec       q    Type
REMARK                         _______ _______ _______ _____ _____    ______ ____
ROOT
ATOM      1  C   UNL     1       5.637   4.860  15.958  0.00  0.00    +0.000 A 
ATOM      2  C   UNL     1       6.689   5.654  16.365  0.00  0.00    +0.000 A 
ATOM      3  N   UNL     1       7.588   5.717  15.336  0.00  0.00    +0.000 N 
ATOM      4  C   UNL     1       7.122   5.006  14.252  0.00  0.00    +0.000 A 
ATOM      5  C   UNL     1       7.693   4.822  12.987  0.00  0.00    +0.000 A 
ATOM      6  C   UNL     1       6.979   4.063  12.056  0.00  0.00    +0.000 A 
ATOM      7  C   UNL     1       5.749   3.498  12.385  0.00  0.00    +0.000 A 
ATOM      8  C   UNL     1       5.199   3.677  13.660  0.00  0.00    +0.000 A 
ATOM      9  C   UNL     1       5.891   4.451  14.616  0.00  0.00    +0.000 A 
ATOM     10  H   UNL     1       8.464   6.222  15.356  0.00  0.00    +0.000 HD
ENDROOT
BRANCH   1  14
ATOM     11  C   UNL     1       2.979   3.465  17.920  0.00  0.00    +0.000 A 
ATOM     12  N   UNL     1       2.707   4.744  18.067  0.00  0.00    +0.000 NA
ATOM     13  N   UNL     1       3.669   5.433  17.358  0.00  0.00    +0.000 NA
ATOM     14  C   UNL     1       4.462   4.531  16.809  0.00  0.00    +0.000 A 
ATOM     15  O   UNL     1       4.074   3.252  17.129  0.00  0.00    +0.000 OA
BRANCH  11  16
ATOM     16  S   UNL     1       2.091   2.163  18.649  0.00  0.00    +0.000 S 
BRANCH  16  18
ATOM     17  C   UNL     1       1.377   2.993  21.154  0.00  0.00    +0.000 C 
ATOM     18  C   UNL     1       0.945   3.097  19.701  0.00  0.00    +0.000 C 
ENDBRANCH  16  18
ENDBRANCH  11  16
ENDBRANCH   1  14
TORSDOF 3
ENDMDL
MODEL 3
REMARK VINA RESULT:      -7.0      1.910      2.656
REMARK  Name = 
REMARK  4 active torsions:
REMARK  status: ('A' for Active; 'I' for Inactive)
REMARK    1  A    between atoms: C_1  and  C_2
REMARK    2  A    between atoms: C_2  and  S_3
REMARK    3  A    between atoms: S_3  and  C_4
REMARK    4  A    between atoms: C_7  and  C_8
REMARK                            x       y       z     vdW  Elec       q    Type
REMARK                         _______ _______ _______ _____ _____    ______ ____
ROOT
ATOM      1  C   UNL     1       4.672   3.942  18.828  0.00  0.00    +0.000 A 
ATOM      2  C   UNL     1       4.458   2.712  19.413  0.00  0.00    +0.000 A 
ATOM      3  N   UNL     1       3.407   2.838  20.278  0.00  0.00    +0.000 N 
ATOM      4  C   UNL     1       2.909   4.122  20.240  0.00  0.00    +0.000 A 
ATOM      5  C   UNL     1       1.831   4.687  20.931  0.00  0.00    +0.000 A 
ATOM      6  C   UNL     1       1.527   6.027  20.676  0.00  0.00    +0.000 A 
ATOM      7  C   UNL     1       2.283   6.774  19.776  0.00  0.00    +0.000 A 
ATOM      8  C   UNL     1       3.369   6.200  19.106  0.00  0.00    +0.000 A 
ATOM      9  C   UNL     1       3.691   4.844  19.332  0.00  0.00    +0.000 A 
ATOM     10  H   UNL     1       3.034   2.097  20.857  0.00  0.00    +0.000 HD
ENDROOT
BRANCH   1  14
ATOM     11  C   UNL     1       6.803   4.565  16.012  0.00  0.00    +0.000 A 
ATOM     12  N   UNL     1       7.691   4.662  16.978  0.00  0.00    +0.000 NA
ATOM     13  N   UNL     1       7.009   4.449  18.158  0.00  0.00    +0.000 NA
ATOM     14  C   UNL     1       5.748   4.220  17.837  0.00  0.00    +0.000 A 
ATOM     15  O   UNL     1       5.551   4.278  16.479  0.00  0.00    +0.000 OA
BRANCH  11  16
ATOM     16  S   UNL     1       7.136   4.792  14.322  0.00  0.00    +0.000 S 
BRANCH  16  18
ATOM     17  C   UNL     1       6.159   3.321  12.235  0.00  0.00    +0.000 C 
ATOM     18  C   UNL     1       5.751   3.878  13.589  0.00  0.00    +0.000 C 
ENDBRANCH  16  18
ENDBRANCH  11  16
ENDBRANCH   1  14
TORSDOF 3
ENDMDL
MODEL 4
REMARK VINA RESULT:      -7.0      1.555      1.672
REMARK  Name = 
REMARK  4 active torsions:
REMARK  status: ('A' for Active; 'I' for Inactive)
REMARK    1  A    between atoms: C_1  and  C_2
REMARK    2  A    between atoms: C_2  and  S_3
REMARK    3  A    between atoms: S_3  and  C_4
REMARK    4  A    between atoms: C_7  and  C_8
REMARK                            x       y       z     vdW  Elec       q    Type
REMARK                         _______ _______ _______ _____ _____    ______ ____
ROOT
ATOM      1  C   UNL     1       4.589   5.549  16.765  0.00  0.00    +0.000 A 
ATOM      2  C   UNL     1       4.347   6.773  17.353  0.00  0.00    +0.000 A 
ATOM      3  N   UNL     1       3.272   6.632  18.186  0.00  0.00    +0.000 N 
ATOM      4  C   UNL     1       2.832   5.326  18.179  0.00  0.00    +0.000 A 
ATOM      5  C   UNL     1       1.788   4.727  18.894  0.00  0.00    +0.000 A 
ATOM      6  C   UNL     1       1.577   3.358  18.710  0.00  0.00    +0.000 A 
ATOM      7  C   UNL     1       2.370   2.623  17.832  0.00  0.00    +0.000 A 
ATOM      8  C   UNL     1       3.399   3.240  17.110  0.00  0.00    +0.000 A 
ATOM      9  C   UNL     1       3.645   4.618  17.287  0.00  0.00    +0.000 A 
ATOM     10  H   UNL     1       2.862   7.370  18.741  0.00  0.00    +0.000 HD
ENDROOT
BRANCH   1  14
ATOM     11  C   UNL     1       6.740   4.672  14.032  0.00  0.00    +0.000 A 
ATOM     12  N   UNL     1       7.614   5.278  14.808  0.00  0.00    +0.000 NA
ATOM     13  N   UNL     1       6.922   5.692  15.928  0.00  0.00    +0.000 NA
ATOM     14  C   UNL     1       5.671   5.299  15.774  0.00  0.00    +0.000 A 
ATOM     15  O   UNL     1       5.489   4.640  14.582  0.00  0.00    +0.000 OA
BRANCH  11  16
ATOM     16  S   UNL     1       7.088   3.998  12.470  0.00  0.00    +0.000 S 
BRANCH  16  18
ATOM     17  C   UNL     1       5.753   1.855  11.421  0.00  0.00    +0.000 C 
ATOM     18  C   UNL     1       5.505   3.191  12.101  0.00  0.00    +0.000 C 
ENDBRANCH  16  18
ENDBRANCH  11  16
ENDBRANCH   1  14
TORSDOF 3
ENDMDL
MODEL 5
REMARK VINA RESULT:      -6.9      1.721      2.476
REMARK  Name = 
REMARK  4 active torsions:
REMARK  status: ('A' for Active; 'I' for Inactive)
REMARK    1  A    between atoms: C_1  and  C_2
REMARK    2  A    between atoms: C_2  and  S_3
REMARK    3  A    between atoms: S_3  and  C_4
REMARK    4  A    between atoms: C_7  and  C_8
REMARK                            x       y       z     vdW  Elec       q    Type
REMARK                         _______ _______ _______ _____ _____    ______ ____
ROOT
ATOM      1  C   UNL     1       4.246   4.998  18.661  0.00  0.00    +0.000 A 
ATOM      2  C   UNL     1       4.037   6.111  19.448  0.00  0.00    +0.000 A 
ATOM      3  N   UNL     1       2.860   5.933  20.120  0.00  0.00    +0.000 N 
ATOM      4  C   UNL     1       2.316   4.705  19.813  0.00  0.00    +0.000 A 
ATOM      5  C   UNL     1       1.146   4.098  20.284  0.00  0.00    +0.000 A 
ATOM      6  C   UNL     1       0.845   2.816  19.816  0.00  0.00    +0.000 A 
ATOM      7  C   UNL     1       1.675   2.176  18.900  0.00  0.00    +0.000 A 
ATOM      8  C   UNL     1       2.833   2.803  18.424  0.00  0.00    +0.000 A 
ATOM      9  C   UNL     1       3.170   4.092  18.890  0.00  0.00    +0.000 A 
ATOM     10  H   UNL     1       2.448   6.596  20.763  0.00  0.00    +0.000 HD
ENDROOT
BRANCH   1  14
ATOM     11  C   UNL     1       6.662   4.730  16.025  0.00  0.00    +0.000 A 
ATOM     12  N   UNL     1       7.430   4.432  17.051  0.00  0.00    +0.000 NA
ATOM     13  N   UNL     1       6.628   4.500  18.172  0.00  0.00    +0.000 NA
ATOM     14  C   UNL     1       5.416   4.821  17.759  0.00  0.00    +0.000 A 
ATOM     15  O   UNL     1       5.371   4.981  16.395  0.00  0.00    +0.000 OA
BRANCH  11  16
ATOM     16  S   UNL     1       7.193   4.829  14.375  0.00  0.00    +0.000 S 
BRANCH  16  18
ATOM     17  C   UNL     1       6.429   3.422  12.158  0.00  0.00    +0.000 C 
ATOM     18  C   UNL     1       5.978   3.745  13.573  0.00  0.00    +0.000 C 
ENDBRANCH  16  18
ENDBRANCH  11  16
ENDBRANCH   1  14
TORSDOF 3
ENDMDL
MODEL 6
REMARK VINA RESULT:      -6.9      2.044      2.659
REMARK  Name = 
REMARK  4 active torsions:
REMARK  status: ('A' for Active; 'I' for Inactive)
REMARK    1  A    between atoms: C_1  and  C_2
REMARK    2  A    between atoms: C_2  and  S_3
REMARK    3  A    between atoms: S_3  and  C_4
REMARK    4  A    between atoms: C_7  and  C_8
REMARK                            x       y       z     vdW  Elec       q    Type
REMARK                         _______ _______ _______ _____ _____    ______ ____
ROOT
ATOM      1  C   UNL     1       3.516   5.632  18.379  0.00  0.00    +0.000 A 
ATOM      2  C   UNL     1       3.283   6.540  19.390  0.00  0.00    +0.000 A 
ATOM      3  N   UNL     1       2.281   6.042  20.177  0.00  0.00    +0.000 N 
ATOM      4  C   UNL     1       1.883   4.806  19.716  0.00  0.00    +0.000 A 
ATOM      5  C   UNL     1       0.917   3.928  20.223  0.00  0.00    +0.000 A 
ATOM      6  C   UNL     1       0.735   2.711  19.560  0.00  0.00    +0.000 A 
ATOM      7  C   UNL     1       1.479   2.394  18.427  0.00  0.00    +0.000 A 
ATOM      8  C   UNL     1       2.429   3.291  17.922  0.00  0.00    +0.000 A 
ATOM      9  C   UNL     1       2.645   4.521  18.578  0.00  0.00    +0.000 A 
ATOM     10  H   UNL     1       1.893   6.502  20.989  0.00  0.00    +0.000 HD
ENDROOT
BRANCH   1  14
ATOM     11  C   UNL     1       5.898   5.466  15.704  0.00  0.00    +0.000 A 
ATOM     12  N   UNL     1       5.911   6.764  15.923  0.00  0.00    +0.000 NA
ATOM     13  N   UNL     1       5.016   6.996  16.947  0.00  0.00    +0.000 NA
ATOM     14  C   UNL     1       4.524   5.823  17.300  0.00  0.00    +0.000 A 
ATOM     15  O   UNL     1       5.048   4.803  16.544  0.00  0.00    +0.000 OA
BRANCH  11  16
ATOM     16  S   UNL     1       6.822   4.650  14.480  0.00  0.00    +0.000 S 
BRANCH  16  18
ATOM     17  C   UNL     1       6.070   3.267  12.245  0.00  0.00    +0.000 C 
ATOM     18  C   UNL     1       5.486   3.963  13.463  0.00  0.00    +0.000 C 
ENDBRANCH  16  18
ENDBRANCH  11  16
ENDBRANCH   1  14
TORSDOF 3
ENDMDL
MODEL 7
REMARK VINA RESULT:      -6.9      1.895      2.056
REMARK  Name = 
REMARK  4 active torsions:
REMARK  status: ('A' for Active; 'I' for Inactive)
REMARK    1  A    between atoms: C_1  and  C_2
REMARK    2  A    between atoms: C_2  and  S_3
REMARK    3  A    between atoms: S_3  and  C_4
REMARK    4  A    between atoms: C_7  and  C_8
REMARK                            x       y       z     vdW  Elec       q    Type
REMARK                         _______ _______ _______ _____ _____    ______ ____
ROOT
ATOM      1  C   UNL     1       4.961   4.850  17.011  0.00  0.00    +0.000 A 
ATOM      2  C   UNL     1       4.761   3.735  17.796  0.00  0.00    +0.000 A 
ATOM      3  N   UNL     1       3.876   4.071  18.783  0.00  0.00    +0.000 N 
ATOM      4  C   UNL     1       3.468   5.378  18.632  0.00  0.00    +0.000 A 
ATOM      5  C   UNL     1       2.560   6.128  19.389  0.00  0.00    +0.000 A 
ATOM      6  C   UNL     1       2.311   7.444  18.988  0.00  0.00    +0.000 A 
ATOM      7  C   UNL     1       2.960   7.991  17.884  0.00  0.00    +0.000 A 
ATOM      8  C   UNL     1       3.880   7.234  17.149  0.00  0.00    +0.000 A 
ATOM      9  C   UNL     1       4.140   5.898  17.520  0.00  0.00    +0.000 A 
ATOM     10  H   UNL     1       3.553   3.452  19.514  0.00  0.00    +0.000 HD
ENDROOT
BRANCH   1  14
ATOM     11  C   UNL     1       6.716   4.622  13.892  0.00  0.00    +0.000 A 
ATOM     12  N   UNL     1       7.590   5.326  14.580  0.00  0.00    +0.000 NA
ATOM     13  N   UNL     1       7.045   5.510  15.834  0.00  0.00    +0.000 NA
ATOM     14  C   UNL     1       5.878   4.893  15.839  0.00  0.00    +0.000 A 
ATOM     15  O   UNL     1       5.609   4.304  14.627  0.00  0.00    +0.000 OA
BRANCH  11  16
ATOM     16  S   UNL     1       6.898   4.150  12.231  0.00  0.00    +0.000 S 
BRANCH  16  18
ATOM     17  C   UNL     1       4.434   3.281  11.426  0.00  0.00    +0.000 C 
ATOM     18  C   UNL     1       5.688   2.801  12.138  0.00  0.00    +0.000 C 
ENDBRANCH  16  18
ENDBRANCH  11  16
ENDBRANCH   1  14
TORSDOF 3
ENDMDL
MODEL 8
REMARK VINA RESULT:      -6.7      2.907      6.145
REMARK  Name = 
REMARK  4 active torsions:
REMARK  status: ('A' for Active; 'I' for Inactive)
REMARK    1  A    between atoms: C_1  and  C_2
REMARK    2  A    between atoms: C_2  and  S_3
REMARK    3  A    between atoms: S_3  and  C_4
REMARK    4  A    between atoms: C_7  and  C_8
REMARK                            x       y       z     vdW  Elec       q    Type
REMARK                         _______ _______ _______ _____ _____    ______ ____
ROOT
ATOM      1  C   UNL     1       5.733   4.766  16.183  0.00  0.00    +0.000 A 
ATOM      2  C   UNL     1       6.727   5.643  16.563  0.00  0.00    +0.000 A 
ATOM      3  N   UNL     1       7.570   5.808  15.499  0.00  0.00    +0.000 N 
ATOM      4  C   UNL     1       7.121   5.079  14.418  0.00  0.00    +0.000 A 
ATOM      5  C   UNL     1       7.649   4.973  13.126  0.00  0.00    +0.000 A 
ATOM      6  C   UNL     1       6.964   4.171  12.209  0.00  0.00    +0.000 A 
ATOM      7  C   UNL     1       5.805   3.492  12.577  0.00  0.00    +0.000 A 
ATOM      8  C   UNL     1       5.299   3.594  13.878  0.00  0.00    +0.000 A 
ATOM      9  C   UNL     1       5.962   4.408  14.822  0.00  0.00    +0.000 A 
ATOM     10  H   UNL     1       8.397   6.388  15.492  0.00  0.00    +0.000 HD
ENDROOT
BRANCH   1  14
ATOM     11  C   UNL     1       3.066   4.282  18.531  0.00  0.00    +0.000 A 
ATOM     12  N   UNL     1       3.150   3.061  18.046  0.00  0.00    +0.000 NA
ATOM     13  N   UNL     1       4.153   3.084  17.099  0.00  0.00    +0.000 NA
ATOM     14  C   UNL     1       4.631   4.315  17.076  0.00  0.00    +0.000 A 
ATOM     15  O   UNL     1       3.980   5.130  17.969  0.00  0.00    +0.000 OA
BRANCH  11  16
ATOM     16  S   UNL     1       1.925   4.805  19.731  0.00  0.00    +0.000 S 
BRANCH  16  18
ATOM     17  C   UNL     1       1.688   2.773  21.544  0.00  0.00    +0.000 C 
ATOM     18  C   UNL     1       1.175   3.216  20.184  0.00  0.00    +0.000 C 
ENDBRANCH  16  18
ENDBRANCH  11  16
ENDBRANCH   1  14
TORSDOF 3
ENDMDL
MODEL 9
REMARK VINA RESULT:      -6.6      2.914      6.080
REMARK  Name = 
REMARK  4 active torsions:
REMARK  status: ('A' for Active; 'I' for Inactive)
REMARK    1  A    between atoms: C_1  and  C_2
REMARK    2  A    between atoms: C_2  and  S_3
REMARK    3  A    between atoms: S_3  and  C_4
REMARK    4  A    between atoms: C_7  and  C_8
REMARK                            x       y       z     vdW  Elec       q    Type
REMARK                         _______ _______ _______ _____ _____    ______ ____
ROOT
ATOM      1  C   UNL     1       5.782   4.558  16.148  0.00  0.00    +0.000 A 
ATOM      2  C   UNL     1       6.736   5.455  16.578  0.00  0.00    +0.000 A 
ATOM      3  N   UNL     1       7.573   5.711  15.527  0.00  0.00    +0.000 N 
ATOM      4  C   UNL     1       7.158   5.023  14.408  0.00  0.00    +0.000 A 
ATOM      5  C   UNL     1       7.692   5.007  13.114  0.00  0.00    +0.000 A 
ATOM      6  C   UNL     1       7.043   4.227  12.153  0.00  0.00    +0.000 A 
ATOM      7  C   UNL     1       5.914   3.481  12.480  0.00  0.00    +0.000 A 
ATOM      8  C   UNL     1       5.402   3.493  13.783  0.00  0.00    +0.000 A 
ATOM      9  C   UNL     1       6.028   4.283  14.771  0.00  0.00    +0.000 A 
ATOM     10  H   UNL     1       8.376   6.326  15.555  0.00  0.00    +0.000 HD
ENDROOT
BRANCH   1  14
ATOM     11  C   UNL     1       3.606   3.264  18.688  0.00  0.00    +0.000 A 
ATOM     12  N   UNL     1       2.765   3.288  17.676  0.00  0.00    +0.000 NA
ATOM     13  N   UNL     1       3.466   3.782  16.595  0.00  0.00    +0.000 NA
ATOM     14  C   UNL     1       4.698   4.014  17.011  0.00  0.00    +0.000 A 
ATOM     15  O   UNL     1       4.853   3.703  18.340  0.00  0.00    +0.000 OA
BRANCH  11  16
ATOM     16  S   UNL     1       3.212   2.762  20.303  0.00  0.00    +0.000 S 
BRANCH  16  18
ATOM     17  C   UNL     1       1.684   5.003  20.648  0.00  0.00    +0.000 C 
ATOM     18  C   UNL     1       1.563   3.497  20.483  0.00  0.00    +0.000 C 
ENDBRANCH  16  18
ENDBRANCH  11  16
ENDBRANCH   1  14
TORSDOF 3
ENDMDL
