MODEL 1
REMARK VINA RESULT:      -7.6      0.000      0.000
REMARK  Name = 
REMARK  6 active torsions:
REMARK  status: ('A' for Active; 'I' for Inactive)
REMARK    1  A    between atoms: C_1  and  O_2
REMARK    2  A    between atoms: O_2  and  C_3
REMARK    3  A    between atoms: C_8  and  N_9
REMARK    4  A    between atoms: N_12  and  C_13
REMARK    5  A    between atoms: C_13  and  C_14
REMARK    6  A    between atoms: C_14  and  C_15
REMARK                            x       y       z     vdW  Elec       q    Type
REMARK                         _______ _______ _______ _____ _____    ______ ____
ROOT
ATOM      1  N   UNL     1       2.196   7.030  20.503  0.00  0.00    +0.000 N 
ATOM      2  C   UNL     1       2.250   5.747  19.932  0.00  0.00    +0.000 C 
ATOM      3  O   UNL     1       1.853   5.415  18.830  0.00  0.00    +0.000 OA
ATOM      4  N   UNL     1       2.824   4.853  20.796  0.00  0.00    +0.000 N 
ATOM      5  H   UNL     1       2.579   7.143  21.416  0.00  0.00    +0.000 HD
ATOM      6  H   UNL     1       2.810   5.093  21.766  0.00  0.00    +0.000 HD
ENDROOT
BRANCH   1  12
ATOM      7  C   UNL     1       0.865   9.085  20.730  0.00  0.00    +0.000 A 
ATOM      8  C   UNL     1       0.284  10.237  20.163  0.00  0.00    +0.000 A 
ATOM      9  C   UNL     1       0.545  10.590  18.838  0.00  0.00    +0.000 A 
ATOM     10  C   UNL     1       1.356   9.771  18.070  0.00  0.00    +0.000 A 
ATOM     11  C   UNL     1       1.886   8.588  18.600  0.00  0.00    +0.000 A 
ATOM     12  C   UNL     1       1.654   8.220  19.929  0.00  0.00    +0.000 A 
BRANCH   7  14
ATOM     13  C   UNL     1      -0.206   9.638  22.774  0.00  0.00    +0.000 C 
ATOM     14  O   UNL     1       0.680   8.763  22.063  0.00  0.00    +0.000 OA
ENDBRANCH   7  14
ENDBRANCH   1  12
BRANCH   4  15
ATOM     15  C   UNL     1       2.873   3.408  20.539  0.00  0.00    +0.000 C 
BRANCH  15  16
ATOM     16  C   UNL     1       4.114   2.833  19.854  0.00  0.00    +0.000 C 
BRANCH  16  17
ATOM     17  C   UNL     1       4.661   3.533  18.647  0.00  0.00    +0.000 A 
ATOM     18  C   UNL     1       4.172   3.248  17.382  0.00  0.00    +0.000 A 
ATOM     19  N   UNL     1       5.239   3.440  16.561  0.00  0.00    +0.000 N 
ATOM     20  C   UNL     1       5.971   4.488  17.054  0.00  0.00    +0.000 A 
ATOM     21  C   UNL     1       6.856   5.345  16.395  0.00  0.00    +0.000 A 
ATOM     22  C   UNL     1       7.491   6.307  17.173  0.00  0.00    +0.000 A 
ATOM     23  C   UNL     1       7.336   6.312  18.557  0.00  0.00    +0.000 A 
ATOM     24  C   UNL     1       6.495   5.382  19.210  0.00  0.00    +0.000 A 
ATOM     25  C   UNL     1       5.714   4.500  18.431  0.00  0.00    +0.000 A 
ATOM     26  H   UNL     1       5.464   2.890  15.745  0.00  0.00    +0.000 HD
ENDBRANCH  16  17
ENDBRANCH  15  16
ENDBRANCH   4  15
TORSDOF 5
ENDMDL
MODEL 2
REMARK VINA RESULT:      -7.6      6.418      9.147
REMARK  Name = 
REMARK  6 active torsions:
REMARK  status: ('A' for Active; 'I' for Inactive)
REMARK    1  A    between atoms: C_1  and  O_2
REMARK    2  A    between atoms: O_2  and  C_3
REMARK    3  A    between atoms: C_8  and  N_9
REMARK    4  A    between atoms: N_12  and  C_13
REMARK    5  A    between atoms: C_13  and  C_14
REMARK    6  A    between atoms: C_14  and  C_15
REMARK                            x       y       z     vdW  Elec       q    Type
REMARK                         _______ _______ _______ _____ _____    ______ ____
ROOT
ATOM      1  N   UNL     1       6.608   7.498  17.014  0.00  0.00    +0.000 N 
ATOM      2  C   UNL     1       7.676   7.840  17.859  0.00  0.00    +0.000 C 
ATOM      3  O   UNL     1       8.222   7.126  18.681  0.00  0.00    +0.000 OA
ATOM      4  N   UNL     1       8.061   9.138  17.657  0.00  0.00    +0.000 N 
ATOM      5  H   UNL     1       6.281   8.195  16.381  0.00  0.00    +0.000 HD
ATOM      6  H   UNL     1       7.387   9.748  17.244  0.00  0.00    +0.000 HD
ENDROOT
BRANCH   1  12
ATOM      7  C   UNL     1       6.363   5.256  16.033  0.00  0.00    +0.000 A 
ATOM      8  C   UNL     1       5.660   4.040  15.916  0.00  0.00    +0.000 A 
ATOM      9  C   UNL     1       4.572   3.762  16.745  0.00  0.00    +0.000 A 
ATOM     10  C   UNL     1       4.165   4.715  17.665  0.00  0.00    +0.000 A 
ATOM     11  C   UNL     1       4.812   5.954  17.746  0.00  0.00    +0.000 A 
ATOM     12  C   UNL     1       5.915   6.251  16.939  0.00  0.00    +0.000 A 
BRANCH   7  14
ATOM     13  C   UNL     1       7.394   5.117  13.900  0.00  0.00    +0.000 C 
ATOM     14  O   UNL     1       7.491   5.516  15.274  0.00  0.00    +0.000 OA
ENDBRANCH   7  14
ENDBRANCH   1  12
BRANCH   4  15
ATOM     15  C   UNL     1       9.047   9.823  18.504  0.00  0.00    +0.000 C 
BRANCH  15  16
ATOM     16  C   UNL     1       8.978  11.347  18.613  0.00  0.00    +0.000 C 
BRANCH  16  17
ATOM     17  C   UNL     1      10.100  12.163  18.045  0.00  0.00    +0.000 A 
ATOM     18  C   UNL     1      11.267  11.555  17.610  0.00  0.00    +0.000 A 
ATOM     19  N   UNL     1      12.234  12.483  17.842  0.00  0.00    +0.000 N 
ATOM     20  C   UNL     1      11.696  13.722  17.612  0.00  0.00    +0.000 A 
ATOM     21  C   UNL     1      12.331  14.922  17.279  0.00  0.00    +0.000 A 
ATOM     22  C   UNL     1      11.519  16.042  17.141  0.00  0.00    +0.000 A 
ATOM     23  C   UNL     1      10.163  15.975  17.451  0.00  0.00    +0.000 A 
ATOM     24  C   UNL     1       9.558  14.765  17.863  0.00  0.00    +0.000 A 
ATOM     25  C   UNL     1      10.324  13.579  17.855  0.00  0.00    +0.000 A 
ATOM     26  H   UNL     1      13.174  12.292  18.154  0.00  0.00    +0.000 HD
ENDBRANCH  16  17
ENDBRANCH  15  16
ENDBRANCH   4  15
TORSDOF 5
ENDMDL
MODEL 3
REMARK VINA RESULT:      -7.6      2.080      3.927
REMARK  Name = 
REMARK  6 active torsions:
REMARK  status: ('A' for Active; 'I' for Inactive)
REMARK    1  A    between atoms: C_1  and  O_2
REMARK    2  A    between atoms: O_2  and  C_3
REMARK    3  A    between atoms: C_8  and  N_9
REMARK    4  A    between atoms: N_12  and  C_13
REMARK    5  A    between atoms: C_13  and  C_14
REMARK    6  A    between atoms: C_14  and  C_15
REMARK                            x       y       z     vdW  Elec       q    Type
REMARK                         _______ _______ _______ _____ _____    ______ ____
ROOT
ATOM      1  N   UNL     1       1.167   8.881  19.410  0.00  0.00    +0.000 N 
ATOM      2  C   UNL     1       2.111   8.761  18.375  0.00  0.00    +0.000 C 
ATOM      3  O   UNL     1       2.295   9.535  17.454  0.00  0.00    +0.000 OA
ATOM      4  N   UNL     1       2.843   7.613  18.515  0.00  0.00    +0.000 N 
ATOM      5  H   UNL     1       1.151   8.165  20.102  0.00  0.00    +0.000 HD
ATOM      6  H   UNL     1       2.435   6.882  19.060  0.00  0.00    +0.000 HD
ENDROOT
BRANCH   1  12
ATOM      7  C   UNL     1       0.097  10.543  20.872  0.00  0.00    +0.000 A 
ATOM      8  C   UNL     1      -0.878  11.538  21.088  0.00  0.00    +0.000 A 
ATOM      9  C   UNL     1      -1.686  11.985  20.041  0.00  0.00    +0.000 A 
ATOM     10  C   UNL     1      -1.544  11.411  18.788  0.00  0.00    +0.000 A 
ATOM     11  C   UNL     1      -0.625  10.376  18.575  0.00  0.00    +0.000 A 
ATOM     12  C   UNL     1       0.208   9.921  19.602  0.00  0.00    +0.000 A 
BRANCH   7  14
ATOM     13  C   UNL     1       0.321   9.521  23.001  0.00  0.00    +0.000 C 
ATOM     14  O   UNL     1       0.959  10.144  21.879  0.00  0.00    +0.000 OA
ENDBRANCH   7  14
ENDBRANCH   1  12
BRANCH   4  15
ATOM     15  C   UNL     1       3.795   7.141  17.500  0.00  0.00    +0.000 C 
BRANCH  15  16
ATOM     16  C   UNL     1       3.941   5.634  17.286  0.00  0.00    +0.000 C 
BRANCH  16  17
ATOM     17  C   UNL     1       4.008   4.738  18.485  0.00  0.00    +0.000 A 
ATOM     18  C   UNL     1       5.222   4.234  18.926  0.00  0.00    +0.000 A 
ATOM     19  N   UNL     1       4.907   3.027  19.467  0.00  0.00    +0.000 N 
ATOM     20  C   UNL     1       3.681   3.139  20.068  0.00  0.00    +0.000 A 
ATOM     21  C   UNL     1       3.121   2.381  21.100  0.00  0.00    +0.000 A 
ATOM     22  C   UNL     1       1.826   2.707  21.484  0.00  0.00    +0.000 A 
ATOM     23  C   UNL     1       1.096   3.657  20.774  0.00  0.00    +0.000 A 
ATOM     24  C   UNL     1       1.658   4.356  19.681  0.00  0.00    +0.000 A 
ATOM     25  C   UNL     1       3.023   4.162  19.373  0.00  0.00    +0.000 A 
ATOM     26  H   UNL     1       5.468   2.190  19.413  0.00  0.00    +0.000 HD
ENDBRANCH  16  17
ENDBRANCH  15  16
ENDBRANCH   4  15
TORSDOF 5
ENDMDL
MODEL 4
REMARK VINA RESULT:      -7.5      2.133      7.909
REMARK  Name = 
REMARK  6 active torsions:
REMARK  status: ('A' for Active; 'I' for Inactive)
REMARK    1  A    between atoms: C_1  and  O_2
REMARK    2  A    between atoms: O_2  and  C_3
REMARK    3  A    between atoms: C_8  and  N_9
REMARK    4  A    between atoms: N_12  and  C_13
REMARK    5  A    between atoms: C_13  and  C_14
REMARK    6  A    between atoms: C_14  and  C_15
REMARK                            x       y       z     vdW  Elec       q    Type
REMARK                         _______ _______ _______ _____ _____    ______ ____
ROOT
ATOM      1  N   UNL     1       3.214   6.113  17.729  0.00  0.00    +0.000 N 
ATOM      2  C   UNL     1       2.633   7.191  18.419  0.00  0.00    +0.000 C 
ATOM      3  O   UNL     1       2.109   7.165  19.517  0.00  0.00    +0.000 OA
ATOM      4  N   UNL     1       2.716   8.342  17.681  0.00  0.00    +0.000 N 
ATOM      5  H   UNL     1       3.617   6.301  16.838  0.00  0.00    +0.000 HD
ATOM      6  H   UNL     1       2.834   8.236  16.695  0.00  0.00    +0.000 HD
ENDROOT
BRANCH   1  12
ATOM      7  C   UNL     1       4.293   4.380  19.100  0.00  0.00    +0.000 A 
ATOM      8  C   UNL     1       4.425   3.032  19.489  0.00  0.00    +0.000 A 
ATOM      9  C   UNL     1       3.538   2.062  19.019  0.00  0.00    +0.000 A 
ATOM     10  C   UNL     1       2.542   2.435  18.130  0.00  0.00    +0.000 A 
ATOM     11  C   UNL     1       2.440   3.758  17.683  0.00  0.00    +0.000 A 
ATOM     12  C   UNL     1       3.306   4.752  18.152  0.00  0.00    +0.000 A 
BRANCH   7  14
ATOM     13  C   UNL     1       6.448   5.373  19.090  0.00  0.00    +0.000 C 
ATOM     14  O   UNL     1       5.115   5.366  19.617  0.00  0.00    +0.000 OA
ENDBRANCH   7  14
ENDBRANCH   1  12
BRANCH   4  15
ATOM     15  C   UNL     1       2.057   9.595  18.074  0.00  0.00    +0.000 C 
BRANCH  15  16
ATOM     16  C   UNL     1       0.532   9.670  17.991  0.00  0.00    +0.000 C 
BRANCH  16  17
ATOM     17  C   UNL     1      -0.217  10.364  19.088  0.00  0.00    +0.000 A 
ATOM     18  C   UNL     1      -0.999  11.476  18.819  0.00  0.00    +0.000 A 
ATOM     19  N   UNL     1      -0.927  12.218  19.957  0.00  0.00    +0.000 N 
ATOM     20  C   UNL     1      -0.881  11.357  21.022  0.00  0.00    +0.000 A 
ATOM     21  C   UNL     1      -1.239  11.570  22.356  0.00  0.00    +0.000 A 
ATOM     22  C   UNL     1      -1.046  10.508  23.232  0.00  0.00    +0.000 A 
ATOM     23  C   UNL     1      -0.407   9.346  22.806  0.00  0.00    +0.000 A 
ATOM     24  C   UNL     1       0.018   9.186  21.466  0.00  0.00    +0.000 A 
ATOM     25  C   UNL     1      -0.310  10.181  20.520  0.00  0.00    +0.000 A 
ATOM     26  H   UNL     1      -0.890  13.225  20.005  0.00  0.00    +0.000 HD
ENDBRANCH  16  17
ENDBRANCH  15  16
ENDBRANCH   4  15
TORSDOF 5
ENDMDL
MODEL 5
REMARK VINA RESULT:      -7.5      4.801      6.698
REMARK  Name = 
REMARK  6 active torsions:
REMARK  status: ('A' for Active; 'I' for Inactive)
REMARK    1  A    between atoms: C_1  and  O_2
REMARK    2  A    between atoms: O_2  and  C_3
REMARK    3  A    between atoms: C_8  and  N_9
REMARK    4  A    between atoms: N_12  and  C_13
REMARK    5  A    between atoms: C_13  and  C_14
REMARK    6  A    between atoms: C_14  and  C_15
REMARK                            x       y       z     vdW  Elec       q    Type
REMARK                         _______ _______ _______ _____ _____    ______ ____
ROOT
ATOM      1  N   UNL     1       9.178   9.322  19.214  0.00  0.00    +0.000 N 
ATOM      2  C   UNL     1       8.391   8.519  18.371  0.00  0.00    +0.000 C 
ATOM      3  O   UNL     1       7.804   8.865  17.362  0.00  0.00    +0.000 OA
ATOM      4  N   UNL     1       8.342   7.231  18.833  0.00  0.00    +0.000 N 
ATOM      5  H   UNL     1       9.606   8.883  19.999  0.00  0.00    +0.000 HD
ATOM      6  H   UNL     1       8.542   7.092  19.802  0.00  0.00    +0.000 HD
ENDROOT
BRANCH   1  12
ATOM      7  C   UNL     1       9.354  11.557  20.224  0.00  0.00    +0.000 A 
ATOM      8  C   UNL     1       9.576  12.944  20.100  0.00  0.00    +0.000 A 
ATOM      9  C   UNL     1       9.977  13.497  18.884  0.00  0.00    +0.000 A 
ATOM     10  C   UNL     1      10.121  12.669  17.782  0.00  0.00    +0.000 A 
ATOM     11  C   UNL     1       9.839  11.300  17.874  0.00  0.00    +0.000 A 
ATOM     12  C   UNL     1       9.453  10.718  19.085  0.00  0.00    +0.000 A 
BRANCH   7  14
ATOM     13  C   UNL     1       8.334  11.847  22.347  0.00  0.00    +0.000 C 
ATOM     14  O   UNL     1       9.032  10.982  21.441  0.00  0.00    +0.000 OA
ENDBRANCH   7  14
ENDBRANCH   1  12
BRANCH   4  15
ATOM     15  C   UNL     1       7.470   6.203  18.249  0.00  0.00    +0.000 C 
BRANCH  15  16
ATOM     16  C   UNL     1       6.490   5.473  19.168  0.00  0.00    +0.000 C 
BRANCH  16  17
ATOM     17  C   UNL     1       5.308   4.782  18.560  0.00  0.00    +0.000 A 
ATOM     18  C   UNL     1       5.408   4.164  17.323  0.00  0.00    +0.000 A 
ATOM     19  N   UNL     1       4.165   4.291  16.785  0.00  0.00    +0.000 N 
ATOM     20  C   UNL     1       3.251   4.184  17.799  0.00  0.00    +0.000 A 
ATOM     21  C   UNL     1       1.906   3.808  17.751  0.00  0.00    +0.000 A 
ATOM     22  C   UNL     1       1.208   3.827  18.953  0.00  0.00    +0.000 A 
ATOM     23  C   UNL     1       1.804   4.323  20.110  0.00  0.00    +0.000 A 
ATOM     24  C   UNL     1       3.145   4.772  20.116  0.00  0.00    +0.000 A 
ATOM     25  C   UNL     1       3.926   4.613  18.950  0.00  0.00    +0.000 A 
ATOM     26  H   UNL     1       3.957   4.459  15.812  0.00  0.00    +0.000 HD
ENDBRANCH  16  17
ENDBRANCH  15  16
ENDBRANCH   4  15
TORSDOF 5
ENDMDL
MODEL 6
REMARK VINA RESULT:      -7.4      1.102      1.356
REMARK  Name = 
REMARK  6 active torsions:
REMARK  status: ('A' for Active; 'I' for Inactive)
REMARK    1  A    between atoms: C_1  and  O_2
REMARK    2  A    between atoms: O_2  and  C_3
REMARK    3  A    between atoms: C_8  and  N_9
REMARK    4  A    between atoms: N_12  and  C_13
REMARK    5  A    between atoms: C_13  and  C_14
REMARK    6  A    between atoms: C_14  and  C_15
REMARK                            x       y       z     vdW  Elec       q    Type
REMARK                         _______ _______ _______ _____ _____    ______ ____
ROOT
ATOM      1  N   UNL     1       2.023   7.033  20.880  0.00  0.00    +0.000 N 
ATOM      2  C   UNL     1       1.819   5.673  20.594  0.00  0.00    +0.000 C 
ATOM      3  O   UNL     1       1.173   5.202  19.676  0.00  0.00    +0.000 OA
ATOM      4  N   UNL     1       2.455   4.882  21.513  0.00  0.00    +0.000 N 
ATOM      5  H   UNL     1       2.593   7.258  21.666  0.00  0.00    +0.000 HD
ATOM      6  H   UNL     1       2.665   5.298  22.397  0.00  0.00    +0.000 HD
ENDROOT
BRANCH   1  12
ATOM      7  C   UNL     1       0.589   9.030  20.813  0.00  0.00    +0.000 A 
ATOM      8  C   UNL     1       0.038  10.120  20.109  0.00  0.00    +0.000 A 
ATOM      9  C   UNL     1       0.450  10.411  18.808  0.00  0.00    +0.000 A 
ATOM     10  C   UNL     1       1.386   9.591  18.198  0.00  0.00    +0.000 A 
ATOM     11  C   UNL     1       1.892   8.466  18.862  0.00  0.00    +0.000 A 
ATOM     12  C   UNL     1       1.509   8.162  20.172  0.00  0.00    +0.000 A 
BRANCH   7  14
ATOM     13  C   UNL     1      -0.377   9.869  22.812  0.00  0.00    +0.000 C 
ATOM     14  O   UNL     1       0.250   8.774  22.130  0.00  0.00    +0.000 OA
ENDBRANCH   7  14
ENDBRANCH   1  12
BRANCH   4  15
ATOM     15  C   UNL     1       2.293   3.422  21.564  0.00  0.00    +0.000 C 
BRANCH  15  16
ATOM     16  C   UNL     1       3.323   2.551  20.845  0.00  0.00    +0.000 C 
BRANCH  16  17
ATOM     17  C   UNL     1       3.584   2.795  19.389  0.00  0.00    +0.000 A 
ATOM     18  C   UNL     1       3.154   1.890  18.432  0.00  0.00    +0.000 A 
ATOM     19  N   UNL     1       4.080   1.989  17.440  0.00  0.00    +0.000 N 
ATOM     20  C   UNL     1       4.478   3.297  17.361  0.00  0.00    +0.000 A 
ATOM     21  C   UNL     1       5.035   3.997  16.287  0.00  0.00    +0.000 A 
ATOM     22  C   UNL     1       5.379   5.324  16.515  0.00  0.00    +0.000 A 
ATOM     23  C   UNL     1       5.285   5.869  17.793  0.00  0.00    +0.000 A 
ATOM     24  C   UNL     1       4.791   5.115  18.883  0.00  0.00    +0.000 A 
ATOM     25  C   UNL     1       4.284   3.819  18.646  0.00  0.00    +0.000 A 
ATOM     26  H   UNL     1       4.428   1.227  16.878  0.00  0.00    +0.000 HD
ENDBRANCH  16  17
ENDBRANCH  15  16
ENDBRANCH   4  15
TORSDOF 5
ENDMDL
MODEL 7
REMARK VINA RESULT:      -7.4      5.117      7.540
REMARK  Name = 
REMARK  6 active torsions:
REMARK  status: ('A' for Active; 'I' for Inactive)
REMARK    1  A    between atoms: C_1  and  O_2
REMARK    2  A    between atoms: O_2  and  C_3
REMARK    3  A    between atoms: C_8  and  N_9
REMARK    4  A    between atoms: N_12  and  C_13
REMARK    5  A    between atoms: C_13  and  C_14
REMARK    6  A    between atoms: C_14  and  C_15
REMARK                            x       y       z     vdW  Elec       q    Type
REMARK                         _______ _______ _______ _____ _____    ______ ____
ROOT
ATOM      1  N   UNL     1       8.640  10.121  18.161  0.00  0.00    +0.000 N 
ATOM      2  C   UNL     1       8.348   8.749  18.243  0.00  0.00    +0.000 C 
ATOM      3  O   UNL     1       8.691   7.975  19.117  0.00  0.00    +0.000 OA
ATOM      4  N   UNL     1       7.598   8.347  17.171  0.00  0.00    +0.000 N 
ATOM      5  H   UNL     1       8.271  10.624  17.384  0.00  0.00    +0.000 HD
ATOM      6  H   UNL     1       7.641   8.917  16.352  0.00  0.00    +0.000 HD
ENDROOT
BRANCH   1  12
ATOM      7  C   UNL     1      10.435  11.752  18.570  0.00  0.00    +0.000 A 
ATOM      8  C   UNL     1      11.235  12.495  19.461  0.00  0.00    +0.000 A 
ATOM      9  C   UNL     1      10.981  12.479  20.833  0.00  0.00    +0.000 A 
ATOM     10  C   UNL     1       9.950  11.691  21.317  0.00  0.00    +0.000 A 
ATOM     11  C   UNL     1       9.189  10.896  20.451  0.00  0.00    +0.000 A 
ATOM     12  C   UNL     1       9.412  10.907  19.071  0.00  0.00    +0.000 A 
BRANCH   7  14
ATOM     13  C   UNL     1      11.277  13.009  16.742  0.00  0.00    +0.000 C 
ATOM     14  O   UNL     1      10.624  11.818  17.200  0.00  0.00    +0.000 OA
ENDBRANCH   7  14
ENDBRANCH   1  12
BRANCH   4  15
ATOM     15  C   UNL     1       7.274   6.939  16.903  0.00  0.00    +0.000 C 
BRANCH  15  16
ATOM     16  C   UNL     1       5.803   6.520  16.896  0.00  0.00    +0.000 C 
BRANCH  16  17
ATOM     17  C   UNL     1       5.329   5.534  17.920  0.00  0.00    +0.000 A 
ATOM     18  C   UNL     1       6.183   5.078  18.912  0.00  0.00    +0.000 A 
ATOM     19  N   UNL     1       5.756   3.811  19.163  0.00  0.00    +0.000 N 
ATOM     20  C   UNL     1       4.392   3.789  19.037  0.00  0.00    +0.000 A 
ATOM     21  C   UNL     1       3.459   2.912  19.595  0.00  0.00    +0.000 A 
ATOM     22  C   UNL     1       2.126   3.117  19.255  0.00  0.00    +0.000 A 
ATOM     23  C   UNL     1       1.778   4.073  18.304  0.00  0.00    +0.000 A 
ATOM     24  C   UNL     1       2.752   4.896  17.693  0.00  0.00    +0.000 A 
ATOM     25  C   UNL     1       4.090   4.820  18.138  0.00  0.00    +0.000 A 
ATOM     26  H   UNL     1       6.345   3.021  19.380  0.00  0.00    +0.000 HD
ENDBRANCH  16  17
ENDBRANCH  15  16
ENDBRANCH   4  15
TORSDOF 5
ENDMDL
MODEL 8
REMARK VINA RESULT:      -7.3      3.244      5.610
REMARK  Name = 
REMARK  6 active torsions:
REMARK  status: ('A' for Active; 'I' for Inactive)
REMARK    1  A    between atoms: C_1  and  O_2
REMARK    2  A    between atoms: O_2  and  C_3
REMARK    3  A    between atoms: C_8  and  N_9
REMARK    4  A    between atoms: N_12  and  C_13
REMARK    5  A    between atoms: C_13  and  C_14
REMARK    6  A    between atoms: C_14  and  C_15
REMARK                            x       y       z     vdW  Elec       q    Type
REMARK                         _______ _______ _______ _____ _____    ______ ____
ROOT
ATOM      1  N   UNL     1      -0.524  11.006  18.004  0.00  0.00    +0.000 N 
ATOM      2  C   UNL     1       0.346  10.052  18.560  0.00  0.00    +0.000 C 
ATOM      3  O   UNL     1       0.224   9.478  19.626  0.00  0.00    +0.000 OA
ATOM      4  N   UNL     1       1.413   9.826  17.732  0.00  0.00    +0.000 N 
ATOM      5  H   UNL     1      -0.289  11.376  17.109  0.00  0.00    +0.000 HD
ATOM      6  H   UNL     1       1.631  10.543  17.072  0.00  0.00    +0.000 HD
ENDROOT
BRANCH   1  12
ATOM      7  C   UNL     1      -2.977  11.169  17.994  0.00  0.00    +0.000 A 
ATOM      8  C   UNL     1      -4.171  11.711  18.512  0.00  0.00    +0.000 A 
ATOM      9  C   UNL     1      -4.153  12.531  19.641  0.00  0.00    +0.000 A 
ATOM     10  C   UNL     1      -2.937  12.838  20.231  0.00  0.00    +0.000 A 
ATOM     11  C   UNL     1      -1.738  12.360  19.688  0.00  0.00    +0.000 A 
ATOM     12  C   UNL     1      -1.730  11.524  18.567  0.00  0.00    +0.000 A 
BRANCH   7  14
ATOM     13  C   UNL     1      -3.212  10.907  15.647  0.00  0.00    +0.000 C 
ATOM     14  O   UNL     1      -2.985  10.293  16.923  0.00  0.00    +0.000 OA
ENDBRANCH   7  14
ENDBRANCH   1  12
BRANCH   4  15
ATOM     15  C   UNL     1       2.565   8.999  18.118  0.00  0.00    +0.000 C 
BRANCH  15  16
ATOM     16  C   UNL     1       2.559   7.519  17.731  0.00  0.00    +0.000 C 
BRANCH  16  17
ATOM     17  C   UNL     1       2.252   6.500  18.786  0.00  0.00    +0.000 A 
ATOM     18  C   UNL     1       2.148   6.868  20.118  0.00  0.00    +0.000 A 
ATOM     19  N   UNL     1       2.572   5.771  20.801  0.00  0.00    +0.000 N 
ATOM     20  C   UNL     1       2.159   4.658  20.116  0.00  0.00    +0.000 A 
ATOM     21  C   UNL     1       1.941   3.358  20.576  0.00  0.00    +0.000 A 
ATOM     22  C   UNL     1       1.556   2.415  19.630  0.00  0.00    +0.000 A 
ATOM     23  C   UNL     1       1.521   2.745  18.277  0.00  0.00    +0.000 A 
ATOM     24  C   UNL     1       1.823   4.051  17.827  0.00  0.00    +0.000 A 
ATOM     25  C   UNL     1       2.059   5.066  18.780  0.00  0.00    +0.000 A 
ATOM     26  H   UNL     1       3.116   5.777  21.651  0.00  0.00    +0.000 HD
ENDBRANCH  16  17
ENDBRANCH  15  16
ENDBRANCH   4  15
TORSDOF 5
ENDMDL
MODEL 9
REMARK VINA RESULT:      -7.3      2.439      4.251
REMARK  Name = 
REMARK  6 active torsions:
REMARK  status: ('A' for Active; 'I' for Inactive)
REMARK    1  A    between atoms: C_1  and  O_2
REMARK    2  A    between atoms: O_2  and  C_3
REMARK    3  A    between atoms: C_8  and  N_9
REMARK    4  A    between atoms: N_12  and  C_13
REMARK    5  A    between atoms: C_13  and  C_14
REMARK    6  A    between atoms: C_14  and  C_15
REMARK                            x       y       z     vdW  Elec       q    Type
REMARK                         _______ _______ _______ _____ _____    ______ ____
ROOT
ATOM      1  N   UNL     1       1.090   9.037  19.317  0.00  0.00    +0.000 N 
ATOM      2  C   UNL     1       2.044   9.036  18.285  0.00  0.00    +0.000 C 
ATOM      3  O   UNL     1       2.294   9.944  17.514  0.00  0.00    +0.000 OA
ATOM      4  N   UNL     1       2.698   7.835  18.229  0.00  0.00    +0.000 N 
ATOM      5  H   UNL     1       1.015   8.215  19.875  0.00  0.00    +0.000 HD
ATOM      6  H   UNL     1       2.233   7.049  18.635  0.00  0.00    +0.000 HD
ENDROOT
BRANCH   1  12
ATOM      7  C   UNL     1      -0.872  10.431  18.812  0.00  0.00    +0.000 A 
ATOM      8  C   UNL     1      -1.732  11.499  19.137  0.00  0.00    +0.000 A 
ATOM      9  C   UNL     1      -1.602  12.178  20.349  0.00  0.00    +0.000 A 
ATOM     10  C   UNL     1      -0.588  11.812  21.220  0.00  0.00    +0.000 A 
ATOM     11  C   UNL     1       0.315  10.797  20.881  0.00  0.00    +0.000 A 
ATOM     12  C   UNL     1       0.196  10.090  19.681  0.00  0.00    +0.000 A 
BRANCH   7  14
ATOM     13  C   UNL     1      -2.277   9.925  16.967  0.00  0.00    +0.000 C 
ATOM     14  O   UNL     1      -1.037   9.697  17.650  0.00  0.00    +0.000 OA
ENDBRANCH   7  14
ENDBRANCH   1  12
BRANCH   4  15
ATOM     15  C   UNL     1       3.637   7.483  17.154  0.00  0.00    +0.000 C 
BRANCH  15  16
ATOM     16  C   UNL     1       4.796   6.541  17.482  0.00  0.00    +0.000 C 
BRANCH  16  17
ATOM     17  C   UNL     1       4.512   5.291  18.259  0.00  0.00    +0.000 A 
ATOM     18  C   UNL     1       5.448   4.779  19.143  0.00  0.00    +0.000 A 
ATOM     19  N   UNL     1       5.242   3.435  19.106  0.00  0.00    +0.000 N 
ATOM     20  C   UNL     1       3.898   3.216  18.956  0.00  0.00    +0.000 A 
ATOM     21  C   UNL     1       3.133   2.097  19.294  0.00  0.00    +0.000 A 
ATOM     22  C   UNL     1       1.779   2.147  18.984  0.00  0.00    +0.000 A 
ATOM     23  C   UNL     1       1.259   3.215  18.257  0.00  0.00    +0.000 A 
ATOM     24  C   UNL     1       2.071   4.301  17.856  0.00  0.00    +0.000 A 
ATOM     25  C   UNL     1       3.412   4.353  18.296  0.00  0.00    +0.000 A 
ATOM     26  H   UNL     1       5.957   2.725  19.157  0.00  0.00    +0.000 HD
ENDBRANCH  16  17
ENDBRANCH  15  16
ENDBRANCH   4  15
TORSDOF 5
ENDMDL
