MODEL 1
REMARK VINA RESULT:      -9.8      0.000      0.000
REMARK  Name = 
REMARK  8 active torsions:
REMARK  status: ('A' for Active; 'I' for Inactive)
REMARK    1  A    between atoms: C_1  and  C_2
REMARK    2  A    between atoms: C_5  and  S_6
REMARK    3  A    between atoms: S_6  and  C_9
REMARK    4  A    between atoms: C_12  and  C_13
REMARK    5  A    between atoms: C_12  and  C_25
REMARK    6  A    between atoms: C_13  and  N_14
REMARK    7  A    between atoms: C_15  and  C_17
REMARK    8  A    between atoms: C_25  and  C_26
REMARK                            x       y       z     vdW  Elec       q    Type
REMARK                         _______ _______ _______ _____ _____    ______ ____
ROOT
ATOM      1  C   UNL     1       5.571   6.096  18.123  0.00  0.00    +0.000 C 
ATOM      2  C   UNL     1       4.378   6.546  17.269  0.00  0.00    +0.000 C 
ATOM      3  C   UNL     1       3.174   6.887  18.185  0.00  0.00    +0.000 C 
ATOM      4  C   UNL     1       2.765   5.761  19.197  0.00  0.00    +0.000 C 
ATOM      5  C   UNL     1       4.030   5.190  19.872  0.00  0.00    +0.000 C 
ATOM      6  C   UNL     1       5.126   4.843  18.894  0.00  0.00    +0.000 C 
ENDROOT
BRANCH   1   7
ATOM      7  S   UNL     1       7.090   5.679  17.288  0.00  0.00    +0.000 S 
ATOM      8  O   UNL     1       7.736   4.608  18.026  0.00  0.00    +0.000 OA
ATOM      9  O   UNL     1       7.789   6.937  17.074  0.00  0.00    +0.000 OA
BRANCH   7  14
ATOM     10  C   UNL     1       6.526   3.393  11.841  0.00  0.00    +0.000 C 
ATOM     11  C   UNL     1       6.570   3.987  13.216  0.00  0.00    +0.000 A 
ATOM     12  C   UNL     1       5.771   3.484  14.231  0.00  0.00    +0.000 A 
ATOM     13  C   UNL     1       5.879   4.045  15.491  0.00  0.00    +0.000 A 
ATOM     14  C   UNL     1       6.790   5.078  15.660  0.00  0.00    +0.000 A 
ATOM     15  N   UNL     1       7.575   5.556  14.682  0.00  0.00    +0.000 NA
ATOM     16  N   UNL     1       7.447   5.005  13.435  0.00  0.00    +0.000 NA
ENDBRANCH   7  14
ENDBRANCH   1   7
BRANCH   4  17
ATOM     17  C   UNL     1       1.947   6.351  20.376  0.00  0.00    +0.000 C 
BRANCH  17  18
ATOM     18  N   UNL     1       1.828   7.783  20.365  0.00  0.00    +0.000 N 
ATOM     19  C   UNL     1       0.698   8.399  20.854  0.00  0.00    +0.000 C 
ATOM     20  O   UNL     1      -0.176   7.832  21.488  0.00  0.00    +0.000 OA
ATOM     21  H   UNL     1       2.480   8.309  19.794  0.00  0.00    +0.000 HD
BRANCH  19  22
ATOM     22  C   UNL     1       0.612   9.858  20.632  0.00  0.00    +0.000 A 
ATOM     23  C   UNL     1       1.112  10.318  19.409  0.00  0.00    +0.000 A 
ATOM     24  C   UNL     1       1.045  11.670  19.082  0.00  0.00    +0.000 A 
ATOM     25  C   UNL     1       0.487  12.569  19.989  0.00  0.00    +0.000 A 
ATOM     26 CL   UNL     1       0.384  14.234  19.583  0.00  0.00    +0.000 Cl
ATOM     27  C   UNL     1       0.015  12.129  21.225  0.00  0.00    +0.000 A 
ATOM     28  C   UNL     1       0.079  10.770  21.554  0.00  0.00    +0.000 A 
ATOM     29 CL   UNL     1      -0.476  10.324  23.128  0.00  0.00    +0.000 Cl
ENDBRANCH  19  22
ENDBRANCH  17  18
ENDBRANCH   4  17
BRANCH   4  30
ATOM     30  C   UNL     1       1.960   4.661  18.435  0.00  0.00    +0.000 C 
BRANCH  30  31
ATOM     31  C   UNL     1       1.126   3.753  19.310  0.00  0.00    +0.000 C 
ATOM     32  C   UNL     1       0.767   2.370  18.826  0.00  0.00    +0.000 C 
ATOM     33  C   UNL     1       1.737   2.538  19.962  0.00  0.00    +0.000 C 
ENDBRANCH  30  31
ENDBRANCH   4  30
TORSDOF 7
ENDMDL
MODEL 2
REMARK VINA RESULT:      -9.7      1.014      1.372
REMARK  Name = 
REMARK  8 active torsions:
REMARK  status: ('A' for Active; 'I' for Inactive)
REMARK    1  A    between atoms: C_1  and  C_2
REMARK    2  A    between atoms: C_5  and  S_6
REMARK    3  A    between atoms: S_6  and  C_9
REMARK    4  A    between atoms: C_12  and  C_13
REMARK    5  A    between atoms: C_12  and  C_25
REMARK    6  A    between atoms: C_13  and  N_14
REMARK    7  A    between atoms: C_15  and  C_17
REMARK    8  A    between atoms: C_25  and  C_26
REMARK                            x       y       z     vdW  Elec       q    Type
REMARK                         _______ _______ _______ _____ _____    ______ ____
ROOT
ATOM      1  C   UNL     1       5.577   6.170  18.082  0.00  0.00    +0.000 C 
ATOM      2  C   UNL     1       4.408   6.646  17.209  0.00  0.00    +0.000 C 
ATOM      3  C   UNL     1       3.208   7.044  18.107  0.00  0.00    +0.000 C 
ATOM      4  C   UNL     1       2.751   5.951  19.135  0.00  0.00    +0.000 C 
ATOM      5  C   UNL     1       3.990   5.349  19.832  0.00  0.00    +0.000 C 
ATOM      6  C   UNL     1       5.082   4.947  18.871  0.00  0.00    +0.000 C 
ENDROOT
BRANCH   1   7
ATOM      7  S   UNL     1       7.087   5.686  17.269  0.00  0.00    +0.000 S 
ATOM      8  O   UNL     1       7.686   4.603  18.030  0.00  0.00    +0.000 OA
ATOM      9  O   UNL     1       7.835   6.914  17.045  0.00  0.00    +0.000 OA
BRANCH   7  14
ATOM     10  C   UNL     1       6.503   3.356  11.844  0.00  0.00    +0.000 C 
ATOM     11  C   UNL     1       6.553   3.962  13.213  0.00  0.00    +0.000 A 
ATOM     12  C   UNL     1       5.747   3.476  14.233  0.00  0.00    +0.000 A 
ATOM     13  C   UNL     1       5.861   4.049  15.487  0.00  0.00    +0.000 A 
ATOM     14  C   UNL     1       6.782   5.073  15.647  0.00  0.00    +0.000 A 
ATOM     15  N   UNL     1       7.573   5.534  14.665  0.00  0.00    +0.000 NA
ATOM     16  N   UNL     1       7.440   4.972  13.423  0.00  0.00    +0.000 NA
ENDBRANCH   7  14
ENDBRANCH   1   7
BRANCH   4  17
ATOM     17  C   UNL     1       1.943   6.590  20.296  0.00  0.00    +0.000 C 
BRANCH  17  18
ATOM     18  N   UNL     1       1.756   8.010  20.184  0.00  0.00    +0.000 N 
ATOM     19  C   UNL     1       0.672   8.625  20.769  0.00  0.00    +0.000 C 
ATOM     20  O   UNL     1      -0.083   8.085  21.558  0.00  0.00    +0.000 OA
ATOM     21  H   UNL     1       2.303   8.508  19.490  0.00  0.00    +0.000 HD
BRANCH  19  22
ATOM     22  C   UNL     1       0.489  10.055  20.442  0.00  0.00    +0.000 A 
ATOM     23  C   UNL     1       0.312  10.911  21.535  0.00  0.00    +0.000 A 
ATOM     24  C   UNL     1       0.169  12.283  21.342  0.00  0.00    +0.000 A 
ATOM     25  C   UNL     1       0.188  12.800  20.048  0.00  0.00    +0.000 A 
ATOM     26 CL   UNL     1       0.032  14.493  19.806  0.00  0.00    +0.000 Cl
ATOM     27  C   UNL     1       0.330  11.955  18.948  0.00  0.00    +0.000 A 
ATOM     28  C   UNL     1       0.477  10.576  19.140  0.00  0.00    +0.000 A 
ATOM     29 CL   UNL     1       0.590   9.601  17.719  0.00  0.00    +0.000 Cl
ENDBRANCH  19  22
ENDBRANCH  17  18
ENDBRANCH   4  17
BRANCH   4  30
ATOM     30  C   UNL     1       1.915   4.866  18.384  0.00  0.00    +0.000 C 
BRANCH  30  31
ATOM     31  C   UNL     1       1.910   3.499  19.030  0.00  0.00    +0.000 C 
ATOM     32  C   UNL     1       0.839   3.150  20.033  0.00  0.00    +0.000 C 
ATOM     33  C   UNL     1       0.847   2.487  18.685  0.00  0.00    +0.000 C 
ENDBRANCH  30  31
ENDBRANCH   4  30
TORSDOF 7
ENDMDL
MODEL 3
REMARK VINA RESULT:      -9.0      0.837      1.003
REMARK  Name = 
REMARK  8 active torsions:
REMARK  status: ('A' for Active; 'I' for Inactive)
REMARK    1  A    between atoms: C_1  and  C_2
REMARK    2  A    between atoms: C_5  and  S_6
REMARK    3  A    between atoms: S_6  and  C_9
REMARK    4  A    between atoms: C_12  and  C_13
REMARK    5  A    between atoms: C_12  and  C_25
REMARK    6  A    between atoms: C_13  and  N_14
REMARK    7  A    between atoms: C_15  and  C_17
REMARK    8  A    between atoms: C_25  and  C_26
REMARK                            x       y       z     vdW  Elec       q    Type
REMARK                         _______ _______ _______ _____ _____    ______ ____
ROOT
ATOM      1  C   UNL     1       5.604   6.088  18.024  0.00  0.00    +0.000 C 
ATOM      2  C   UNL     1       4.442   6.547  17.134  0.00  0.00    +0.000 C 
ATOM      3  C   UNL     1       3.235   6.960  18.017  0.00  0.00    +0.000 C 
ATOM      4  C   UNL     1       2.771   5.885  19.061  0.00  0.00    +0.000 C 
ATOM      5  C   UNL     1       4.006   5.297  19.778  0.00  0.00    +0.000 C 
ATOM      6  C   UNL     1       5.105   4.879  18.832  0.00  0.00    +0.000 C 
ENDROOT
BRANCH   1   7
ATOM      7  S   UNL     1       7.121   5.591  17.231  0.00  0.00    +0.000 S 
ATOM      8  O   UNL     1       7.786   4.623  18.087  0.00  0.00    +0.000 OA
ATOM      9  O   UNL     1       7.804   6.821  16.861  0.00  0.00    +0.000 OA
BRANCH   7  14
ATOM     10  C   UNL     1       5.628   3.140  12.038  0.00  0.00    +0.000 C 
ATOM     11  C   UNL     1       6.100   3.742  13.326  0.00  0.00    +0.000 A 
ATOM     12  C   UNL     1       7.016   4.783  13.328  0.00  0.00    +0.000 A 
ATOM     13  C   UNL     1       7.389   5.327  14.544  0.00  0.00    +0.000 A 
ATOM     14  C   UNL     1       6.816   4.795  15.690  0.00  0.00    +0.000 A 
ATOM     15  N   UNL     1       5.918   3.798  15.689  0.00  0.00    +0.000 NA
ATOM     16  N   UNL     1       5.569   3.255  14.481  0.00  0.00    +0.000 NA
ENDBRANCH   7  14
ENDBRANCH   1   7
BRANCH   4  17
ATOM     17  C   UNL     1       1.954   6.545  20.204  0.00  0.00    +0.000 C 
BRANCH  17  18
ATOM     18  N   UNL     1       1.842   7.974  20.111  0.00  0.00    +0.000 N 
ATOM     19  C   UNL     1       0.764   8.632  20.661  0.00  0.00    +0.000 C 
ATOM     20  O   UNL     1      -0.050   8.116  21.407  0.00  0.00    +0.000 OA
ATOM     21  H   UNL     1       2.442   8.456  19.451  0.00  0.00    +0.000 HD
BRANCH  19  22
ATOM     22  C   UNL     1       0.665  10.074  20.354  0.00  0.00    +0.000 A 
ATOM     23  C   UNL     1       1.172  10.469  19.111  0.00  0.00    +0.000 A 
ATOM     24  C   UNL     1       1.094  11.799  18.706  0.00  0.00    +0.000 A 
ATOM     25  C   UNL     1       0.518  12.743  19.555  0.00  0.00    +0.000 A 
ATOM     26 CL   UNL     1       0.401  14.381  19.052  0.00  0.00    +0.000 Cl
ATOM     27  C   UNL     1       0.038  12.369  20.810  0.00  0.00    +0.000 A 
ATOM     28  C   UNL     1       0.113  11.032  21.217  0.00  0.00    +0.000 A 
ATOM     29 CL   UNL     1      -0.453  10.671  22.809  0.00  0.00    +0.000 Cl
ENDBRANCH  19  22
ENDBRANCH  17  18
ENDBRANCH   4  17
BRANCH   4  30
ATOM     30  C   UNL     1       1.942   4.786  18.324  0.00  0.00    +0.000 C 
BRANCH  30  31
ATOM     31  C   UNL     1       1.921   3.436  19.002  0.00  0.00    +0.000 C 
ATOM     32  C   UNL     1       0.869   3.136  20.041  0.00  0.00    +0.000 C 
ATOM     33  C   UNL     1       0.825   2.442  18.709  0.00  0.00    +0.000 C 
ENDBRANCH  30  31
ENDBRANCH   4  30
TORSDOF 7
ENDMDL
MODEL 4
REMARK VINA RESULT:      -8.6      2.082      2.196
REMARK  Name = 
REMARK  8 active torsions:
REMARK  status: ('A' for Active; 'I' for Inactive)
REMARK    1  A    between atoms: C_1  and  C_2
REMARK    2  A    between atoms: C_5  and  S_6
REMARK    3  A    between atoms: S_6  and  C_9
REMARK    4  A    between atoms: C_12  and  C_13
REMARK    5  A    between atoms: C_12  and  C_25
REMARK    6  A    between atoms: C_13  and  N_14
REMARK    7  A    between atoms: C_15  and  C_17
REMARK    8  A    between atoms: C_25  and  C_26
REMARK                            x       y       z     vdW  Elec       q    Type
REMARK                         _______ _______ _______ _____ _____    ______ ____
ROOT
ATOM      1  C   UNL     1       5.594   6.601  17.694  0.00  0.00    +0.000 C 
ATOM      2  C   UNL     1       4.479   7.042  16.737  0.00  0.00    +0.000 C 
ATOM      3  C   UNL     1       3.320   7.688  17.542  0.00  0.00    +0.000 C 
ATOM      4  C   UNL     1       2.758   6.817  18.719  0.00  0.00    +0.000 C 
ATOM      5  C   UNL     1       3.932   6.217  19.523  0.00  0.00    +0.000 C 
ATOM      6  C   UNL     1       4.982   5.569  18.655  0.00  0.00    +0.000 C 
ENDROOT
BRANCH   1   7
ATOM      7  S   UNL     1       7.053   5.855  16.992  0.00  0.00    +0.000 S 
ATOM      8  O   UNL     1       7.484   4.782  17.873  0.00  0.00    +0.000 OA
ATOM      9  O   UNL     1       7.959   6.951  16.688  0.00  0.00    +0.000 OA
BRANCH   7  14
ATOM     10  C   UNL     1       6.352   3.125  11.771  0.00  0.00    +0.000 C 
ATOM     11  C   UNL     1       6.432   3.839  13.085  0.00  0.00    +0.000 A 
ATOM     12  C   UNL     1       5.581   3.504  14.128  0.00  0.00    +0.000 A 
ATOM     13  C   UNL     1       5.724   4.170  15.332  0.00  0.00    +0.000 A 
ATOM     14  C   UNL     1       6.720   5.132  15.422  0.00  0.00    +0.000 A 
ATOM     15  N   UNL     1       7.555   5.446  14.419  0.00  0.00    +0.000 NA
ATOM     16  N   UNL     1       7.392   4.794  13.226  0.00  0.00    +0.000 NA
ENDBRANCH   7  14
ENDBRANCH   1   7
BRANCH   4  17
ATOM     17  C   UNL     1       2.013   7.704  19.752  0.00  0.00    +0.000 C 
BRANCH  17  18
ATOM     18  N   UNL     1       0.831   8.345  19.247  0.00  0.00    +0.000 N 
ATOM     19  C   UNL     1       0.811   9.703  19.017  0.00  0.00    +0.000 C 
ATOM     20  O   UNL     1       1.798  10.418  19.031  0.00  0.00    +0.000 OA
ATOM     21  H   UNL     1      -0.041   7.828  19.278  0.00  0.00    +0.000 HD
BRANCH  19  22
ATOM     22  C   UNL     1      -0.505  10.278  18.666  0.00  0.00    +0.000 A 
ATOM     23  C   UNL     1      -1.071   9.819  17.471  0.00  0.00    +0.000 A 
ATOM     24  C   UNL     1      -2.326  10.267  17.067  0.00  0.00    +0.000 A 
ATOM     25  C   UNL     1      -3.012  11.191  17.853  0.00  0.00    +0.000 A 
ATOM     26 CL   UNL     1      -4.568  11.731  17.368  0.00  0.00    +0.000 Cl
ATOM     27  C   UNL     1      -2.445  11.681  19.029  0.00  0.00    +0.000 A 
ATOM     28  C   UNL     1      -1.186  11.230  19.439  0.00  0.00    +0.000 A 
ATOM     29 CL   UNL     1      -0.538  11.934  20.877  0.00  0.00    +0.000 Cl
ENDBRANCH  19  22
ENDBRANCH  17  18
ENDBRANCH   4  17
BRANCH   4  30
ATOM     30  C   UNL     1       1.823   5.712  18.132  0.00  0.00    +0.000 C 
BRANCH  30  31
ATOM     31  C   UNL     1       2.139   4.302  18.576  0.00  0.00    +0.000 C 
ATOM     32  C   UNL     1       1.128   3.205  18.359  0.00  0.00    +0.000 C 
ATOM     33  C   UNL     1       2.404   3.216  17.565  0.00  0.00    +0.000 C 
ENDBRANCH  30  31
ENDBRANCH   4  30
TORSDOF 7
ENDMDL
MODEL 5
REMARK VINA RESULT:      -8.0      4.116      8.773
REMARK  Name = 
REMARK  8 active torsions:
REMARK  status: ('A' for Active; 'I' for Inactive)
REMARK    1  A    between atoms: C_1  and  C_2
REMARK    2  A    between atoms: C_5  and  S_6
REMARK    3  A    between atoms: S_6  and  C_9
REMARK    4  A    between atoms: C_12  and  C_13
REMARK    5  A    between atoms: C_12  and  C_25
REMARK    6  A    between atoms: C_13  and  N_14
REMARK    7  A    between atoms: C_15  and  C_17
REMARK    8  A    between atoms: C_25  and  C_26
REMARK                            x       y       z     vdW  Elec       q    Type
REMARK                         _______ _______ _______ _____ _____    ______ ____
ROOT
ATOM      1  C   UNL     1       1.450   8.833  20.062  0.00  0.00    +0.000 C 
ATOM      2  C   UNL     1       1.138   7.597  20.916  0.00  0.00    +0.000 C 
ATOM      3  C   UNL     1       2.273   6.550  20.760  0.00  0.00    +0.000 C 
ATOM      4  C   UNL     1       2.621   6.157  19.282  0.00  0.00    +0.000 C 
ATOM      5  C   UNL     1       2.708   7.432  18.416  0.00  0.00    +0.000 C 
ATOM      6  C   UNL     1       1.535   8.363  18.601  0.00  0.00    +0.000 C 
ENDROOT
BRANCH   1   7
ATOM      7  S   UNL     1       0.298  10.192  20.103  0.00  0.00    +0.000 S 
ATOM      8  O   UNL     1      -0.398  10.161  21.379  0.00  0.00    +0.000 OA
ATOM      9  O   UNL     1      -0.459  10.116  18.863  0.00  0.00    +0.000 OA
BRANCH   7  14
ATOM     10  C   UNL     1       3.519  15.169  19.865  0.00  0.00    +0.000 C 
ATOM     11  C   UNL     1       2.636  13.960  19.872  0.00  0.00    +0.000 A 
ATOM     12  C   UNL     1       2.171  13.414  18.685  0.00  0.00    +0.000 A 
ATOM     13  C   UNL     1       1.389  12.274  18.748  0.00  0.00    +0.000 A 
ATOM     14  C   UNL     1       1.123  11.745  20.003  0.00  0.00    +0.000 A 
ATOM     15  N   UNL     1       1.584  12.263  21.151  0.00  0.00    +0.000 NA
ATOM     16  N   UNL     1       2.342  13.401  21.078  0.00  0.00    +0.000 NA
ENDBRANCH   7  14
ENDBRANCH   1   7
BRANCH   4  17
ATOM     17  C   UNL     1       4.046   5.548  19.196  0.00  0.00    +0.000 C 
BRANCH  17  18
ATOM     18  N   UNL     1       4.614   5.541  17.877  0.00  0.00    +0.000 N 
ATOM     19  C   UNL     1       4.958   4.356  17.266  0.00  0.00    +0.000 C 
ATOM     20  O   UNL     1       4.648   3.252  17.680  0.00  0.00    +0.000 OA
ATOM     21  H   UNL     1       4.961   6.418  17.504  0.00  0.00    +0.000 HD
BRANCH  19  22
ATOM     22  C   UNL     1       5.692   4.478  15.988  0.00  0.00    +0.000 A 
ATOM     23  C   UNL     1       5.195   3.715  14.925  0.00  0.00    +0.000 A 
ATOM     24  C   UNL     1       5.789   3.786  13.668  0.00  0.00    +0.000 A 
ATOM     25  C   UNL     1       6.894   4.612  13.475  0.00  0.00    +0.000 A 
ATOM     26 CL   UNL     1       7.617   4.718  11.921  0.00  0.00    +0.000 Cl
ATOM     27  C   UNL     1       7.419   5.354  14.534  0.00  0.00    +0.000 A 
ATOM     28  C   UNL     1       6.822   5.286  15.797  0.00  0.00    +0.000 A 
ATOM     29 CL   UNL     1       7.573   6.193  17.062  0.00  0.00    +0.000 Cl
ENDBRANCH  19  22
ENDBRANCH  17  18
ENDBRANCH   4  17
BRANCH   4  30
ATOM     30  C   UNL     1       1.539   5.162  18.754  0.00  0.00    +0.000 C 
BRANCH  30  31
ATOM     31  C   UNL     1       1.691   3.736  19.232  0.00  0.00    +0.000 C 
ATOM     32  C   UNL     1       0.747   3.191  20.275  0.00  0.00    +0.000 C 
ATOM     33  C   UNL     1       0.675   2.686  18.861  0.00  0.00    +0.000 C 
ENDBRANCH  30  31
ENDBRANCH   4  30
TORSDOF 7
ENDMDL
MODEL 6
REMARK VINA RESULT:      -8.0      3.509      5.561
REMARK  Name = 
REMARK  8 active torsions:
REMARK  status: ('A' for Active; 'I' for Inactive)
REMARK    1  A    between atoms: C_1  and  C_2
REMARK    2  A    between atoms: C_5  and  S_6
REMARK    3  A    between atoms: S_6  and  C_9
REMARK    4  A    between atoms: C_12  and  C_13
REMARK    5  A    between atoms: C_12  and  C_25
REMARK    6  A    between atoms: C_13  and  N_14
REMARK    7  A    between atoms: C_15  and  C_17
REMARK    8  A    between atoms: C_25  and  C_26
REMARK                            x       y       z     vdW  Elec       q    Type
REMARK                         _______ _______ _______ _____ _____    ______ ____
ROOT
ATOM      1  C   UNL     1       2.150   7.761  19.418  0.00  0.00    +0.000 C 
ATOM      2  C   UNL     1       1.660   8.615  18.241  0.00  0.00    +0.000 C 
ATOM      3  C   UNL     1       1.499  10.090  18.693  0.00  0.00    +0.000 C 
ATOM      4  C   UNL     1       0.612  10.305  19.969  0.00  0.00    +0.000 C 
ATOM      5  C   UNL     1       1.001   9.272  21.048  0.00  0.00    +0.000 C 
ATOM      6  C   UNL     1       1.085   7.859  20.522  0.00  0.00    +0.000 C 
ENDROOT
BRANCH   1   7
ATOM      7  S   UNL     1       2.441   6.026  19.131  0.00  0.00    +0.000 S 
ATOM      8  O   UNL     1       1.637   5.613  17.993  0.00  0.00    +0.000 OA
ATOM      9  O   UNL     1       2.267   5.371  20.418  0.00  0.00    +0.000 OA
BRANCH   7  14
ATOM     10  C   UNL     1       7.960   4.490  17.588  0.00  0.00    +0.000 C 
ATOM     11  C   UNL     1       6.595   4.973  17.970  0.00  0.00    +0.000 A 
ATOM     12  C   UNL     1       5.898   5.849  17.151  0.00  0.00    +0.000 A 
ATOM     13  C   UNL     1       4.625   6.233  17.534  0.00  0.00    +0.000 A 
ATOM     14  C   UNL     1       4.123   5.711  18.718  0.00  0.00    +0.000 A 
ATOM     15  N   UNL     1       4.791   4.852  19.504  0.00  0.00    +0.000 NA
ATOM     16  N   UNL     1       6.056   4.492  19.124  0.00  0.00    +0.000 NA
ENDBRANCH   7  14
ENDBRANCH   1   7
BRANCH   4  17
ATOM     17  C   UNL     1       0.924  11.673  20.632  0.00  0.00    +0.000 C 
BRANCH  17  18
ATOM     18  N   UNL     1      -0.234  12.459  20.955  0.00  0.00    +0.000 N 
ATOM     19  C   UNL     1      -0.904  12.269  22.143  0.00  0.00    +0.000 C 
ATOM     20  O   UNL     1      -0.488  11.593  23.068  0.00  0.00    +0.000 OA
ATOM     21  H   UNL     1      -0.674  12.987  20.209  0.00  0.00    +0.000 HD
BRANCH  19  22
ATOM     22  C   UNL     1      -2.176  13.007  22.291  0.00  0.00    +0.000 A 
ATOM     23  C   UNL     1      -3.207  12.623  21.425  0.00  0.00    +0.000 A 
ATOM     24  C   UNL     1      -4.459  13.228  21.506  0.00  0.00    +0.000 A 
ATOM     25  C   UNL     1      -4.678  14.232  22.448  0.00  0.00    +0.000 A 
ATOM     26 CL   UNL     1      -6.226  14.966  22.565  0.00  0.00    +0.000 Cl
ATOM     27  C   UNL     1      -3.650  14.647  23.295  0.00  0.00    +0.000 A 
ATOM     28  C   UNL     1      -2.392  14.038  23.217  0.00  0.00    +0.000 A 
ATOM     29 CL   UNL     1      -1.164  14.655  24.263  0.00  0.00    +0.000 Cl
ENDBRANCH  19  22
ENDBRANCH  17  18
ENDBRANCH   4  17
BRANCH   4  30
ATOM     30  C   UNL     1      -0.893  10.193  19.566  0.00  0.00    +0.000 C 
BRANCH  30  31
ATOM     31  C   UNL     1      -1.236  10.756  18.205  0.00  0.00    +0.000 C 
ATOM     32  C   UNL     1      -1.988   9.906  17.212  0.00  0.00    +0.000 C 
ATOM     33  C   UNL     1      -2.661  11.089  17.846  0.00  0.00    +0.000 C 
ENDBRANCH  30  31
ENDBRANCH   4  30
TORSDOF 7
ENDMDL
MODEL 7
REMARK VINA RESULT:      -8.0      3.222      5.083
REMARK  Name = 
REMARK  8 active torsions:
REMARK  status: ('A' for Active; 'I' for Inactive)
REMARK    1  A    between atoms: C_1  and  C_2
REMARK    2  A    between atoms: C_5  and  S_6
REMARK    3  A    between atoms: S_6  and  C_9
REMARK    4  A    between atoms: C_12  and  C_13
REMARK    5  A    between atoms: C_12  and  C_25
REMARK    6  A    between atoms: C_13  and  N_14
REMARK    7  A    between atoms: C_15  and  C_17
REMARK    8  A    between atoms: C_25  and  C_26
REMARK                            x       y       z     vdW  Elec       q    Type
REMARK                         _______ _______ _______ _____ _____    ______ ____
ROOT
ATOM      1  C   UNL     1       2.491   7.541  18.962  0.00  0.00    +0.000 C 
ATOM      2  C   UNL     1       1.842   8.252  17.767  0.00  0.00    +0.000 C 
ATOM      3  C   UNL     1       1.652   9.757  18.089  0.00  0.00    +0.000 C 
ATOM      4  C   UNL     1       0.890  10.063  19.426  0.00  0.00    +0.000 C 
ATOM      5  C   UNL     1       1.439   9.161  20.551  0.00  0.00    +0.000 C 
ATOM      6  C   UNL     1       1.540   7.707  20.158  0.00  0.00    +0.000 C 
ENDROOT
BRANCH   1   7
ATOM      7  S   UNL     1       2.839   5.799  18.813  0.00  0.00    +0.000 S 
ATOM      8  O   UNL     1       1.638   5.135  18.337  0.00  0.00    +0.000 OA
ATOM      9  O   UNL     1       3.436   5.399  20.078  0.00  0.00    +0.000 OA
BRANCH   7  14
ATOM     10  C   UNL     1       6.736   4.757  14.462  0.00  0.00    +0.000 C 
ATOM     11  C   UNL     1       5.828   5.053  15.616  0.00  0.00    +0.000 A 
ATOM     12  C   UNL     1       5.783   6.322  16.175  0.00  0.00    +0.000 A 
ATOM     13  C   UNL     1       4.899   6.550  17.215  0.00  0.00    +0.000 A 
ATOM     14  C   UNL     1       4.105   5.490  17.630  0.00  0.00    +0.000 A 
ATOM     15  N   UNL     1       4.137   4.266  17.079  0.00  0.00    +0.000 NA
ATOM     16  N   UNL     1       5.028   4.047  16.063  0.00  0.00    +0.000 NA
ENDBRANCH   7  14
ENDBRANCH   1   7
BRANCH   4  17
ATOM     17  C   UNL     1       1.198  11.503  19.917  0.00  0.00    +0.000 C 
BRANCH  17  18
ATOM     18  N   UNL     1       0.108  12.149  20.595  0.00  0.00    +0.000 N 
ATOM     19  C   UNL     1       0.344  13.149  21.512  0.00  0.00    +0.000 C 
ATOM     20  O   UNL     1       1.425  13.686  21.682  0.00  0.00    +0.000 OA
ATOM     21  H   UNL     1      -0.805  11.710  20.554  0.00  0.00    +0.000 HD
BRANCH  19  22
ATOM     22  C   UNL     1      -0.834  13.618  22.272  0.00  0.00    +0.000 A 
ATOM     23  C   UNL     1      -1.084  14.994  22.218  0.00  0.00    +0.000 A 
ATOM     24  C   UNL     1      -2.191  15.536  22.866  0.00  0.00    +0.000 A 
ATOM     25  C   UNL     1      -3.044  14.701  23.585  0.00  0.00    +0.000 A 
ATOM     26 CL   UNL     1      -4.421  15.362  24.370  0.00  0.00    +0.000 Cl
ATOM     27  C   UNL     1      -2.788  13.332  23.674  0.00  0.00    +0.000 A 
ATOM     28  C   UNL     1      -1.678  12.785  23.020  0.00  0.00    +0.000 A 
ATOM     29 CL   UNL     1      -1.407  11.092  23.233  0.00  0.00    +0.000 Cl
ENDBRANCH  19  22
ENDBRANCH  17  18
ENDBRANCH   4  17
BRANCH   4  30
ATOM     30  C   UNL     1      -0.641   9.851  19.197  0.00  0.00    +0.000 C 
BRANCH  30  31
ATOM     31  C   UNL     1      -1.141  10.220  17.819  0.00  0.00    +0.000 C 
ATOM     32  C   UNL     1      -2.549   9.864  17.414  0.00  0.00    +0.000 C 
ATOM     33  C   UNL     1      -2.175  11.302  17.638  0.00  0.00    +0.000 C 
ENDBRANCH  30  31
ENDBRANCH   4  30
TORSDOF 7
ENDMDL
MODEL 8
REMARK VINA RESULT:      -7.9      3.650      5.749
REMARK  Name = 
REMARK  8 active torsions:
REMARK  status: ('A' for Active; 'I' for Inactive)
REMARK    1  A    between atoms: C_1  and  C_2
REMARK    2  A    between atoms: C_5  and  S_6
REMARK    3  A    between atoms: S_6  and  C_9
REMARK    4  A    between atoms: C_12  and  C_13
REMARK    5  A    between atoms: C_12  and  C_25
REMARK    6  A    between atoms: C_13  and  N_14
REMARK    7  A    between atoms: C_15  and  C_17
REMARK    8  A    between atoms: C_25  and  C_26
REMARK                            x       y       z     vdW  Elec       q    Type
REMARK                         _______ _______ _______ _____ _____    ______ ____
ROOT
ATOM      1  C   UNL     1       2.179   7.676  19.544  0.00  0.00    +0.000 C 
ATOM      2  C   UNL     1       1.751   8.578  18.380  0.00  0.00    +0.000 C 
ATOM      3  C   UNL     1       1.590  10.039  18.877  0.00  0.00    +0.000 C 
ATOM      4  C   UNL     1       0.653  10.221  20.121  0.00  0.00    +0.000 C 
ATOM      5  C   UNL     1       0.983   9.145  21.178  0.00  0.00    +0.000 C 
ATOM      6  C   UNL     1       1.070   7.751  20.606  0.00  0.00    +0.000 C 
ENDROOT
BRANCH   1   7
ATOM      7  S   UNL     1       2.458   5.948  19.207  0.00  0.00    +0.000 S 
ATOM      8  O   UNL     1       1.645   5.570  18.064  0.00  0.00    +0.000 OA
ATOM      9  O   UNL     1       2.290   5.258  20.477  0.00  0.00    +0.000 OA
BRANCH   7  14
ATOM     10  C   UNL     1       7.947   4.463  17.512  0.00  0.00    +0.000 C 
ATOM     11  C   UNL     1       6.594   4.931  17.950  0.00  0.00    +0.000 A 
ATOM     12  C   UNL     1       5.954   5.970  17.289  0.00  0.00    +0.000 A 
ATOM     13  C   UNL     1       4.689   6.337  17.713  0.00  0.00    +0.000 A 
ATOM     14  C   UNL     1       4.136   5.635  18.774  0.00  0.00    +0.000 A 
ATOM     15  N   UNL     1       4.747   4.620  19.405  0.00  0.00    +0.000 NA
ATOM     16  N   UNL     1       6.006   4.277  18.989  0.00  0.00    +0.000 NA
ENDBRANCH   7  14
ENDBRANCH   1   7
BRANCH   4  17
ATOM     17  C   UNL     1       0.955  11.561  20.846  0.00  0.00    +0.000 C 
BRANCH  17  18
ATOM     18  N   UNL     1       1.125  12.688  19.972  0.00  0.00    +0.000 N 
ATOM     19  C   UNL     1       1.543  13.904  20.466  0.00  0.00    +0.000 C 
ATOM     20  O   UNL     1       1.973  14.078  21.593  0.00  0.00    +0.000 OA
ATOM     21  H   UNL     1       0.723  12.635  19.043  0.00  0.00    +0.000 HD
BRANCH  19  22
ATOM     22  C   UNL     1       1.514  15.032  19.511  0.00  0.00    +0.000 A 
ATOM     23  C   UNL     1       0.306  15.734  19.434  0.00  0.00    +0.000 A 
ATOM     24  C   UNL     1       0.183  16.838  18.594  0.00  0.00    +0.000 A 
ATOM     25  C   UNL     1       1.269  17.234  17.816  0.00  0.00    +0.000 A 
ATOM     26 CL   UNL     1       1.129  18.607  16.794  0.00  0.00    +0.000 Cl
ATOM     27  C   UNL     1       2.469  16.524  17.859  0.00  0.00    +0.000 A 
ATOM     28  C   UNL     1       2.596  15.416  18.704  0.00  0.00    +0.000 A 
ATOM     29 CL   UNL     1       4.097  14.563  18.650  0.00  0.00    +0.000 Cl
ENDBRANCH  19  22
ENDBRANCH  17  18
ENDBRANCH   4  17
BRANCH   4  30
ATOM     30  C   UNL     1      -0.834  10.147  19.652  0.00  0.00    +0.000 C 
BRANCH  30  31
ATOM     31  C   UNL     1      -1.065  10.479  18.195  0.00  0.00    +0.000 C 
ATOM     32  C   UNL     1      -2.346  10.051  17.524  0.00  0.00    +0.000 C 
ATOM     33  C   UNL     1      -2.091  11.507  17.792  0.00  0.00    +0.000 C 
ENDBRANCH  30  31
ENDBRANCH   4  30
TORSDOF 7
ENDMDL
MODEL 9
REMARK VINA RESULT:      -7.9      3.268      5.103
REMARK  Name = 
REMARK  8 active torsions:
REMARK  status: ('A' for Active; 'I' for Inactive)
REMARK    1  A    between atoms: C_1  and  C_2
REMARK    2  A    between atoms: C_5  and  S_6
REMARK    3  A    between atoms: S_6  and  C_9
REMARK    4  A    between atoms: C_12  and  C_13
REMARK    5  A    between atoms: C_12  and  C_25
REMARK    6  A    between atoms: C_13  and  N_14
REMARK    7  A    between atoms: C_15  and  C_17
REMARK    8  A    between atoms: C_25  and  C_26
REMARK                            x       y       z     vdW  Elec       q    Type
REMARK                         _______ _______ _______ _____ _____    ______ ____
ROOT
ATOM      1  C   UNL     1       2.525   7.621  18.891  0.00  0.00    +0.000 C 
ATOM      2  C   UNL     1       1.864   8.330  17.702  0.00  0.00    +0.000 C 
ATOM      3  C   UNL     1       1.657   9.831  18.033  0.00  0.00    +0.000 C 
ATOM      4  C   UNL     1       0.894  10.120  19.372  0.00  0.00    +0.000 C 
ATOM      5  C   UNL     1       1.456   9.218  20.492  0.00  0.00    +0.000 C 
ATOM      6  C   UNL     1       1.574   7.768  20.090  0.00  0.00    +0.000 C 
ENDROOT
BRANCH   1   7
ATOM      7  S   UNL     1       2.894   5.884  18.732  0.00  0.00    +0.000 S 
ATOM      8  O   UNL     1       1.653   5.178  18.459  0.00  0.00    +0.000 OA
ATOM      9  O   UNL     1       3.686   5.532  19.900  0.00  0.00    +0.000 OA
BRANCH   7  14
ATOM     10  C   UNL     1       6.930   4.903  14.495  0.00  0.00    +0.000 C 
ATOM     11  C   UNL     1       5.845   5.103  15.508  0.00  0.00    +0.000 A 
ATOM     12  C   UNL     1       5.139   4.021  16.013  0.00  0.00    +0.000 A 
ATOM     13  C   UNL     1       4.173   4.260  16.975  0.00  0.00    +0.000 A 
ATOM     14  C   UNL     1       3.974   5.572  17.377  0.00  0.00    +0.000 A 
ATOM     15  N   UNL     1       4.667   6.618  16.900  0.00  0.00    +0.000 NA
ATOM     16  N   UNL     1       5.609   6.373  15.936  0.00  0.00    +0.000 NA
ENDBRANCH   7  14
ENDBRANCH   1   7
BRANCH   4  17
ATOM     17  C   UNL     1       1.185  11.560  19.872  0.00  0.00    +0.000 C 
BRANCH  17  18
ATOM     18  N   UNL     1       0.265  12.048  20.862  0.00  0.00    +0.000 N 
ATOM     19  C   UNL     1      -0.492  13.173  20.625  0.00  0.00    +0.000 C 
ATOM     20  O   UNL     1      -0.595  13.718  19.539  0.00  0.00    +0.000 OA
ATOM     21  H   UNL     1       0.348  11.688  21.806  0.00  0.00    +0.000 HD
BRANCH  19  22
ATOM     22  C   UNL     1      -1.271  13.680  21.774  0.00  0.00    +0.000 A 
ATOM     23  C   UNL     1      -0.530  14.316  22.777  0.00  0.00    +0.000 A 
ATOM     24  C   UNL     1      -1.170  14.865  23.886  0.00  0.00    +0.000 A 
ATOM     25  C   UNL     1      -2.555  14.765  24.000  0.00  0.00    +0.000 A 
ATOM     26 CL   UNL     1      -3.350  15.458  25.355  0.00  0.00    +0.000 Cl
ATOM     27  C   UNL     1      -3.301  14.105  23.024  0.00  0.00    +0.000 A 
ATOM     28  C   UNL     1      -2.661  13.556  21.908  0.00  0.00    +0.000 A 
ATOM     29 CL   UNL     1      -3.657  12.707  20.779  0.00  0.00    +0.000 Cl
ENDBRANCH  19  22
ENDBRANCH  17  18
ENDBRANCH   4  17
BRANCH   4  30
ATOM     30  C   UNL     1      -0.634   9.890  19.146  0.00  0.00    +0.000 C 
BRANCH  30  31
ATOM     31  C   UNL     1      -1.175  10.418  17.837  0.00  0.00    +0.000 C 
ATOM     32  C   UNL     1      -2.426   9.816  17.246  0.00  0.00    +0.000 C 
ATOM     33  C   UNL     1      -2.455  11.214  17.796  0.00  0.00    +0.000 C 
ENDBRANCH  30  31
ENDBRANCH   4  30
TORSDOF 7
ENDMDL
