MODEL 1
REMARK VINA RESULT:      -8.2      0.000      0.000
REMARK  Name = 
REMARK  8 active torsions:
REMARK  status: ('A' for Active; 'I' for Inactive)
REMARK    1  A    between atoms: C_1  and  C_2
REMARK    2  A    between atoms: C_8  and  C_9
REMARK    3  A    between atoms: C_13  and  O_14
REMARK    4  A    between atoms: O_14  and  C_15
REMARK    5  A    between atoms: C_15  and  C_16
REMARK    6  A    between atoms: C_16  and  N_17
REMARK    7  A    between atoms: C_16  and  C_18
REMARK    8  A    between atoms: C_18  and  C_19
REMARK                            x       y       z     vdW  Elec       q    Type
REMARK                         _______ _______ _______ _____ _____    ______ ____
ROOT
ATOM      1  C   UNL     1       2.376   7.691  18.840  0.00  0.00    +0.000 A 
ATOM      2  C   UNL     1       2.357   8.542  17.733  0.00  0.00    +0.000 A 
ATOM      3  N   UNL     1       1.701   9.725  17.668  0.00  0.00    +0.000 NA
ATOM      4  C   UNL     1       1.031  10.102  18.780  0.00  0.00    +0.000 A 
ATOM      5  C   UNL     1       0.974   9.356  19.949  0.00  0.00    +0.000 A 
ATOM      6  C   UNL     1       1.645   8.133  19.960  0.00  0.00    +0.000 A 
ENDROOT
BRANCH   1  14
ATOM      7  C   UNL     1       2.429   2.571  21.534  0.00  0.00    +0.000 C 
ATOM      8  C   UNL     1       3.397   2.936  20.472  0.00  0.00    +0.000 A 
ATOM      9  N   UNL     1       4.337   2.068  20.079  0.00  0.00    +0.000 NA
ATOM     10  N   UNL     1       5.007   2.732  19.120  0.00  0.00    +0.000 N 
ATOM     11  C   UNL     1       4.531   3.991  18.871  0.00  0.00    +0.000 A 
ATOM     12  C   UNL     1       4.927   4.976  17.969  0.00  0.00    +0.000 A 
ATOM     13  C   UNL     1       4.198   6.176  17.974  0.00  0.00    +0.000 A 
ATOM     14  C   UNL     1       3.122   6.410  18.852  0.00  0.00    +0.000 A 
ATOM     15  C   UNL     1       2.772   5.379  19.751  0.00  0.00    +0.000 A 
ATOM     16  C   UNL     1       3.474   4.159  19.754  0.00  0.00    +0.000 A 
ATOM     17  H   UNL     1       5.784   2.264  18.668  0.00  0.00    +0.000 HD
ENDBRANCH   1  14
BRANCH   5  18
ATOM     18  O   UNL     1       0.261   9.897  20.979  0.00  0.00    +0.000 OA
BRANCH  18  19
ATOM     19  C   UNL     1       0.388  11.309  21.183  0.00  0.00    +0.000 C 
BRANCH  19  20
ATOM     20  C   UNL     1      -1.010  11.904  21.465  0.00  0.00    +0.000 C 
BRANCH  20  21
ATOM     21  N   UNL     1      -1.008  12.588  22.773  0.00  0.00    +0.000 NA
ATOM     22  H   UNL     1      -0.084  12.964  22.972  0.00  0.00    +0.000 HD
ATOM     23  H   UNL     1      -1.175  11.882  23.495  0.00  0.00    +0.000 HD
ENDBRANCH  20  21
BRANCH  20  24
ATOM     24  C   UNL     1      -1.412  12.842  20.305  0.00  0.00    +0.000 C 
BRANCH  24  25
ATOM     25  C   UNL     1      -2.579  12.358  19.476  0.00  0.00    +0.000 A 
ATOM     26  C   UNL     1      -3.898  12.526  19.921  0.00  0.00    +0.000 A 
ATOM     27  C   UNL     1      -4.967  12.075  19.144  0.00  0.00    +0.000 A 
ATOM     28  C   UNL     1      -4.733  11.460  17.914  0.00  0.00    +0.000 A 
ATOM     29  C   UNL     1      -3.425  11.299  17.462  0.00  0.00    +0.000 A 
ATOM     30  I   UNL     1      -3.064  10.399  15.623  0.00  0.00    +0.000 I 
ATOM     31  C   UNL     1      -2.352  11.740  18.237  0.00  0.00    +0.000 A 
ENDBRANCH  24  25
ENDBRANCH  20  24
ENDBRANCH  19  20
ENDBRANCH  18  19
ENDBRANCH   5  18
TORSDOF 7
ENDMDL
MODEL 2
REMARK VINA RESULT:      -8.1      4.271      6.977
REMARK  Name = 
REMARK  8 active torsions:
REMARK  status: ('A' for Active; 'I' for Inactive)
REMARK    1  A    between atoms: C_1  and  C_2
REMARK    2  A    between atoms: C_8  and  C_9
REMARK    3  A    between atoms: C_13  and  O_14
REMARK    4  A    between atoms: O_14  and  C_15
REMARK    5  A    between atoms: C_15  and  C_16
REMARK    6  A    between atoms: C_16  and  N_17
REMARK    7  A    between atoms: C_16  and  C_18
REMARK    8  A    between atoms: C_18  and  C_19
REMARK                            x       y       z     vdW  Elec       q    Type
REMARK                         _______ _______ _______ _____ _____    ______ ____
ROOT
ATOM      1  C   UNL     1       4.186   3.243  17.447  0.00  0.00    +0.000 A 
ATOM      2  C   UNL     1       3.084   2.555  16.931  0.00  0.00    +0.000 A 
ATOM      3  N   UNL     1       2.127   1.947  17.672  0.00  0.00    +0.000 NA
ATOM      4  C   UNL     1       2.257   2.039  19.014  0.00  0.00    +0.000 A 
ATOM      5  C   UNL     1       3.297   2.698  19.656  0.00  0.00    +0.000 A 
ATOM      6  C   UNL     1       4.272   3.289  18.851  0.00  0.00    +0.000 A 
ENDROOT
BRANCH   1  14
ATOM      7  C   UNL     1       6.119   3.176  11.995  0.00  0.00    +0.000 C 
ATOM      8  C   UNL     1       6.682   4.063  13.041  0.00  0.00    +0.000 A 
ATOM      9  N   UNL     1       7.677   4.911  12.753  0.00  0.00    +0.000 NA
ATOM     10  N   UNL     1       7.913   5.537  13.921  0.00  0.00    +0.000 N 
ATOM     11  C   UNL     1       7.104   5.134  14.948  0.00  0.00    +0.000 A 
ATOM     12  C   UNL     1       7.020   5.533  16.281  0.00  0.00    +0.000 A 
ATOM     13  C   UNL     1       6.049   4.903  17.075  0.00  0.00    +0.000 A 
ATOM     14  C   UNL     1       5.196   3.897  16.582  0.00  0.00    +0.000 A 
ATOM     15  C   UNL     1       5.334   3.526  15.226  0.00  0.00    +0.000 A 
ATOM     16  C   UNL     1       6.286   4.156  14.402  0.00  0.00    +0.000 A 
ATOM     17  H   UNL     1       8.645   6.237  13.948  0.00  0.00    +0.000 HD
ENDBRANCH   1  14
BRANCH   5  18
ATOM     18  O   UNL     1       3.262   2.703  21.020  0.00  0.00    +0.000 OA
BRANCH  18  19
ATOM     19  C   UNL     1       2.245   3.502  21.638  0.00  0.00    +0.000 C 
BRANCH  19  20
ATOM     20  C   UNL     1       1.729   4.538  20.614  0.00  0.00    +0.000 C 
BRANCH  20  21
ATOM     21  N   UNL     1       0.258   4.455  20.516  0.00  0.00    +0.000 NA
ATOM     22  H   UNL     1      -0.164   4.626  21.427  0.00  0.00    +0.000 HD
ATOM     23  H   UNL     1       0.014   3.490  20.280  0.00  0.00    +0.000 HD
ENDBRANCH  20  21
BRANCH  20  24
ATOM     24  C   UNL     1       2.219   5.946  21.019  0.00  0.00    +0.000 C 
BRANCH  24  25
ATOM     25  C   UNL     1       2.233   6.957  19.896  0.00  0.00    +0.000 A 
ATOM     26  C   UNL     1       2.939   6.708  18.711  0.00  0.00    +0.000 A 
ATOM     27  C   UNL     1       2.943   7.651  17.680  0.00  0.00    +0.000 A 
ATOM     28  C   UNL     1       2.237   8.846  17.818  0.00  0.00    +0.000 A 
ATOM     29  C   UNL     1       1.526   9.096  18.990  0.00  0.00    +0.000 A 
ATOM     30  I   UNL     1       0.457  10.866  19.200  0.00  0.00    +0.000 I 
ATOM     31  C   UNL     1       1.524   8.161  20.026  0.00  0.00    +0.000 A 
ENDBRANCH  24  25
ENDBRANCH  20  24
ENDBRANCH  19  20
ENDBRANCH  18  19
ENDBRANCH   5  18
TORSDOF 7
ENDMDL
MODEL 3
REMARK VINA RESULT:      -8.1      2.816      3.322
REMARK  Name = 
REMARK  8 active torsions:
REMARK  status: ('A' for Active; 'I' for Inactive)
REMARK    1  A    between atoms: C_1  and  C_2
REMARK    2  A    between atoms: C_8  and  C_9
REMARK    3  A    between atoms: C_13  and  O_14
REMARK    4  A    between atoms: O_14  and  C_15
REMARK    5  A    between atoms: C_15  and  C_16
REMARK    6  A    between atoms: C_16  and  N_17
REMARK    7  A    between atoms: C_16  and  C_18
REMARK    8  A    between atoms: C_18  and  C_19
REMARK                            x       y       z     vdW  Elec       q    Type
REMARK                         _______ _______ _______ _____ _____    ______ ____
ROOT
ATOM      1  C   UNL     1       2.486   7.571  18.765  0.00  0.00    +0.000 A 
ATOM      2  C   UNL     1       2.549   8.316  17.584  0.00  0.00    +0.000 A 
ATOM      3  N   UNL     1       1.927   9.501  17.375  0.00  0.00    +0.000 NA
ATOM      4  C   UNL     1       1.208   9.993  18.407  0.00  0.00    +0.000 A 
ATOM      5  C   UNL     1       1.069   9.360  19.635  0.00  0.00    +0.000 A 
ATOM      6  C   UNL     1       1.708   8.130  19.796  0.00  0.00    +0.000 A 
ENDROOT
BRANCH   1  14
ATOM      7  C   UNL     1       2.033   2.556  21.613  0.00  0.00    +0.000 C 
ATOM      8  C   UNL     1       3.159   2.868  20.700  0.00  0.00    +0.000 A 
ATOM      9  N   UNL     1       4.132   1.974  20.487  0.00  0.00    +0.000 NA
ATOM     10  N   UNL     1       4.953   2.593  19.619  0.00  0.00    +0.000 N 
ATOM     11  C   UNL     1       4.543   3.848  19.257  0.00  0.00    +0.000 A 
ATOM     12  C   UNL     1       5.091   4.794  18.392  0.00  0.00    +0.000 A 
ATOM     13  C   UNL     1       4.392   6.002  18.243  0.00  0.00    +0.000 A 
ATOM     14  C   UNL     1       3.199   6.282  18.936  0.00  0.00    +0.000 A 
ATOM     15  C   UNL     1       2.696   5.291  19.807  0.00  0.00    +0.000 A 
ATOM     16  C   UNL     1       3.367   4.062  19.960  0.00  0.00    +0.000 A 
ATOM     17  H   UNL     1       5.781   2.099  19.309  0.00  0.00    +0.000 HD
ENDBRANCH   1  14
BRANCH   5  18
ATOM     18  O   UNL     1       0.316  10.008  20.570  0.00  0.00    +0.000 OA
BRANCH  18  19
ATOM     19  C   UNL     1      -0.301   9.199  21.579  0.00  0.00    +0.000 C 
BRANCH  19  20
ATOM     20  C   UNL     1      -0.755  10.108  22.743  0.00  0.00    +0.000 C 
BRANCH  20  21
ATOM     21  N   UNL     1      -0.016   9.756  23.971  0.00  0.00    +0.000 NA
ATOM     22  H   UNL     1      -0.659   9.666  24.755  0.00  0.00    +0.000 HD
ATOM     23  H   UNL     1       0.591  10.546  24.208  0.00  0.00    +0.000 HD
ENDBRANCH  20  21
BRANCH  20  24
ATOM     24  C   UNL     1      -0.569  11.588  22.341  0.00  0.00    +0.000 C 
BRANCH  24  25
ATOM     25  C   UNL     1      -1.506  12.553  23.031  0.00  0.00    +0.000 A 
ATOM     26  C   UNL     1      -1.043  13.783  23.519  0.00  0.00    +0.000 A 
ATOM     27  C   UNL     1      -1.919  14.665  24.155  0.00  0.00    +0.000 A 
ATOM     28  C   UNL     1      -3.267  14.333  24.301  0.00  0.00    +0.000 A 
ATOM     29  C   UNL     1      -3.735  13.116  23.810  0.00  0.00    +0.000 A 
ATOM     30  I   UNL     1      -5.744  12.619  24.008  0.00  0.00    +0.000 I 
ATOM     31  C   UNL     1      -2.862  12.227  23.181  0.00  0.00    +0.000 A 
ENDBRANCH  24  25
ENDBRANCH  20  24
ENDBRANCH  19  20
ENDBRANCH  18  19
ENDBRANCH   5  18
TORSDOF 7
ENDMDL
MODEL 4
REMARK VINA RESULT:      -8.0      3.215      3.608
REMARK  Name = 
REMARK  8 active torsions:
REMARK  status: ('A' for Active; 'I' for Inactive)
REMARK    1  A    between atoms: C_1  and  C_2
REMARK    2  A    between atoms: C_8  and  C_9
REMARK    3  A    between atoms: C_13  and  O_14
REMARK    4  A    between atoms: O_14  and  C_15
REMARK    5  A    between atoms: C_15  and  C_16
REMARK    6  A    between atoms: C_16  and  N_17
REMARK    7  A    between atoms: C_16  and  C_18
REMARK    8  A    between atoms: C_18  and  C_19
REMARK                            x       y       z     vdW  Elec       q    Type
REMARK                         _______ _______ _______ _____ _____    ______ ____
ROOT
ATOM      1  C   UNL     1       2.358   7.776  18.466  0.00  0.00    +0.000 A 
ATOM      2  C   UNL     1       2.707   8.787  17.566  0.00  0.00    +0.000 A 
ATOM      3  N   UNL     1       2.213  10.048  17.578  0.00  0.00    +0.000 NA
ATOM      4  C   UNL     1       1.327  10.337  18.557  0.00  0.00    +0.000 A 
ATOM      5  C   UNL     1       0.902   9.431  19.518  0.00  0.00    +0.000 A 
ATOM      6  C   UNL     1       1.419   8.137  19.451  0.00  0.00    +0.000 A 
ENDROOT
BRANCH   1  14
ATOM      7  C   UNL     1       0.786   2.219  18.813  0.00  0.00    +0.000 C 
ATOM      8  C   UNL     1       2.189   2.651  18.598  0.00  0.00    +0.000 A 
ATOM      9  N   UNL     1       3.167   1.748  18.462  0.00  0.00    +0.000 NA
ATOM     10  N   UNL     1       4.271   2.495  18.282  0.00  0.00    +0.000 N 
ATOM     11  C   UNL     1       4.043   3.844  18.286  0.00  0.00    +0.000 A 
ATOM     12  C   UNL     1       4.897   4.934  18.125  0.00  0.00    +0.000 A 
ATOM     13  C   UNL     1       4.317   6.212  18.179  0.00  0.00    +0.000 A 
ATOM     14  C   UNL     1       2.941   6.415  18.404  0.00  0.00    +0.000 A 
ATOM     15  C   UNL     1       2.127   5.273  18.572  0.00  0.00    +0.000 A 
ATOM     16  C   UNL     1       2.680   3.980  18.502  0.00  0.00    +0.000 A 
ATOM     17  H   UNL     1       5.156   2.017  18.157  0.00  0.00    +0.000 HD
ENDBRANCH   1  14
BRANCH   5  18
ATOM     18  O   UNL     1       0.012   9.899  20.442  0.00  0.00    +0.000 OA
BRANCH  18  19
ATOM     19  C   UNL     1      -0.247   9.060  21.573  0.00  0.00    +0.000 C 
BRANCH  19  20
ATOM     20  C   UNL     1      -0.572   9.949  22.794  0.00  0.00    +0.000 C 
BRANCH  20  21
ATOM     21  N   UNL     1       0.349   9.631  23.905  0.00  0.00    +0.000 NA
ATOM     22  H   UNL     1       0.480  10.449  24.496  0.00  0.00    +0.000 HD
ATOM     23  H   UNL     1       1.269   9.437  23.501  0.00  0.00    +0.000 HD
ENDBRANCH  20  21
BRANCH  20  24
ATOM     24  C   UNL     1      -0.508  11.435  22.378  0.00  0.00    +0.000 C 
BRANCH  24  25
ATOM     25  C   UNL     1      -1.518  12.327  23.061  0.00  0.00    +0.000 A 
ATOM     26  C   UNL     1      -2.793  11.849  23.396  0.00  0.00    +0.000 A 
ATOM     27  C   UNL     1      -3.717  12.684  24.027  0.00  0.00    +0.000 A 
ATOM     28  C   UNL     1      -3.375  14.001  24.340  0.00  0.00    +0.000 A 
ATOM     29  C   UNL     1      -2.107  14.479  24.019  0.00  0.00    +0.000 A 
ATOM     30  I   UNL     1      -1.583  16.434  24.494  0.00  0.00    +0.000 I 
ATOM     31  C   UNL     1      -1.182  13.652  23.380  0.00  0.00    +0.000 A 
ENDBRANCH  24  25
ENDBRANCH  20  24
ENDBRANCH  19  20
ENDBRANCH  18  19
ENDBRANCH   5  18
TORSDOF 7
ENDMDL
MODEL 5
REMARK VINA RESULT:      -8.0      2.574      2.804
REMARK  Name = 
REMARK  8 active torsions:
REMARK  status: ('A' for Active; 'I' for Inactive)
REMARK    1  A    between atoms: C_1  and  C_2
REMARK    2  A    between atoms: C_8  and  C_9
REMARK    3  A    between atoms: C_13  and  O_14
REMARK    4  A    between atoms: O_14  and  C_15
REMARK    5  A    between atoms: C_15  and  C_16
REMARK    6  A    between atoms: C_16  and  N_17
REMARK    7  A    between atoms: C_16  and  C_18
REMARK    8  A    between atoms: C_18  and  C_19
REMARK                            x       y       z     vdW  Elec       q    Type
REMARK                         _______ _______ _______ _____ _____    ______ ____
ROOT
ATOM      1  C   UNL     1       2.435   7.723  18.701  0.00  0.00    +0.000 A 
ATOM      2  C   UNL     1       2.673   8.649  17.682  0.00  0.00    +0.000 A 
ATOM      3  N   UNL     1       2.044   9.840  17.547  0.00  0.00    +0.000 NA
ATOM      4  C   UNL     1       1.129  10.147  18.494  0.00  0.00    +0.000 A 
ATOM      5  C   UNL     1       0.803   9.322  19.562  0.00  0.00    +0.000 A 
ATOM      6  C   UNL     1       1.460   8.094  19.645  0.00  0.00    +0.000 A 
ENDROOT
BRANCH   1  14
ATOM      7  C   UNL     1       2.247   2.678  21.526  0.00  0.00    +0.000 C 
ATOM      8  C   UNL     1       3.291   3.005  20.525  0.00  0.00    +0.000 A 
ATOM      9  N   UNL     1       4.246   2.118  20.221  0.00  0.00    +0.000 NA
ATOM     10  N   UNL     1       4.988   2.750  19.293  0.00  0.00    +0.000 N 
ATOM     11  C   UNL     1       4.543   4.006  18.979  0.00  0.00    +0.000 A 
ATOM     12  C   UNL     1       5.012   4.963  18.081  0.00  0.00    +0.000 A 
ATOM     13  C   UNL     1       4.297   6.169  18.004  0.00  0.00    +0.000 A 
ATOM     14  C   UNL     1       3.165   6.436  18.798  0.00  0.00    +0.000 A 
ATOM     15  C   UNL     1       2.743   5.433  19.698  0.00  0.00    +0.000 A 
ATOM     16  C   UNL     1       3.430   4.207  19.781  0.00  0.00    +0.000 A 
ATOM     17  H   UNL     1       5.789   2.263  18.909  0.00  0.00    +0.000 HD
ENDBRANCH   1  14
BRANCH   5  18
ATOM     18  O   UNL     1      -0.135   9.798  20.431  0.00  0.00    +0.000 OA
BRANCH  18  19
ATOM     19  C   UNL     1      -0.371   9.026  21.615  0.00  0.00    +0.000 C 
BRANCH  19  20
ATOM     20  C   UNL     1      -0.560   9.986  22.811  0.00  0.00    +0.000 C 
BRANCH  20  21
ATOM     21  N   UNL     1       0.395   9.643  23.884  0.00  0.00    +0.000 NA
ATOM     22  H   UNL     1       0.114  10.083  24.758  0.00  0.00    +0.000 HD
ATOM     23  H   UNL     1       1.297  10.063  23.646  0.00  0.00    +0.000 HD
ENDBRANCH  20  21
BRANCH  20  24
ATOM     24  C   UNL     1      -0.408  11.445  22.327  0.00  0.00    +0.000 C 
BRANCH  24  25
ATOM     25  C   UNL     1      -1.633  12.308  22.527  0.00  0.00    +0.000 A 
ATOM     26  C   UNL     1      -2.680  11.892  23.361  0.00  0.00    +0.000 A 
ATOM     27  C   UNL     1      -3.805  12.699  23.538  0.00  0.00    +0.000 A 
ATOM     28  C   UNL     1      -3.894  13.933  22.892  0.00  0.00    +0.000 A 
ATOM     29  C   UNL     1      -2.853  14.356  22.068  0.00  0.00    +0.000 A 
ATOM     30  I   UNL     1      -2.967  16.199  21.114  0.00  0.00    +0.000 I 
ATOM     31  C   UNL     1      -1.729  13.550  21.882  0.00  0.00    +0.000 A 
ENDBRANCH  24  25
ENDBRANCH  20  24
ENDBRANCH  19  20
ENDBRANCH  18  19
ENDBRANCH   5  18
TORSDOF 7
ENDMDL
MODEL 6
REMARK VINA RESULT:      -7.9      2.406      4.126
REMARK  Name = 
REMARK  8 active torsions:
REMARK  status: ('A' for Active; 'I' for Inactive)
REMARK    1  A    between atoms: C_1  and  C_2
REMARK    2  A    between atoms: C_8  and  C_9
REMARK    3  A    between atoms: C_13  and  O_14
REMARK    4  A    between atoms: O_14  and  C_15
REMARK    5  A    between atoms: C_15  and  C_16
REMARK    6  A    between atoms: C_16  and  N_17
REMARK    7  A    between atoms: C_16  and  C_18
REMARK    8  A    between atoms: C_18  and  C_19
REMARK                            x       y       z     vdW  Elec       q    Type
REMARK                         _______ _______ _______ _____ _____    ______ ____
ROOT
ATOM      1  C   UNL     1       2.965   4.684  18.795  0.00  0.00    +0.000 A 
ATOM      2  C   UNL     1       2.300   3.484  19.058  0.00  0.00    +0.000 A 
ATOM      3  N   UNL     1       1.271   3.336  19.928  0.00  0.00    +0.000 NA
ATOM      4  C   UNL     1       0.860   4.454  20.568  0.00  0.00    +0.000 A 
ATOM      5  C   UNL     1       1.427   5.708  20.393  0.00  0.00    +0.000 A 
ATOM      6  C   UNL     1       2.499   5.807  19.505  0.00  0.00    +0.000 A 
ENDROOT
BRANCH   1  14
ATOM      7  C   UNL     1       7.649   7.891  17.677  0.00  0.00    +0.000 C 
ATOM      8  C   UNL     1       7.240   6.738  16.839  0.00  0.00    +0.000 A 
ATOM      9  N   UNL     1       7.963   6.379  15.771  0.00  0.00    +0.000 NA
ATOM     10  N   UNL     1       7.303   5.316  15.278  0.00  0.00    +0.000 N 
ATOM     11  C   UNL     1       6.187   4.967  15.990  0.00  0.00    +0.000 A 
ATOM     12  C   UNL     1       5.257   3.944  15.822  0.00  0.00    +0.000 A 
ATOM     13  C   UNL     1       4.215   3.869  16.761  0.00  0.00    +0.000 A 
ATOM     14  C   UNL     1       4.080   4.783  17.824  0.00  0.00    +0.000 A 
ATOM     15  C   UNL     1       5.047   5.806  17.937  0.00  0.00    +0.000 A 
ATOM     16  C   UNL     1       6.113   5.892  17.021  0.00  0.00    +0.000 A 
ATOM     17  H   UNL     1       7.672   4.868  14.447  0.00  0.00    +0.000 HD
ENDBRANCH   1  14
BRANCH   5  18
ATOM     18  O   UNL     1       0.875   6.729  21.111  0.00  0.00    +0.000 OA
BRANCH  18  19
ATOM     19  C   UNL     1       1.612   7.957  21.161  0.00  0.00    +0.000 C 
BRANCH  19  20
ATOM     20  C   UNL     1       0.631   9.138  20.987  0.00  0.00    +0.000 C 
BRANCH  20  21
ATOM     21  N   UNL     1       0.940  10.195  21.971  0.00  0.00    +0.000 NA
ATOM     22  H   UNL     1       0.124  10.386  22.549  0.00  0.00    +0.000 HD
ATOM     23  H   UNL     1       1.116  11.061  21.455  0.00  0.00    +0.000 HD
ENDBRANCH  20  21
BRANCH  20  24
ATOM     24  C   UNL     1       0.696   9.647  19.530  0.00  0.00    +0.000 C 
BRANCH  24  25
ATOM     25  C   UNL     1      -0.552  10.354  19.052  0.00  0.00    +0.000 A 
ATOM     26  C   UNL     1      -1.163  11.345  19.832  0.00  0.00    +0.000 A 
ATOM     27  C   UNL     1      -2.316  11.990  19.378  0.00  0.00    +0.000 A 
ATOM     28  C   UNL     1      -2.863  11.661  18.138  0.00  0.00    +0.000 A 
ATOM     29  C   UNL     1      -2.254  10.684  17.352  0.00  0.00    +0.000 A 
ATOM     30  I   UNL     1      -3.052  10.198  15.496  0.00  0.00    +0.000 I 
ATOM     31  C   UNL     1      -1.108  10.030  17.805  0.00  0.00    +0.000 A 
ENDBRANCH  24  25
ENDBRANCH  20  24
ENDBRANCH  19  20
ENDBRANCH  18  19
ENDBRANCH   5  18
TORSDOF 7
ENDMDL
MODEL 7
REMARK VINA RESULT:      -7.9      2.549      4.414
REMARK  Name = 
REMARK  8 active torsions:
REMARK  status: ('A' for Active; 'I' for Inactive)
REMARK    1  A    between atoms: C_1  and  C_2
REMARK    2  A    between atoms: C_8  and  C_9
REMARK    3  A    between atoms: C_13  and  O_14
REMARK    4  A    between atoms: O_14  and  C_15
REMARK    5  A    between atoms: C_15  and  C_16
REMARK    6  A    between atoms: C_16  and  N_17
REMARK    7  A    between atoms: C_16  and  C_18
REMARK    8  A    between atoms: C_18  and  C_19
REMARK                            x       y       z     vdW  Elec       q    Type
REMARK                         _______ _______ _______ _____ _____    ______ ____
ROOT
ATOM      1  C   UNL     1       3.979   4.780  19.071  0.00  0.00    +0.000 A 
ATOM      2  C   UNL     1       3.755   3.501  19.585  0.00  0.00    +0.000 A 
ATOM      3  N   UNL     1       2.804   3.180  20.495  0.00  0.00    +0.000 NA
ATOM      4  C   UNL     1       2.008   4.189  20.913  0.00  0.00    +0.000 A 
ATOM      5  C   UNL     1       2.117   5.502  20.478  0.00  0.00    +0.000 A 
ATOM      6  C   UNL     1       3.127   5.790  19.558  0.00  0.00    +0.000 A 
ENDROOT
BRANCH   1  14
ATOM      7  C   UNL     1       5.139   3.998  13.457  0.00  0.00    +0.000 C 
ATOM      8  C   UNL     1       6.068   4.685  14.386  0.00  0.00    +0.000 A 
ATOM      9  N   UNL     1       7.235   5.172  13.948  0.00  0.00    +0.000 NA
ATOM     10  N   UNL     1       7.789   5.716  15.046  0.00  0.00    +0.000 N 
ATOM     11  C   UNL     1       7.022   5.609  16.175  0.00  0.00    +0.000 A 
ATOM     12  C   UNL     1       7.224   6.041  17.484  0.00  0.00    +0.000 A 
ATOM     13  C   UNL     1       6.207   5.764  18.411  0.00  0.00    +0.000 A 
ATOM     14  C   UNL     1       5.032   5.066  18.068  0.00  0.00    +0.000 A 
ATOM     15  C   UNL     1       4.887   4.643  16.729  0.00  0.00    +0.000 A 
ATOM     16  C   UNL     1       5.883   4.925  15.775  0.00  0.00    +0.000 A 
ATOM     17  H   UNL     1       8.699   6.152  14.956  0.00  0.00    +0.000 HD
ENDBRANCH   1  14
BRANCH   5  18
ATOM     18  O   UNL     1       1.219   6.389  20.996  0.00  0.00    +0.000 OA
BRANCH  18  19
ATOM     19  C   UNL     1       1.660   7.744  21.145  0.00  0.00    +0.000 C 
BRANCH  19  20
ATOM     20  C   UNL     1       0.436   8.683  21.060  0.00  0.00    +0.000 C 
BRANCH  20  21
ATOM     21  N   UNL     1      -0.047   9.002  22.419  0.00  0.00    +0.000 NA
ATOM     22  H   UNL     1      -0.601   9.855  22.403  0.00  0.00    +0.000 HD
ATOM     23  H   UNL     1       0.770   9.218  22.998  0.00  0.00    +0.000 HD
ENDBRANCH  20  21
BRANCH  20  24
ATOM     24  C   UNL     1       0.814   9.946  20.254  0.00  0.00    +0.000 C 
BRANCH  24  25
ATOM     25  C   UNL     1      -0.360  10.693  19.663  0.00  0.00    +0.000 A 
ATOM     26  C   UNL     1      -0.923  11.792  20.325  0.00  0.00    +0.000 A 
ATOM     27  C   UNL     1      -2.007  12.473  19.768  0.00  0.00    +0.000 A 
ATOM     28  C   UNL     1      -2.533  12.071  18.540  0.00  0.00    +0.000 A 
ATOM     29  C   UNL     1      -1.972  10.985  17.871  0.00  0.00    +0.000 A 
ATOM     30  I   UNL     1      -2.738  10.387  16.033  0.00  0.00    +0.000 I 
ATOM     31  C   UNL     1      -0.894  10.295  18.427  0.00  0.00    +0.000 A 
ENDBRANCH  24  25
ENDBRANCH  20  24
ENDBRANCH  19  20
ENDBRANCH  18  19
ENDBRANCH   5  18
TORSDOF 7
ENDMDL
MODEL 8
REMARK VINA RESULT:      -7.9      1.166      1.478
REMARK  Name = 
REMARK  8 active torsions:
REMARK  status: ('A' for Active; 'I' for Inactive)
REMARK    1  A    between atoms: C_1  and  C_2
REMARK    2  A    between atoms: C_8  and  C_9
REMARK    3  A    between atoms: C_13  and  O_14
REMARK    4  A    between atoms: O_14  and  C_15
REMARK    5  A    between atoms: C_15  and  C_16
REMARK    6  A    between atoms: C_16  and  N_17
REMARK    7  A    between atoms: C_16  and  C_18
REMARK    8  A    between atoms: C_18  and  C_19
REMARK                            x       y       z     vdW  Elec       q    Type
REMARK                         _______ _______ _______ _____ _____    ______ ____
ROOT
ATOM      1  C   UNL     1       2.444   7.647  18.776  0.00  0.00    +0.000 A 
ATOM      2  C   UNL     1       2.499   8.490  17.663  0.00  0.00    +0.000 A 
ATOM      3  N   UNL     1       1.862   9.680  17.553  0.00  0.00    +0.000 NA
ATOM      4  C   UNL     1       1.135  10.074  18.622  0.00  0.00    +0.000 A 
ATOM      5  C   UNL     1       1.003   9.337  19.791  0.00  0.00    +0.000 A 
ATOM      6  C   UNL     1       1.657   8.106  19.849  0.00  0.00    +0.000 A 
ENDROOT
BRANCH   1  14
ATOM      7  C   UNL     1       2.313   2.568  21.543  0.00  0.00    +0.000 C 
ATOM      8  C   UNL     1       3.331   2.904  20.519  0.00  0.00    +0.000 A 
ATOM      9  N   UNL     1       4.276   2.019  20.180  0.00  0.00    +0.000 NA
ATOM     10  N   UNL     1       4.996   2.660  19.242  0.00  0.00    +0.000 N 
ATOM     11  C   UNL     1       4.547   3.922  18.955  0.00  0.00    +0.000 A 
ATOM     12  C   UNL     1       4.996   4.888  18.056  0.00  0.00    +0.000 A 
ATOM     13  C   UNL     1       4.283   6.097  18.012  0.00  0.00    +0.000 A 
ATOM     14  C   UNL     1       3.172   6.357  18.839  0.00  0.00    +0.000 A 
ATOM     15  C   UNL     1       2.770   5.344  19.737  0.00  0.00    +0.000 A 
ATOM     16  C   UNL     1       3.455   4.116  19.787  0.00  0.00    +0.000 A 
ATOM     17  H   UNL     1       5.786   2.176  18.831  0.00  0.00    +0.000 HD
ENDBRANCH   1  14
BRANCH   5  18
ATOM     18  O   UNL     1       0.240   9.894  20.776  0.00  0.00    +0.000 OA
BRANCH  18  19
ATOM     19  C   UNL     1       0.562  11.236  21.163  0.00  0.00    +0.000 C 
BRANCH  19  20
ATOM     20  C   UNL     1      -0.746  12.049  21.293  0.00  0.00    +0.000 C 
BRANCH  20  21
ATOM     21  N   UNL     1      -0.631  13.007  22.411  0.00  0.00    +0.000 NA
ATOM     22  H   UNL     1      -1.457  12.954  23.004  0.00  0.00    +0.000 HD
ATOM     23  H   UNL     1      -0.640  13.951  22.015  0.00  0.00    +0.000 HD
ENDBRANCH  20  21
BRANCH  20  24
ATOM     24  C   UNL     1      -1.054  12.742  19.947  0.00  0.00    +0.000 C 
BRANCH  24  25
ATOM     25  C   UNL     1      -2.310  12.256  19.260  0.00  0.00    +0.000 A 
ATOM     26  C   UNL     1      -2.246  11.575  18.037  0.00  0.00    +0.000 A 
ATOM     27  C   UNL     1      -3.414  11.131  17.413  0.00  0.00    +0.000 A 
ATOM     28  C   UNL     1      -4.656  11.356  18.008  0.00  0.00    +0.000 A 
ATOM     29  C   UNL     1      -4.727  12.025  19.228  0.00  0.00    +0.000 A 
ATOM     30  I   UNL     1      -6.571  12.350  20.130  0.00  0.00    +0.000 I 
ATOM     31  C   UNL     1      -3.563  12.477  19.852  0.00  0.00    +0.000 A 
ENDBRANCH  24  25
ENDBRANCH  20  24
ENDBRANCH  19  20
ENDBRANCH  18  19
ENDBRANCH   5  18
TORSDOF 7
ENDMDL
MODEL 9
REMARK VINA RESULT:      -7.9      2.961      4.867
REMARK  Name = 
REMARK  8 active torsions:
REMARK  status: ('A' for Active; 'I' for Inactive)
REMARK    1  A    between atoms: C_1  and  C_2
REMARK    2  A    between atoms: C_8  and  C_9
REMARK    3  A    between atoms: C_13  and  O_14
REMARK    4  A    between atoms: O_14  and  C_15
REMARK    5  A    between atoms: C_15  and  C_16
REMARK    6  A    between atoms: C_16  and  N_17
REMARK    7  A    between atoms: C_16  and  C_18
REMARK    8  A    between atoms: C_18  and  C_19
REMARK                            x       y       z     vdW  Elec       q    Type
REMARK                         _______ _______ _______ _____ _____    ______ ____
ROOT
ATOM      1  C   UNL     1       3.999   4.402  17.981  0.00  0.00    +0.000 A 
ATOM      2  C   UNL     1       3.636   3.110  18.368  0.00  0.00    +0.000 A 
ATOM      3  N   UNL     1       2.664   2.808  19.262  0.00  0.00    +0.000 NA
ATOM      4  C   UNL     1       1.994   3.852  19.797  0.00  0.00    +0.000 A 
ATOM      5  C   UNL     1       2.248   5.182  19.494  0.00  0.00    +0.000 A 
ATOM      6  C   UNL     1       3.274   5.446  18.586  0.00  0.00    +0.000 A 
ENDROOT
BRANCH   1  14
ATOM      7  C   UNL     1       5.354   3.302  12.465  0.00  0.00    +0.000 C 
ATOM      8  C   UNL     1       6.226   4.091  13.369  0.00  0.00    +0.000 A 
ATOM      9  N   UNL     1       7.382   4.600  12.929  0.00  0.00    +0.000 NA
ATOM     10  N   UNL     1       7.881   5.240  14.002  0.00  0.00    +0.000 N 
ATOM     11  C   UNL     1       7.086   5.173  15.115  0.00  0.00    +0.000 A 
ATOM     12  C   UNL     1       7.232   5.701  16.397  0.00  0.00    +0.000 A 
ATOM     13  C   UNL     1       6.201   5.440  17.314  0.00  0.00    +0.000 A 
ATOM     14  C   UNL     1       5.068   4.668  16.988  0.00  0.00    +0.000 A 
ATOM     15  C   UNL     1       4.981   4.151  15.678  0.00  0.00    +0.000 A 
ATOM     16  C   UNL     1       5.990   4.414  14.732  0.00  0.00    +0.000 A 
ATOM     17  H   UNL     1       8.773   5.710  13.907  0.00  0.00    +0.000 HD
ENDBRANCH   1  14
BRANCH   5  18
ATOM     18  O   UNL     1       1.463   6.107  20.119  0.00  0.00    +0.000 OA
BRANCH  18  19
ATOM     19  C   UNL     1       2.084   7.349  20.473  0.00  0.00    +0.000 C 
BRANCH  19  20
ATOM     20  C   UNL     1       0.990   8.424  20.656  0.00  0.00    +0.000 C 
BRANCH  20  21
ATOM     21  N   UNL     1       1.057   8.981  22.022  0.00  0.00    +0.000 NA
ATOM     22  H   UNL     1       1.592   8.361  22.628  0.00  0.00    +0.000 HD
ATOM     23  H   UNL     1       0.108   8.984  22.405  0.00  0.00    +0.000 HD
ENDBRANCH  20  21
BRANCH  20  24
ATOM     24  C   UNL     1       1.147   9.507  19.565  0.00  0.00    +0.000 C 
BRANCH  24  25
ATOM     25  C   UNL     1      -0.127  10.240  19.214  0.00  0.00    +0.000 A 
ATOM     26  C   UNL     1      -0.658  11.214  20.070  0.00  0.00    +0.000 A 
ATOM     27  C   UNL     1      -1.836  11.884  19.733  0.00  0.00    +0.000 A 
ATOM     28  C   UNL     1      -2.490  11.596  18.535  0.00  0.00    +0.000 A 
ATOM     29  C   UNL     1      -1.962  10.635  17.675  0.00  0.00    +0.000 A 
ATOM     30  I   UNL     1      -2.920  10.210  15.880  0.00  0.00    +0.000 I 
ATOM     31  C   UNL     1      -0.790   9.957  18.010  0.00  0.00    +0.000 A 
ENDBRANCH  24  25
ENDBRANCH  20  24
ENDBRANCH  19  20
ENDBRANCH  18  19
ENDBRANCH   5  18
TORSDOF 7
ENDMDL
