MODEL 1
REMARK VINA RESULT:      -8.3      0.000      0.000
REMARK  Name = 
REMARK  3 active torsions:
REMARK  status: ('A' for Active; 'I' for Inactive)
REMARK    1  A    between atoms: C_2  and  C_3
REMARK    2  A    between atoms: C_7  and  C_8
REMARK    3  A    between atoms: C_14  and  C_15
REMARK                            x       y       z     vdW  Elec       q    Type
REMARK                         _______ _______ _______ _____ _____    ______ ____
ROOT
ATOM      1  C   UNL     1       2.624   6.418  18.575  0.00  0.00    +0.000 A 
ATOM      2  N   UNL     1       3.847   6.286  18.049  0.00  0.00    +0.000 NA
ATOM      3  C   UNL     1       4.303   5.037  17.819  0.00  0.00    +0.000 A 
ATOM      4  N   UNL     1       5.595   4.882  17.224  0.00  0.00    +0.000 N 
ATOM      5  C   UNL     1       6.562   5.840  17.192  0.00  0.00    +0.000 A 
ATOM      6  C   UNL     1       6.863   6.673  18.303  0.00  0.00    +0.000 A 
ATOM      7  C   UNL     1       7.715   7.628  17.813  0.00  0.00    +0.000 A 
ATOM      8  N   UNL     1       8.024   7.226  16.546  0.00  0.00    +0.000 N 
ATOM      9  N   UNL     1       7.364   6.112  16.153  0.00  0.00    +0.000 NA
ATOM     10  C   UNL     1       3.532   3.893  18.153  0.00  0.00    +0.000 A 
ATOM     11  C   UNL     1       3.935   2.529  18.082  0.00  0.00    +0.000 A 
ATOM     12  C   UNL     1       3.043   1.486  18.343  0.00  0.00    +0.000 A 
ATOM     13  C   UNL     1       1.746   1.783  18.745  0.00  0.00    +0.000 A 
ATOM     14  C   UNL     1       1.378   3.116  18.917  0.00  0.00    +0.000 A 
ATOM     15  C   UNL     1       2.244   4.168  18.635  0.00  0.00    +0.000 A 
ATOM     16  N   UNL     1       1.799   5.402  18.849  0.00  0.00    +0.000 NA
ATOM     17  H   UNL     1       5.528   4.315  16.385  0.00  0.00    +0.000 HD
ATOM     18  H   UNL     1       8.617   7.706  15.879  0.00  0.00    +0.000 HD
ENDROOT
BRANCH   1  23
ATOM     19  C   UNL     1       1.265   9.360  20.553  0.00  0.00    +0.000 A 
ATOM     20  C   UNL     1       1.218  10.354  19.569  0.00  0.00    +0.000 A 
ATOM     21  C   UNL     1       1.635  10.069  18.271  0.00  0.00    +0.000 A 
ATOM     22  C   UNL     1       2.102   8.794  17.954  0.00  0.00    +0.000 A 
ATOM     23  C   UNL     1       2.156   7.771  18.923  0.00  0.00    +0.000 A 
ATOM     24  C   UNL     1       1.726   8.083  20.225  0.00  0.00    +0.000 A 
BRANCH  19  26
ATOM     25  N   UNL     1       0.486   9.879  22.973  0.00  0.00    +0.000 NA
ATOM     26  C   UNL     1       0.832   9.648  21.880  0.00  0.00    +0.000 C 
ENDBRANCH  19  26
ENDBRANCH   1  23
BRANCH   7  27
ATOM     27  C   UNL     1       8.138   8.901  18.514  0.00  0.00    +0.000 C 
ATOM     28  C   UNL     1       9.242   9.746  17.914  0.00  0.00    +0.000 C 
ATOM     29  C   UNL     1       7.831  10.213  17.818  0.00  0.00    +0.000 C 
ENDBRANCH   7  27
TORSDOF 3
ENDMDL
MODEL 2
REMARK VINA RESULT:      -8.2      1.473      1.651
REMARK  Name = 
REMARK  3 active torsions:
REMARK  status: ('A' for Active; 'I' for Inactive)
REMARK    1  A    between atoms: C_2  and  C_3
REMARK    2  A    between atoms: C_7  and  C_8
REMARK    3  A    between atoms: C_14  and  C_15
REMARK                            x       y       z     vdW  Elec       q    Type
REMARK                         _______ _______ _______ _____ _____    ______ ____
ROOT
ATOM      1  C   UNL     1       2.597   6.323  19.339  0.00  0.00    +0.000 A 
ATOM      2  N   UNL     1       3.686   5.858  18.717  0.00  0.00    +0.000 NA
ATOM      3  C   UNL     1       4.094   4.605  19.012  0.00  0.00    +0.000 A 
ATOM      4  N   UNL     1       5.236   4.082  18.328  0.00  0.00    +0.000 N 
ATOM      5  C   UNL     1       6.169   4.830  17.676  0.00  0.00    +0.000 A 
ATOM      6  C   UNL     1       6.687   6.047  18.197  0.00  0.00    +0.000 A 
ATOM      7  C   UNL     1       7.412   6.594  17.171  0.00  0.00    +0.000 A 
ATOM      8  N   UNL     1       7.457   5.634  16.203  0.00  0.00    +0.000 N 
ATOM      9  N   UNL     1       6.738   4.527  16.501  0.00  0.00    +0.000 NA
ATOM     10  C   UNL     1       3.417   3.812  19.975  0.00  0.00    +0.000 A 
ATOM     11  C   UNL     1       3.806   2.536  20.470  0.00  0.00    +0.000 A 
ATOM     12  C   UNL     1       2.995   1.809  21.346  0.00  0.00    +0.000 A 
ATOM     13  C   UNL     1       1.806   2.371  21.798  0.00  0.00    +0.000 A 
ATOM     14  C   UNL     1       1.472   3.664  21.398  0.00  0.00    +0.000 A 
ATOM     15  C   UNL     1       2.254   4.390  20.505  0.00  0.00    +0.000 A 
ATOM     16  N   UNL     1       1.854   5.620  20.201  0.00  0.00    +0.000 NA
ATOM     17  H   UNL     1       5.002   3.204  17.876  0.00  0.00    +0.000 HD
ATOM     18  H   UNL     1       7.896   5.703  15.292  0.00  0.00    +0.000 HD
ENDROOT
BRANCH   1  23
ATOM     19  C   UNL     1       1.080   9.769  19.827  0.00  0.00    +0.000 A 
ATOM     20  C   UNL     1       1.407  10.387  18.615  0.00  0.00    +0.000 A 
ATOM     21  C   UNL     1       2.125   9.687  17.648  0.00  0.00    +0.000 A 
ATOM     22  C   UNL     1       2.520   8.372  17.891  0.00  0.00    +0.000 A 
ATOM     23  C   UNL     1       2.201   7.721  19.100  0.00  0.00    +0.000 A 
ATOM     24  C   UNL     1       1.472   8.448  20.059  0.00  0.00    +0.000 A 
BRANCH  19  26
ATOM     25  N   UNL     1      -0.262  11.061  21.633  0.00  0.00    +0.000 NA
ATOM     26  C   UNL     1       0.339  10.481  20.815  0.00  0.00    +0.000 C 
ENDBRANCH  19  26
ENDBRANCH   1  23
BRANCH   7  27
ATOM     27  C   UNL     1       7.962   8.003  17.110  0.00  0.00    +0.000 C 
ATOM     28  C   UNL     1       7.223   9.118  17.819  0.00  0.00    +0.000 C 
ATOM     29  C   UNL     1       8.492   8.598  18.400  0.00  0.00    +0.000 C 
ENDBRANCH   7  27
TORSDOF 3
ENDMDL
MODEL 3
REMARK VINA RESULT:      -7.3      2.824      6.700
REMARK  Name = 
REMARK  3 active torsions:
REMARK  status: ('A' for Active; 'I' for Inactive)
REMARK    1  A    between atoms: C_2  and  C_3
REMARK    2  A    between atoms: C_7  and  C_8
REMARK    3  A    between atoms: C_14  and  C_15
REMARK                            x       y       z     vdW  Elec       q    Type
REMARK                         _______ _______ _______ _____ _____    ______ ____
ROOT
ATOM      1  C   UNL     1       7.045   5.525  16.452  0.00  0.00    +0.000 A 
ATOM      2  N   UNL     1       6.131   4.633  16.853  0.00  0.00    +0.000 NA
ATOM      3  C   UNL     1       5.584   3.827  15.918  0.00  0.00    +0.000 A 
ATOM      4  N   UNL     1       4.632   2.846  16.338  0.00  0.00    +0.000 N 
ATOM      5  C   UNL     1       3.951   2.869  17.517  0.00  0.00    +0.000 A 
ATOM      6  C   UNL     1       3.391   4.055  18.063  0.00  0.00    +0.000 A 
ATOM      7  C   UNL     1       2.995   3.712  19.330  0.00  0.00    +0.000 A 
ATOM      8  N   UNL     1       3.148   2.360  19.407  0.00  0.00    +0.000 N 
ATOM      9  N   UNL     1       3.694   1.809  18.297  0.00  0.00    +0.000 NA
ATOM     10  C   UNL     1       5.934   3.938  14.547  0.00  0.00    +0.000 A 
ATOM     11  C   UNL     1       5.351   3.246  13.449  0.00  0.00    +0.000 A 
ATOM     12  C   UNL     1       5.856   3.368  12.152  0.00  0.00    +0.000 A 
ATOM     13  C   UNL     1       6.917   4.234  11.913  0.00  0.00    +0.000 A 
ATOM     14  C   UNL     1       7.423   4.993  12.967  0.00  0.00    +0.000 A 
ATOM     15  C   UNL     1       6.949   4.864  14.269  0.00  0.00    +0.000 A 
ATOM     16  N   UNL     1       7.490   5.646  15.197  0.00  0.00    +0.000 NA
ATOM     17  H   UNL     1       4.923   1.923  16.032  0.00  0.00    +0.000 HD
ATOM     18  H   UNL     1       2.969   1.767  20.210  0.00  0.00    +0.000 HD
ENDROOT
BRANCH   1  23
ATOM     19  C   UNL     1       8.198   8.749  18.092  0.00  0.00    +0.000 A 
ATOM     20  C   UNL     1       8.634   8.283  19.337  0.00  0.00    +0.000 A 
ATOM     21  C   UNL     1       8.543   6.928  19.644  0.00  0.00    +0.000 A 
ATOM     22  C   UNL     1       8.017   6.036  18.710  0.00  0.00    +0.000 A 
ATOM     23  C   UNL     1       7.574   6.475  17.445  0.00  0.00    +0.000 A 
ATOM     24  C   UNL     1       7.679   7.849  17.158  0.00  0.00    +0.000 A 
BRANCH  19  26
ATOM     25  N   UNL     1       8.375  11.275  17.525  0.00  0.00    +0.000 NA
ATOM     26  C   UNL     1       8.296  10.135  17.774  0.00  0.00    +0.000 C 
ENDBRANCH  19  26
ENDBRANCH   1  23
BRANCH   7  27
ATOM     27  C   UNL     1       2.568   4.665  20.427  0.00  0.00    +0.000 C 
ATOM     28  C   UNL     1       2.064   6.043  20.057  0.00  0.00    +0.000 C 
ATOM     29  C   UNL     1       1.094   5.010  20.513  0.00  0.00    +0.000 C 
ENDBRANCH   7  27
TORSDOF 3
ENDMDL
MODEL 4
REMARK VINA RESULT:      -7.3      6.117     11.120
REMARK  Name = 
REMARK  3 active torsions:
REMARK  status: ('A' for Active; 'I' for Inactive)
REMARK    1  A    between atoms: C_2  and  C_3
REMARK    2  A    between atoms: C_7  and  C_8
REMARK    3  A    between atoms: C_14  and  C_15
REMARK                            x       y       z     vdW  Elec       q    Type
REMARK                         _______ _______ _______ _____ _____    ______ ____
ROOT
ATOM      1  C   UNL     1      -4.667  13.043  21.637  0.00  0.00    +0.000 A 
ATOM      2  N   UNL     1      -3.520  12.471  22.023  0.00  0.00    +0.000 NA
ATOM      3  C   UNL     1      -2.824  13.064  23.016  0.00  0.00    +0.000 A 
ATOM      4  N   UNL     1      -1.614  12.445  23.463  0.00  0.00    +0.000 N 
ATOM      5  C   UNL     1      -0.902  11.519  22.762  0.00  0.00    +0.000 A 
ATOM      6  C   UNL     1      -0.664  11.623  21.365  0.00  0.00    +0.000 A 
ATOM      7  C   UNL     1      -0.120  10.417  21.006  0.00  0.00    +0.000 A 
ATOM      8  N   UNL     1       0.114   9.758  22.177  0.00  0.00    +0.000 N 
ATOM      9  N   UNL     1      -0.318  10.426  23.272  0.00  0.00    +0.000 NA
ATOM     10  C   UNL     1      -3.266  14.274  23.612  0.00  0.00    +0.000 A 
ATOM     11  C   UNL     1      -2.575  15.066  24.572  0.00  0.00    +0.000 A 
ATOM     12  C   UNL     1      -3.165  16.188  25.160  0.00  0.00    +0.000 A 
ATOM     13  C   UNL     1      -4.437  16.579  24.755  0.00  0.00    +0.000 A 
ATOM     14  C   UNL     1      -5.075  15.867  23.741  0.00  0.00    +0.000 A 
ATOM     15  C   UNL     1      -4.513  14.733  23.164  0.00  0.00    +0.000 A 
ATOM     16  N   UNL     1      -5.197  14.137  22.193  0.00  0.00    +0.000 NA
ATOM     17  H   UNL     1      -1.653  12.284  24.464  0.00  0.00    +0.000 HD
ATOM     18  H   UNL     1       0.495   8.826  22.290  0.00  0.00    +0.000 HD
ENDROOT
BRANCH   1  23
ATOM     19  C   UNL     1      -5.401  11.637  18.187  0.00  0.00    +0.000 A 
ATOM     20  C   UNL     1      -6.776  11.390  18.279  0.00  0.00    +0.000 A 
ATOM     21  C   UNL     1      -7.456  11.671  19.460  0.00  0.00    +0.000 A 
ATOM     22  C   UNL     1      -6.767  12.197  20.552  0.00  0.00    +0.000 A 
ATOM     23  C   UNL     1      -5.383  12.461  20.489  0.00  0.00    +0.000 A 
ATOM     24  C   UNL     1      -4.720  12.171  19.283  0.00  0.00    +0.000 A 
BRANCH  19  26
ATOM     25  N   UNL     1      -4.142  11.121  15.978  0.00  0.00    +0.000 NA
ATOM     26  C   UNL     1      -4.704  11.355  16.976  0.00  0.00    +0.000 C 
ENDBRANCH  19  26
ENDBRANCH   1  23
BRANCH   7  27
ATOM     27  C   UNL     1       0.086   9.908  19.595  0.00  0.00    +0.000 C 
ATOM     28  C   UNL     1       1.105  10.585  18.704  0.00  0.00    +0.000 C 
ATOM     29  C   UNL     1       1.414   9.248  19.281  0.00  0.00    +0.000 C 
ENDBRANCH   7  27
TORSDOF 3
ENDMDL
MODEL 5
REMARK VINA RESULT:      -7.2      0.925      1.169
REMARK  Name = 
REMARK  3 active torsions:
REMARK  status: ('A' for Active; 'I' for Inactive)
REMARK    1  A    between atoms: C_2  and  C_3
REMARK    2  A    between atoms: C_7  and  C_8
REMARK    3  A    between atoms: C_14  and  C_15
REMARK                            x       y       z     vdW  Elec       q    Type
REMARK                         _______ _______ _______ _____ _____    ______ ____
ROOT
ATOM      1  C   UNL     1       2.405   6.262  18.569  0.00  0.00    +0.000 A 
ATOM      2  N   UNL     1       3.488   5.857  17.895  0.00  0.00    +0.000 NA
ATOM      3  C   UNL     1       3.754   4.534  17.867  0.00  0.00    +0.000 A 
ATOM      4  N   UNL     1       4.889   4.083  17.121  0.00  0.00    +0.000 N 
ATOM      5  C   UNL     1       5.932   4.867  16.732  0.00  0.00    +0.000 A 
ATOM      6  C   UNL     1       6.523   5.844  17.577  0.00  0.00    +0.000 A 
ATOM      7  C   UNL     1       7.368   6.554  16.765  0.00  0.00    +0.000 A 
ATOM      8  N   UNL     1       7.391   5.878  15.581  0.00  0.00    +0.000 N 
ATOM      9  N   UNL     1       6.553   4.816  15.544  0.00  0.00    +0.000 NA
ATOM     10  C   UNL     1       2.939   3.599  18.556  0.00  0.00    +0.000 A 
ATOM     11  C   UNL     1       3.170   2.203  18.713  0.00  0.00    +0.000 A 
ATOM     12  C   UNL     1       2.234   1.368  19.330  0.00  0.00    +0.000 A 
ATOM     13  C   UNL     1       1.073   1.921  19.860  0.00  0.00    +0.000 A 
ATOM     14  C   UNL     1       0.892   3.302  19.801  0.00  0.00    +0.000 A 
ATOM     15  C   UNL     1       1.800   4.143  19.167  0.00  0.00    +0.000 A 
ATOM     16  N   UNL     1       1.540   5.447  19.181  0.00  0.00    +0.000 NA
ATOM     17  H   UNL     1       4.606   3.382  16.444  0.00  0.00    +0.000 HD
ATOM     18  H   UNL     1       7.900   6.130  14.741  0.00  0.00    +0.000 HD
ENDROOT
BRANCH   1  23
ATOM     19  C   UNL     1       1.365   9.633  19.973  0.00  0.00    +0.000 A 
ATOM     20  C   UNL     1       1.653  10.479  18.896  0.00  0.00    +0.000 A 
ATOM     21  C   UNL     1       2.191   9.956  17.724  0.00  0.00    +0.000 A 
ATOM     22  C   UNL     1       2.445   8.588  17.624  0.00  0.00    +0.000 A 
ATOM     23  C   UNL     1       2.161   7.709  18.690  0.00  0.00    +0.000 A 
ATOM     24  C   UNL     1       1.615   8.263  19.863  0.00  0.00    +0.000 A 
BRANCH  19  26
ATOM     25  N   UNL     1       0.348  10.592  22.159  0.00  0.00    +0.000 NA
ATOM     26  C   UNL     1       0.808  10.166  21.172  0.00  0.00    +0.000 C 
ENDBRANCH  19  26
ENDBRANCH   1  23
BRANCH   7  27
ATOM     27  C   UNL     1       8.051   7.863  17.103  0.00  0.00    +0.000 C 
ATOM     28  C   UNL     1       7.288   8.919  17.873  0.00  0.00    +0.000 C 
ATOM     29  C   UNL     1       8.347   8.135  18.566  0.00  0.00    +0.000 C 
ENDBRANCH   7  27
TORSDOF 3
ENDMDL
MODEL 6
REMARK VINA RESULT:      -7.1      8.107     11.870
REMARK  Name = 
REMARK  3 active torsions:
REMARK  status: ('A' for Active; 'I' for Inactive)
REMARK    1  A    between atoms: C_2  and  C_3
REMARK    2  A    between atoms: C_7  and  C_8
REMARK    3  A    between atoms: C_14  and  C_15
REMARK                            x       y       z     vdW  Elec       q    Type
REMARK                         _______ _______ _______ _____ _____    ______ ____
ROOT
ATOM      1  C   UNL     1      -4.745  12.252  18.206  0.00  0.00    +0.000 A 
ATOM      2  N   UNL     1      -4.617  12.318  19.536  0.00  0.00    +0.000 NA
ATOM      3  C   UNL     1      -5.337  13.251  20.194  0.00  0.00    +0.000 A 
ATOM      4  N   UNL     1      -5.237  13.308  21.620  0.00  0.00    +0.000 N 
ATOM      5  C   UNL     1      -4.230  12.763  22.357  0.00  0.00    +0.000 A 
ATOM      6  C   UNL     1      -2.863  12.842  21.977  0.00  0.00    +0.000 A 
ATOM      7  C   UNL     1      -2.204  12.002  22.837  0.00  0.00    +0.000 A 
ATOM      8  N   UNL     1      -3.130  11.634  23.768  0.00  0.00    +0.000 N 
ATOM      9  N   UNL     1      -4.370  12.117  23.524  0.00  0.00    +0.000 NA
ATOM     10  C   UNL     1      -6.177  14.163  19.503  0.00  0.00    +0.000 A 
ATOM     11  C   UNL     1      -6.888  15.267  20.052  0.00  0.00    +0.000 A 
ATOM     12  C   UNL     1      -7.767  16.031  19.279  0.00  0.00    +0.000 A 
ATOM     13  C   UNL     1      -7.906  15.749  17.925  0.00  0.00    +0.000 A 
ATOM     14  C   UNL     1      -7.132  14.735  17.361  0.00  0.00    +0.000 A 
ATOM     15  C   UNL     1      -6.273  13.947  18.121  0.00  0.00    +0.000 A 
ATOM     16  N   UNL     1      -5.569  13.018  17.482  0.00  0.00    +0.000 NA
ATOM     17  H   UNL     1      -6.159  13.236  22.038  0.00  0.00    +0.000 HD
ATOM     18  H   UNL     1      -2.996  11.000  24.548  0.00  0.00    +0.000 HD
ENDROOT
BRANCH   1  23
ATOM     19  C   UNL     1      -3.276  10.168  15.394  0.00  0.00    +0.000 A 
ATOM     20  C   UNL     1      -2.282   9.454  16.073  0.00  0.00    +0.000 A 
ATOM     21  C   UNL     1      -2.085   9.658  17.436  0.00  0.00    +0.000 A 
ATOM     22  C   UNL     1      -2.879  10.575  18.123  0.00  0.00    +0.000 A 
ATOM     23  C   UNL     1      -3.892  11.306  17.469  0.00  0.00    +0.000 A 
ATOM     24  C   UNL     1      -4.072  11.079  16.092  0.00  0.00    +0.000 A 
BRANCH  19  26
ATOM     25  N   UNL     1      -3.662   9.786  12.857  0.00  0.00    +0.000 NA
ATOM     26  C   UNL     1      -3.482   9.955  14.000  0.00  0.00    +0.000 C 
ENDBRANCH  19  26
ENDBRANCH   1  23
BRANCH   7  27
ATOM     27  C   UNL     1      -0.773  11.525  22.708  0.00  0.00    +0.000 C 
ATOM     28  C   UNL     1      -0.461  10.057  22.906  0.00  0.00    +0.000 C 
ATOM     29  C   UNL     1      -0.443  10.628  21.531  0.00  0.00    +0.000 C 
ENDBRANCH   7  27
TORSDOF 3
ENDMDL
MODEL 7
REMARK VINA RESULT:      -6.9      6.719     11.671
REMARK  Name = 
REMARK  3 active torsions:
REMARK  status: ('A' for Active; 'I' for Inactive)
REMARK    1  A    between atoms: C_2  and  C_3
REMARK    2  A    between atoms: C_7  and  C_8
REMARK    3  A    between atoms: C_14  and  C_15
REMARK                            x       y       z     vdW  Elec       q    Type
REMARK                         _______ _______ _______ _____ _____    ______ ____
ROOT
ATOM      1  C   UNL     1      -5.018  13.389  21.637  0.00  0.00    +0.000 A 
ATOM      2  N   UNL     1      -3.911  12.750  22.033  0.00  0.00    +0.000 NA
ATOM      3  C   UNL     1      -3.217  13.273  23.065  0.00  0.00    +0.000 A 
ATOM      4  N   UNL     1      -2.051  12.580  23.522  0.00  0.00    +0.000 N 
ATOM      5  C   UNL     1      -1.364  11.647  22.807  0.00  0.00    +0.000 A 
ATOM      6  C   UNL     1      -1.081  11.788  21.422  0.00  0.00    +0.000 A 
ATOM      7  C   UNL     1      -0.584  10.572  21.034  0.00  0.00    +0.000 A 
ATOM      8  N   UNL     1      -0.415   9.861  22.186  0.00  0.00    +0.000 N 
ATOM      9  N   UNL     1      -0.847  10.509  23.293  0.00  0.00    +0.000 NA
ATOM     10  C   UNL     1      -3.618  14.480  23.693  0.00  0.00    +0.000 A 
ATOM     11  C   UNL     1      -2.919  15.204  24.700  0.00  0.00    +0.000 A 
ATOM     12  C   UNL     1      -3.473  16.331  25.313  0.00  0.00    +0.000 A 
ATOM     13  C   UNL     1      -4.712  16.797  24.889  0.00  0.00    +0.000 A 
ATOM     14  C   UNL     1      -5.353  16.153  23.832  0.00  0.00    +0.000 A 
ATOM     15  C   UNL     1      -4.829  15.015  23.229  0.00  0.00    +0.000 A 
ATOM     16  N   UNL     1      -5.512  14.487  22.219  0.00  0.00    +0.000 NA
ATOM     17  H   UNL     1      -2.127  12.386  24.515  0.00  0.00    +0.000 HD
ATOM     18  H   UNL     1      -0.082   8.908  22.274  0.00  0.00    +0.000 HD
ENDROOT
BRANCH   1  23
ATOM     19  C   UNL     1      -6.593  13.216  18.187  0.00  0.00    +0.000 A 
ATOM     20  C   UNL     1      -7.131  11.924  18.196  0.00  0.00    +0.000 A 
ATOM     21  C   UNL     1      -6.972  11.111  19.315  0.00  0.00    +0.000 A 
ATOM     22  C   UNL     1      -6.276  11.585  20.426  0.00  0.00    +0.000 A 
ATOM     23  C   UNL     1      -5.728  12.884  20.450  0.00  0.00    +0.000 A 
ATOM     24  C   UNL     1      -5.905  13.686  19.307  0.00  0.00    +0.000 A 
BRANCH  19  26
ATOM     25  N   UNL     1      -6.902  14.727  16.100  0.00  0.00    +0.000 NA
ATOM     26  C   UNL     1      -6.761  14.051  17.044  0.00  0.00    +0.000 C 
ENDBRANCH  19  26
ENDBRANCH   1  23
BRANCH   7  27
ATOM     27  C   UNL     1      -0.362  10.104  19.611  0.00  0.00    +0.000 C 
ATOM     28  C   UNL     1      -0.041  11.122  18.538  0.00  0.00    +0.000 C 
ATOM     29  C   UNL     1       1.041  10.234  19.048  0.00  0.00    +0.000 C 
ENDBRANCH   7  27
TORSDOF 3
ENDMDL
MODEL 8
REMARK VINA RESULT:      -6.8      5.417     10.705
REMARK  Name = 
REMARK  3 active torsions:
REMARK  status: ('A' for Active; 'I' for Inactive)
REMARK    1  A    between atoms: C_2  and  C_3
REMARK    2  A    between atoms: C_7  and  C_8
REMARK    3  A    between atoms: C_14  and  C_15
REMARK                            x       y       z     vdW  Elec       q    Type
REMARK                         _______ _______ _______ _____ _____    ______ ____
ROOT
ATOM      1  C   UNL     1      -1.096  13.117  20.349  0.00  0.00    +0.000 A 
ATOM      2  N   UNL     1      -2.274  12.924  19.744  0.00  0.00    +0.000 NA
ATOM      3  C   UNL     1      -3.394  13.070  20.484  0.00  0.00    +0.000 A 
ATOM      4  N   UNL     1      -4.661  12.902  19.841  0.00  0.00    +0.000 N 
ATOM      5  C   UNL     1      -4.859  12.264  18.655  0.00  0.00    +0.000 A 
ATOM      6  C   UNL     1      -4.208  11.048  18.313  0.00  0.00    +0.000 A 
ATOM      7  C   UNL     1      -4.493  10.853  16.986  0.00  0.00    +0.000 A 
ATOM      8  N   UNL     1      -5.415  11.805  16.666  0.00  0.00    +0.000 N 
ATOM      9  N   UNL     1      -5.690  12.659  17.679  0.00  0.00    +0.000 NA
ATOM     10  C   UNL     1      -3.333  13.382  21.867  0.00  0.00    +0.000 A 
ATOM     11  C   UNL     1      -4.418  13.442  22.787  0.00  0.00    +0.000 A 
ATOM     12  C   UNL     1      -4.239  13.863  24.107  0.00  0.00    +0.000 A 
ATOM     13  C   UNL     1      -2.960  14.172  24.556  0.00  0.00    +0.000 A 
ATOM     14  C   UNL     1      -1.880  14.014  23.688  0.00  0.00    +0.000 A 
ATOM     15  C   UNL     1      -2.044  13.623  22.363  0.00  0.00    +0.000 A 
ATOM     16  N   UNL     1      -0.947  13.487  21.625  0.00  0.00    +0.000 NA
ATOM     17  H   UNL     1      -5.237  13.725  19.985  0.00  0.00    +0.000 HD
ATOM     18  H   UNL     1      -5.836  11.969  15.759  0.00  0.00    +0.000 HD
ENDROOT
BRANCH   1  23
ATOM     19  C   UNL     1       1.627  11.326  18.401  0.00  0.00    +0.000 A 
ATOM     20  C   UNL     1       2.515  12.377  18.142  0.00  0.00    +0.000 A 
ATOM     21  C   UNL     1       2.222  13.662  18.591  0.00  0.00    +0.000 A 
ATOM     22  C   UNL     1       1.044  13.901  19.297  0.00  0.00    +0.000 A 
ATOM     23  C   UNL     1       0.133  12.863  19.578  0.00  0.00    +0.000 A 
ATOM     24  C   UNL     1       0.453  11.573  19.117  0.00  0.00    +0.000 A 
BRANCH  19  26
ATOM     25  N   UNL     1       2.166   8.929  17.569  0.00  0.00    +0.000 NA
ATOM     26  C   UNL     1       1.928  10.009  17.948  0.00  0.00    +0.000 C 
ENDBRANCH  19  26
ENDBRANCH   1  23
BRANCH   7  27
ATOM     27  C   UNL     1      -3.839   9.843  16.066  0.00  0.00    +0.000 C 
ATOM     28  C   UNL     1      -3.375  10.283  14.694  0.00  0.00    +0.000 C 
ATOM     29  C   UNL     1      -2.366  10.033  15.761  0.00  0.00    +0.000 C 
ENDBRANCH   7  27
TORSDOF 3
ENDMDL
MODEL 9
REMARK VINA RESULT:      -6.7      5.264     10.049
REMARK  Name = 
REMARK  3 active torsions:
REMARK  status: ('A' for Active; 'I' for Inactive)
REMARK    1  A    between atoms: C_2  and  C_3
REMARK    2  A    between atoms: C_7  and  C_8
REMARK    3  A    between atoms: C_14  and  C_15
REMARK                            x       y       z     vdW  Elec       q    Type
REMARK                         _______ _______ _______ _____ _____    ______ ____
ROOT
ATOM      1  C   UNL     1      -3.656  12.771  20.754  0.00  0.00    +0.000 A 
ATOM      2  N   UNL     1      -2.588  12.045  21.102  0.00  0.00    +0.000 NA
ATOM      3  C   UNL     1      -1.906  12.415  22.206  0.00  0.00    +0.000 A 
ATOM      4  N   UNL     1      -0.783  11.626  22.609  0.00  0.00    +0.000 N 
ATOM      5  C   UNL     1      -0.110  10.754  21.809  0.00  0.00    +0.000 A 
ATOM      6  C   UNL     1       0.221  11.042  20.458  0.00  0.00    +0.000 A 
ATOM      7  C   UNL     1       0.683   9.859  19.943  0.00  0.00    +0.000 A 
ATOM      8  N   UNL     1       0.788   9.014  21.009  0.00  0.00    +0.000 N 
ATOM      9  N   UNL     1       0.348   9.547  22.172  0.00  0.00    +0.000 NA
ATOM     10  C   UNL     1      -2.280  13.558  22.960  0.00  0.00    +0.000 A 
ATOM     11  C   UNL     1      -1.585  14.131  24.062  0.00  0.00    +0.000 A 
ATOM     12  C   UNL     1      -2.113  15.202  24.787  0.00  0.00    +0.000 A 
ATOM     13  C   UNL     1      -3.320  15.766  24.388  0.00  0.00    +0.000 A 
ATOM     14  C   UNL     1      -3.952  15.275  23.246  0.00  0.00    +0.000 A 
ATOM     15  C   UNL     1      -3.454  14.193  22.529  0.00  0.00    +0.000 A 
ATOM     16  N   UNL     1      -4.126  13.814  21.446  0.00  0.00    +0.000 NA
ATOM     17  H   UNL     1      -0.897  11.322  23.571  0.00  0.00    +0.000 HD
ATOM     18  H   UNL     1       1.081   8.044  20.994  0.00  0.00    +0.000 HD
ENDROOT
BRANCH   1  23
ATOM     19  C   UNL     1      -4.321  11.506  17.236  0.00  0.00    +0.000 A 
ATOM     20  C   UNL     1      -5.670  11.841  17.075  0.00  0.00    +0.000 A 
ATOM     21  C   UNL     1      -6.361  12.466  18.110  0.00  0.00    +0.000 A 
ATOM     22  C   UNL     1      -5.708  12.757  19.307  0.00  0.00    +0.000 A 
ATOM     23  C   UNL     1      -4.348  12.437  19.498  0.00  0.00    +0.000 A 
ATOM     24  C   UNL     1      -3.672  11.808  18.435  0.00  0.00    +0.000 A 
BRANCH  19  26
ATOM     25  N   UNL     1      -3.038  10.352  15.299  0.00  0.00    +0.000 NA
ATOM     26  C   UNL     1      -3.611  10.872  16.176  0.00  0.00    +0.000 C 
ENDBRANCH  19  26
ENDBRANCH   1  23
BRANCH   7  27
ATOM     27  C   UNL     1       0.931   9.549  18.482  0.00  0.00    +0.000 C 
ATOM     28  C   UNL     1       2.201  10.046  17.825  0.00  0.00    +0.000 C 
ATOM     29  C   UNL     1       2.068   8.600  18.156  0.00  0.00    +0.000 C 
ENDBRANCH   7  27
TORSDOF 3
ENDMDL
