MODEL 1
REMARK VINA RESULT:      -8.8      0.000      0.000
REMARK  Name = 
REMARK  4 active torsions:
REMARK  status: ('A' for Active; 'I' for Inactive)
REMARK    1  A    between atoms: C_5  and  C_6
REMARK    2  A    between atoms: N_7  and  C_8
REMARK    3  A    between atoms: C_11  and  O_12
REMARK    4  A    between atoms: O_12  and  C_13
REMARK                            x       y       z     vdW  Elec       q    Type
REMARK                         _______ _______ _______ _____ _____    ______ ____
ROOT
ATOM      1  C   UNL     1       7.790   7.183  18.219  0.00  0.00    +0.000 A 
ATOM      2  C   UNL     1       7.791   5.928  18.832  0.00  0.00    +0.000 A 
ATOM      3  C   UNL     1       7.012   4.888  18.312  0.00  0.00    +0.000 A 
ATOM      4  C   UNL     1       6.222   5.083  17.171  0.00  0.00    +0.000 A 
ATOM      5  C   UNL     1       6.167   6.361  16.597  0.00  0.00    +0.000 A 
ATOM      6 CL   UNL     1       5.071   6.810  15.336  0.00  0.00    +0.000 Cl
ATOM      7  C   UNL     1       6.985   7.382  17.098  0.00  0.00    +0.000 A 
ENDROOT
BRANCH   1   9
ATOM      8  C   UNL     1       8.354   9.437  18.200  0.00  0.00    +0.000 C 
ATOM      9  N   UNL     1       8.585   8.251  18.653  0.00  0.00    +0.000 NA
BRANCH   8  14
ATOM     10 CL   UNL     1      11.827  14.070  19.701  0.00  0.00    +0.000 Cl
ATOM     11  C   UNL     1      10.819  12.742  19.279  0.00  0.00    +0.000 A 
ATOM     12  C   UNL     1      10.677  11.674  20.163  0.00  0.00    +0.000 A 
ATOM     13  C   UNL     1       9.864  10.595  19.816  0.00  0.00    +0.000 A 
ATOM     14  C   UNL     1       9.196  10.589  18.587  0.00  0.00    +0.000 A 
ATOM     15  C   UNL     1       9.341  11.658  17.702  0.00  0.00    +0.000 A 
ATOM     16  C   UNL     1      10.153  12.739  18.052  0.00  0.00    +0.000 A 
ENDBRANCH   8  14
ENDBRANCH   1   9
BRANCH   4  17
ATOM     17  O   UNL     1       5.496   3.972  16.804  0.00  0.00    +0.000 OA
BRANCH  17  18
ATOM     18  C   UNL     1       4.246   3.738  17.326  0.00  0.00    +0.000 A 
ATOM     19  C   UNL     1       3.257   4.705  17.516  0.00  0.00    +0.000 A 
ATOM     20  C   UNL     1       2.081   4.370  18.194  0.00  0.00    +0.000 A 
ATOM     21  C   UNL     1       1.868   3.056  18.612  0.00  0.00    +0.000 A 
ATOM     22 CL   UNL     1       0.453   2.659  19.504  0.00  0.00    +0.000 Cl
ATOM     23  C   UNL     1       2.803   2.065  18.321  0.00  0.00    +0.000 A 
ATOM     24  C   UNL     1       3.991   2.408  17.675  0.00  0.00    +0.000 A 
ENDBRANCH  17  18
ENDBRANCH   4  17
TORSDOF 4
ENDMDL
MODEL 2
REMARK VINA RESULT:      -8.8      0.632      1.152
REMARK  Name = 
REMARK  4 active torsions:
REMARK  status: ('A' for Active; 'I' for Inactive)
REMARK    1  A    between atoms: C_5  and  C_6
REMARK    2  A    between atoms: N_7  and  C_8
REMARK    3  A    between atoms: C_11  and  O_12
REMARK    4  A    between atoms: O_12  and  C_13
REMARK                            x       y       z     vdW  Elec       q    Type
REMARK                         _______ _______ _______ _____ _____    ______ ____
ROOT
ATOM      1  C   UNL     1       7.887   7.329  18.287  0.00  0.00    +0.000 A 
ATOM      2  C   UNL     1       7.945   6.119  18.982  0.00  0.00    +0.000 A 
ATOM      3  C   UNL     1       7.155   5.036  18.579  0.00  0.00    +0.000 A 
ATOM      4  C   UNL     1       6.298   5.143  17.476  0.00  0.00    +0.000 A 
ATOM      5  C   UNL     1       6.187   6.378  16.822  0.00  0.00    +0.000 A 
ATOM      6 CL   UNL     1       5.013   6.727  15.600  0.00  0.00    +0.000 Cl
ATOM      7  C   UNL     1       7.016   7.441  17.205  0.00  0.00    +0.000 A 
ENDROOT
BRANCH   1   9
ATOM      8  C   UNL     1       8.328   9.609  18.208  0.00  0.00    +0.000 C 
ATOM      9  N   UNL     1       8.689   8.434  18.601  0.00  0.00    +0.000 NA
BRANCH   8  14
ATOM     10 CL   UNL     1      11.662  14.445  19.343  0.00  0.00    +0.000 Cl
ATOM     11  C   UNL     1      10.710  13.052  19.005  0.00  0.00    +0.000 A 
ATOM     12  C   UNL     1       9.736  13.107  18.009  0.00  0.00    +0.000 A 
ATOM     13  C   UNL     1       8.961  11.978  17.740  0.00  0.00    +0.000 A 
ATOM     14  C   UNL     1       9.163  10.801  18.468  0.00  0.00    +0.000 A 
ATOM     15  C   UNL     1      10.137  10.749  19.466  0.00  0.00    +0.000 A 
ATOM     16  C   UNL     1      10.915  11.879  19.733  0.00  0.00    +0.000 A 
ENDBRANCH   8  14
ENDBRANCH   1   9
BRANCH   4  17
ATOM     17  O   UNL     1       5.570   4.001  17.228  0.00  0.00    +0.000 OA
BRANCH  17  18
ATOM     18  C   UNL     1       4.345   3.798  17.816  0.00  0.00    +0.000 A 
ATOM     19  C   UNL     1       3.130   4.294  17.341  0.00  0.00    +0.000 A 
ATOM     20  C   UNL     1       1.971   4.146  18.110  0.00  0.00    +0.000 A 
ATOM     21  C   UNL     1       2.019   3.438  19.311  0.00  0.00    +0.000 A 
ATOM     22 CL   UNL     1       0.610   3.313  20.288  0.00  0.00    +0.000 Cl
ATOM     23  C   UNL     1       3.207   2.843  19.730  0.00  0.00    +0.000 A 
ATOM     24  C   UNL     1       4.369   3.022  18.979  0.00  0.00    +0.000 A 
ENDBRANCH  17  18
ENDBRANCH   4  17
TORSDOF 4
ENDMDL
MODEL 3
REMARK VINA RESULT:      -8.7      0.389      1.381
REMARK  Name = 
REMARK  4 active torsions:
REMARK  status: ('A' for Active; 'I' for Inactive)
REMARK    1  A    between atoms: C_5  and  C_6
REMARK    2  A    between atoms: N_7  and  C_8
REMARK    3  A    between atoms: C_11  and  O_12
REMARK    4  A    between atoms: O_12  and  C_13
REMARK                            x       y       z     vdW  Elec       q    Type
REMARK                         _______ _______ _______ _____ _____    ______ ____
ROOT
ATOM      1  C   UNL     1       7.876   7.279  18.307  0.00  0.00    +0.000 A 
ATOM      2  C   UNL     1       7.931   6.029  18.926  0.00  0.00    +0.000 A 
ATOM      3  C   UNL     1       7.151   4.969  18.446  0.00  0.00    +0.000 A 
ATOM      4  C   UNL     1       6.309   5.141  17.340  0.00  0.00    +0.000 A 
ATOM      5  C   UNL     1       6.201   6.414  16.762  0.00  0.00    +0.000 A 
ATOM      6 CL   UNL     1       5.042   6.832  15.549  0.00  0.00    +0.000 Cl
ATOM      7  C   UNL     1       7.019   7.455  17.221  0.00  0.00    +0.000 A 
ENDROOT
BRANCH   1   9
ATOM      8  C   UNL     1       8.391   9.544  18.251  0.00  0.00    +0.000 C 
ATOM      9  N   UNL     1       8.668   8.366  18.699  0.00  0.00    +0.000 NA
BRANCH   8  14
ATOM     10 CL   UNL     1      11.705  14.309  19.704  0.00  0.00    +0.000 Cl
ATOM     11  C   UNL     1      10.761  12.935  19.277  0.00  0.00    +0.000 A 
ATOM     12  C   UNL     1      10.024  12.945  18.093  0.00  0.00    +0.000 A 
ATOM     13  C   UNL     1       9.254  11.833  17.751  0.00  0.00    +0.000 A 
ATOM     14  C   UNL     1       9.225  10.716  18.593  0.00  0.00    +0.000 A 
ATOM     15  C   UNL     1       9.962  10.709  19.778  0.00  0.00    +0.000 A 
ATOM     16  C   UNL     1      10.735  11.822  20.119  0.00  0.00    +0.000 A 
ENDBRANCH   8  14
ENDBRANCH   1   9
BRANCH   4  17
ATOM     17  O   UNL     1       5.590   4.013  17.012  0.00  0.00    +0.000 OA
BRANCH  17  18
ATOM     18  C   UNL     1       4.427   3.696  17.672  0.00  0.00    +0.000 A 
ATOM     19  C   UNL     1       4.317   2.771  18.713  0.00  0.00    +0.000 A 
ATOM     20  C   UNL     1       3.054   2.424  19.202  0.00  0.00    +0.000 A 
ATOM     21  C   UNL     1       1.916   3.058  18.701  0.00  0.00    +0.000 A 
ATOM     22 CL   UNL     1       0.359   2.584  19.255  0.00  0.00    +0.000 Cl
ATOM     23  C   UNL     1       2.033   4.063  17.744  0.00  0.00    +0.000 A 
ATOM     24  C   UNL     1       3.291   4.383  17.233  0.00  0.00    +0.000 A 
ENDBRANCH  17  18
ENDBRANCH   4  17
TORSDOF 4
ENDMDL
MODEL 4
REMARK VINA RESULT:      -8.5      0.973      1.061
REMARK  Name = 
REMARK  4 active torsions:
REMARK  status: ('A' for Active; 'I' for Inactive)
REMARK    1  A    between atoms: C_5  and  C_6
REMARK    2  A    between atoms: N_7  and  C_8
REMARK    3  A    between atoms: C_11  and  O_12
REMARK    4  A    between atoms: O_12  and  C_13
REMARK                            x       y       z     vdW  Elec       q    Type
REMARK                         _______ _______ _______ _____ _____    ______ ____
ROOT
ATOM      1  C   UNL     1       7.914   8.037  18.023  0.00  0.00    +0.000 A 
ATOM      2  C   UNL     1       8.246   6.991  18.886  0.00  0.00    +0.000 A 
ATOM      3  C   UNL     1       7.623   5.744  18.756  0.00  0.00    +0.000 A 
ATOM      4  C   UNL     1       6.662   5.522  17.761  0.00  0.00    +0.000 A 
ATOM      5  C   UNL     1       6.277   6.592  16.941  0.00  0.00    +0.000 A 
ATOM      6 CL   UNL     1       4.951   6.534  15.831  0.00  0.00    +0.000 Cl
ATOM      7  C   UNL     1       6.939   7.821  17.049  0.00  0.00    +0.000 A 
ENDROOT
BRANCH   1   9
ATOM      8  C   UNL     1       9.205   9.635  19.110  0.00  0.00    +0.000 C 
ATOM      9  N   UNL     1       8.536   9.292  18.061  0.00  0.00    +0.000 NA
BRANCH   8  14
ATOM     10 CL   UNL     1      11.847  14.985  19.540  0.00  0.00    +0.000 Cl
ATOM     11  C   UNL     1      11.075  13.452  19.419  0.00  0.00    +0.000 A 
ATOM     12  C   UNL     1      10.649  12.801  20.575  0.00  0.00    +0.000 A 
ATOM     13  C   UNL     1      10.028  11.555  20.476  0.00  0.00    +0.000 A 
ATOM     14  C   UNL     1       9.837  10.966  19.221  0.00  0.00    +0.000 A 
ATOM     15  C   UNL     1      10.267  11.619  18.066  0.00  0.00    +0.000 A 
ATOM     16  C   UNL     1      10.885  12.868  18.165  0.00  0.00    +0.000 A 
ENDBRANCH   8  14
ENDBRANCH   1   9
BRANCH   4  17
ATOM     17  O   UNL     1       6.124   4.254  17.785  0.00  0.00    +0.000 OA
BRANCH  17  18
ATOM     18  C   UNL     1       4.820   4.043  18.164  0.00  0.00    +0.000 A 
ATOM     19  C   UNL     1       4.231   4.529  19.333  0.00  0.00    +0.000 A 
ATOM     20  C   UNL     1       2.940   4.120  19.681  0.00  0.00    +0.000 A 
ATOM     21  C   UNL     1       2.218   3.290  18.823  0.00  0.00    +0.000 A 
ATOM     22 CL   UNL     1       0.657   2.734  19.282  0.00  0.00    +0.000 Cl
ATOM     23  C   UNL     1       2.761   2.897  17.602  0.00  0.00    +0.000 A 
ATOM     24  C   UNL     1       4.062   3.277  17.273  0.00  0.00    +0.000 A 
ENDBRANCH  17  18
ENDBRANCH   4  17
TORSDOF 4
ENDMDL
MODEL 5
REMARK VINA RESULT:      -8.2      1.091      1.361
REMARK  Name = 
REMARK  4 active torsions:
REMARK  status: ('A' for Active; 'I' for Inactive)
REMARK    1  A    between atoms: C_5  and  C_6
REMARK    2  A    between atoms: N_7  and  C_8
REMARK    3  A    between atoms: C_11  and  O_12
REMARK    4  A    between atoms: O_12  and  C_13
REMARK                            x       y       z     vdW  Elec       q    Type
REMARK                         _______ _______ _______ _____ _____    ______ ____
ROOT
ATOM      1  C   UNL     1       7.870   7.927  17.961  0.00  0.00    +0.000 A 
ATOM      2  C   UNL     1       8.266   6.973  18.901  0.00  0.00    +0.000 A 
ATOM      3  C   UNL     1       7.700   5.693  18.889  0.00  0.00    +0.000 A 
ATOM      4  C   UNL     1       6.732   5.345  17.938  0.00  0.00    +0.000 A 
ATOM      5  C   UNL     1       6.283   6.323  17.040  0.00  0.00    +0.000 A 
ATOM      6 CL   UNL     1       4.942   6.112  15.968  0.00  0.00    +0.000 Cl
ATOM      7  C   UNL     1       6.888   7.586  17.031  0.00  0.00    +0.000 A 
ENDROOT
BRANCH   1   9
ATOM      8  C   UNL     1       9.013   9.709  18.918  0.00  0.00    +0.000 C 
ATOM      9  N   UNL     1       8.433   9.207  17.881  0.00  0.00    +0.000 NA
BRANCH   8  14
ATOM     10 CL   UNL     1      11.347  15.215  18.773  0.00  0.00    +0.000 Cl
ATOM     11  C   UNL     1      10.669  13.635  18.826  0.00  0.00    +0.000 A 
ATOM     12  C   UNL     1      11.117  12.723  19.781  0.00  0.00    +0.000 A 
ATOM     13  C   UNL     1      10.570  11.440  19.819  0.00  0.00    +0.000 A 
ATOM     14  C   UNL     1       9.579  11.075  18.902  0.00  0.00    +0.000 A 
ATOM     15  C   UNL     1       9.134  11.988  17.946  0.00  0.00    +0.000 A 
ATOM     16  C   UNL     1       9.679  13.274  17.911  0.00  0.00    +0.000 A 
ENDBRANCH   8  14
ENDBRANCH   1   9
BRANCH   4  17
ATOM     17  O   UNL     1       6.255   4.061  18.079  0.00  0.00    +0.000 OA
BRANCH  17  18
ATOM     18  C   UNL     1       4.954   3.823  18.453  0.00  0.00    +0.000 A 
ATOM     19  C   UNL     1       4.055   3.002  17.769  0.00  0.00    +0.000 A 
ATOM     20  C   UNL     1       2.715   2.960  18.165  0.00  0.00    +0.000 A 
ATOM     21  C   UNL     1       2.298   3.677  19.286  0.00  0.00    +0.000 A 
ATOM     22 CL   UNL     1       0.638   3.678  19.734  0.00  0.00    +0.000 Cl
ATOM     23  C   UNL     1       3.217   4.406  20.038  0.00  0.00    +0.000 A 
ATOM     24  C   UNL     1       4.546   4.475  19.621  0.00  0.00    +0.000 A 
ENDBRANCH  17  18
ENDBRANCH   4  17
TORSDOF 4
ENDMDL
MODEL 6
REMARK VINA RESULT:      -8.2      1.258      1.430
REMARK  Name = 
REMARK  4 active torsions:
REMARK  status: ('A' for Active; 'I' for Inactive)
REMARK    1  A    between atoms: C_5  and  C_6
REMARK    2  A    between atoms: N_7  and  C_8
REMARK    3  A    between atoms: C_11  and  O_12
REMARK    4  A    between atoms: O_12  and  C_13
REMARK                            x       y       z     vdW  Elec       q    Type
REMARK                         _______ _______ _______ _____ _____    ______ ____
ROOT
ATOM      1  C   UNL     1       7.820   7.815  17.908  0.00  0.00    +0.000 A 
ATOM      2  C   UNL     1       8.243   6.994  18.956  0.00  0.00    +0.000 A 
ATOM      3  C   UNL     1       7.624   5.759  19.178  0.00  0.00    +0.000 A 
ATOM      4  C   UNL     1       6.575   5.323  18.356  0.00  0.00    +0.000 A 
ATOM      5  C   UNL     1       6.105   6.177  17.349  0.00  0.00    +0.000 A 
ATOM      6 CL   UNL     1       4.682   5.878  16.412  0.00  0.00    +0.000 Cl
ATOM      7  C   UNL     1       6.761   7.390  17.107  0.00  0.00    +0.000 A 
ENDROOT
BRANCH   1   9
ATOM      8  C   UNL     1       8.858   9.793  18.549  0.00  0.00    +0.000 C 
ATOM      9  N   UNL     1       8.430   9.037  17.595  0.00  0.00    +0.000 NA
BRANCH   8  14
ATOM     10 CL   UNL     1      11.281  15.130  17.350  0.00  0.00    +0.000 Cl
ATOM     11  C   UNL     1      10.587  13.596  17.709  0.00  0.00    +0.000 A 
ATOM     12  C   UNL     1      11.417  12.513  17.993  0.00  0.00    +0.000 A 
ATOM     13  C   UNL     1      10.853  11.269  18.277  0.00  0.00    +0.000 A 
ATOM     14  C   UNL     1       9.462  11.114  18.276  0.00  0.00    +0.000 A 
ATOM     15  C   UNL     1       8.634  12.199  17.989  0.00  0.00    +0.000 A 
ATOM     16  C   UNL     1       9.199  13.446  17.707  0.00  0.00    +0.000 A 
ENDBRANCH   8  14
ENDBRANCH   1   9
BRANCH   4  17
ATOM     17  O   UNL     1       6.056   4.102  18.724  0.00  0.00    +0.000 OA
BRANCH  17  18
ATOM     18  C   UNL     1       4.700   3.912  18.836  0.00  0.00    +0.000 A 
ATOM     19  C   UNL     1       3.862   4.585  19.728  0.00  0.00    +0.000 A 
ATOM     20  C   UNL     1       2.525   4.196  19.851  0.00  0.00    +0.000 A 
ATOM     21  C   UNL     1       2.014   3.190  19.032  0.00  0.00    +0.000 A 
ATOM     22 CL   UNL     1       0.388   2.666  19.230  0.00  0.00    +0.000 Cl
ATOM     23  C   UNL     1       2.819   2.596  18.062  0.00  0.00    +0.000 A 
ATOM     24  C   UNL     1       4.161   2.960  17.964  0.00  0.00    +0.000 A 
ENDBRANCH  17  18
ENDBRANCH   4  17
TORSDOF 4
ENDMDL
MODEL 7
REMARK VINA RESULT:      -8.0      1.279      1.679
REMARK  Name = 
REMARK  4 active torsions:
REMARK  status: ('A' for Active; 'I' for Inactive)
REMARK    1  A    between atoms: C_5  and  C_6
REMARK    2  A    between atoms: N_7  and  C_8
REMARK    3  A    between atoms: C_11  and  O_12
REMARK    4  A    between atoms: O_12  and  C_13
REMARK                            x       y       z     vdW  Elec       q    Type
REMARK                         _______ _______ _______ _____ _____    ______ ____
ROOT
ATOM      1  C   UNL     1       7.133   7.355  17.271  0.00  0.00    +0.000 A 
ATOM      2  C   UNL     1       7.488   6.046  16.940  0.00  0.00    +0.000 A 
ATOM      3  C   UNL     1       6.500   5.074  16.747  0.00  0.00    +0.000 A 
ATOM      4  C   UNL     1       5.142   5.395  16.878  0.00  0.00    +0.000 A 
ATOM      5  C   UNL     1       4.788   6.691  17.279  0.00  0.00    +0.000 A 
ATOM      6 CL   UNL     1       3.181   7.170  17.702  0.00  0.00    +0.000 Cl
ATOM      7  C   UNL     1       5.783   7.667  17.425  0.00  0.00    +0.000 A 
ENDROOT
BRANCH   1   9
ATOM      8  C   UNL     1       8.203   8.951  18.579  0.00  0.00    +0.000 C 
ATOM      9  N   UNL     1       8.066   8.389  17.425  0.00  0.00    +0.000 NA
BRANCH   8  14
ATOM     10 CL   UNL     1      11.906  13.572  19.429  0.00  0.00    +0.000 Cl
ATOM     11  C   UNL     1      10.851  12.235  19.180  0.00  0.00    +0.000 A 
ATOM     12  C   UNL     1      10.533  11.839  17.882  0.00  0.00    +0.000 A 
ATOM     13  C   UNL     1       9.673  10.759  17.683  0.00  0.00    +0.000 A 
ATOM     14  C   UNL     1       9.136  10.080  18.782  0.00  0.00    +0.000 A 
ATOM     15  C   UNL     1       9.455  10.479  20.080  0.00  0.00    +0.000 A 
ATOM     16  C   UNL     1      10.318  11.559  20.279  0.00  0.00    +0.000 A 
ENDBRANCH   8  14
ENDBRANCH   1   9
BRANCH   4  17
ATOM     17  O   UNL     1       4.299   4.323  16.685  0.00  0.00    +0.000 OA
BRANCH  17  18
ATOM     18  C   UNL     1       3.503   3.854  17.702  0.00  0.00    +0.000 A 
ATOM     19  C   UNL     1       2.107   3.810  17.678  0.00  0.00    +0.000 A 
ATOM     20  C   UNL     1       1.405   3.451  18.832  0.00  0.00    +0.000 A 
ATOM     21  C   UNL     1       2.100   3.065  19.979  0.00  0.00    +0.000 A 
ATOM     22 CL   UNL     1       1.238   2.688  21.417  0.00  0.00    +0.000 Cl
ATOM     23  C   UNL     1       3.492   2.997  19.968  0.00  0.00    +0.000 A 
ATOM     24  C   UNL     1       4.191   3.390  18.827  0.00  0.00    +0.000 A 
ENDBRANCH  17  18
ENDBRANCH   4  17
TORSDOF 4
ENDMDL
MODEL 8
REMARK VINA RESULT:      -8.0      1.395      1.683
REMARK  Name = 
REMARK  4 active torsions:
REMARK  status: ('A' for Active; 'I' for Inactive)
REMARK    1  A    between atoms: C_5  and  C_6
REMARK    2  A    between atoms: N_7  and  C_8
REMARK    3  A    between atoms: C_11  and  O_12
REMARK    4  A    between atoms: O_12  and  C_13
REMARK                            x       y       z     vdW  Elec       q    Type
REMARK                         _______ _______ _______ _____ _____    ______ ____
ROOT
ATOM      1  C   UNL     1       7.077   7.958  17.533  0.00  0.00    +0.000 A 
ATOM      2  C   UNL     1       5.775   7.887  17.033  0.00  0.00    +0.000 A 
ATOM      3  C   UNL     1       5.152   6.645  16.861  0.00  0.00    +0.000 A 
ATOM      4  C   UNL     1       5.818   5.457  17.189  0.00  0.00    +0.000 A 
ATOM      5  C   UNL     1       7.148   5.524  17.625  0.00  0.00    +0.000 A 
ATOM      6 CL   UNL     1       8.167   4.143  17.846  0.00  0.00    +0.000 Cl
ATOM      7  C   UNL     1       7.746   6.773  17.836  0.00  0.00    +0.000 A 
ENDROOT
BRANCH   1   9
ATOM      8  C   UNL     1       8.690   9.200  18.654  0.00  0.00    +0.000 C 
ATOM      9  N   UNL     1       7.740   9.167  17.781  0.00  0.00    +0.000 NA
BRANCH   8  14
ATOM     10 CL   UNL     1      11.591  14.259  19.990  0.00  0.00    +0.000 Cl
ATOM     11  C   UNL     1      10.744  12.810  19.609  0.00  0.00    +0.000 A 
ATOM     12  C   UNL     1      10.230  12.020  20.636  0.00  0.00    +0.000 A 
ATOM     13  C   UNL     1       9.549  10.843  20.326  0.00  0.00    +0.000 A 
ATOM     14  C   UNL     1       9.386  10.460  18.990  0.00  0.00    +0.000 A 
ATOM     15  C   UNL     1       9.904  11.251  17.964  0.00  0.00    +0.000 A 
ATOM     16  C   UNL     1      10.582  12.432  18.275  0.00  0.00    +0.000 A 
ENDBRANCH   8  14
ENDBRANCH   1   9
BRANCH   4  17
ATOM     17  O   UNL     1       5.080   4.322  16.936  0.00  0.00    +0.000 OA
BRANCH  17  18
ATOM     18  C   UNL     1       4.081   3.919  17.789  0.00  0.00    +0.000 A 
ATOM     19  C   UNL     1       2.713   3.977  17.513  0.00  0.00    +0.000 A 
ATOM     20  C   UNL     1       1.789   3.679  18.520  0.00  0.00    +0.000 A 
ATOM     21  C   UNL     1       2.236   3.252  19.771  0.00  0.00    +0.000 A 
ATOM     22 CL   UNL     1       1.103   2.950  21.028  0.00  0.00    +0.000 Cl
ATOM     23  C   UNL     1       3.598   3.083  20.011  0.00  0.00    +0.000 A 
ATOM     24  C   UNL     1       4.519   3.415  19.018  0.00  0.00    +0.000 A 
ENDBRANCH  17  18
ENDBRANCH   4  17
TORSDOF 4
ENDMDL
MODEL 9
REMARK VINA RESULT:      -7.8      5.285      7.833
REMARK  Name = 
REMARK  4 active torsions:
REMARK  status: ('A' for Active; 'I' for Inactive)
REMARK    1  A    between atoms: C_5  and  C_6
REMARK    2  A    between atoms: N_7  and  C_8
REMARK    3  A    between atoms: C_11  and  O_12
REMARK    4  A    between atoms: O_12  and  C_13
REMARK                            x       y       z     vdW  Elec       q    Type
REMARK                         _______ _______ _______ _____ _____    ______ ____
ROOT
ATOM      1  C   UNL     1       2.446   7.217  19.193  0.00  0.00    +0.000 A 
ATOM      2  C   UNL     1       3.220   7.280  18.032  0.00  0.00    +0.000 A 
ATOM      3  C   UNL     1       3.868   6.136  17.552  0.00  0.00    +0.000 A 
ATOM      4  C   UNL     1       3.751   4.911  18.222  0.00  0.00    +0.000 A 
ATOM      5  C   UNL     1       3.033   4.862  19.425  0.00  0.00    +0.000 A 
ATOM      6 CL   UNL     1       2.992   3.488  20.474  0.00  0.00    +0.000 Cl
ATOM      7  C   UNL     1       2.351   6.002  19.871  0.00  0.00    +0.000 A 
ENDROOT
BRANCH   1   9
ATOM      8  C   UNL     1       1.174   8.217  20.861  0.00  0.00    +0.000 C 
ATOM      9  N   UNL     1       1.728   8.307  19.698  0.00  0.00    +0.000 NA
BRANCH   8  14
ATOM     10 CL   UNL     1      -2.185  12.621  23.120  0.00  0.00    +0.000 Cl
ATOM     11  C   UNL     1      -1.208  11.363  22.469  0.00  0.00    +0.000 A 
ATOM     12  C   UNL     1      -0.852  11.392  21.122  0.00  0.00    +0.000 A 
ATOM     13  C   UNL     1      -0.065  10.368  20.595  0.00  0.00    +0.000 A 
ATOM     14  C   UNL     1       0.362   9.319  21.418  0.00  0.00    +0.000 A 
ATOM     15  C   UNL     1       0.003   9.292  22.765  0.00  0.00    +0.000 A 
ATOM     16  C   UNL     1      -0.783  10.319  23.293  0.00  0.00    +0.000 A 
ENDBRANCH   8  14
ENDBRANCH   1   9
BRANCH   4  17
ATOM     17  O   UNL     1       4.470   3.891  17.639  0.00  0.00    +0.000 OA
BRANCH  17  18
ATOM     18  C   UNL     1       5.391   4.147  16.651  0.00  0.00    +0.000 A 
ATOM     19  C   UNL     1       6.696   4.598  16.862  0.00  0.00    +0.000 A 
ATOM     20  C   UNL     1       7.488   4.965  15.770  0.00  0.00    +0.000 A 
ATOM     21  C   UNL     1       7.000   4.809  14.473  0.00  0.00    +0.000 A 
ATOM     22 CL   UNL     1       7.948   5.322  13.133  0.00  0.00    +0.000 Cl
ATOM     23  C   UNL     1       5.742   4.251  14.256  0.00  0.00    +0.000 A 
ATOM     24  C   UNL     1       4.940   3.918  15.347  0.00  0.00    +0.000 A 
ENDBRANCH  17  18
ENDBRANCH   4  17
TORSDOF 4
ENDMDL
