MODEL 1
REMARK VINA RESULT:      -9.6      0.000      0.000
REMARK  Name = 
REMARK  3 active torsions:
REMARK  status: ('A' for Active; 'I' for Inactive)
REMARK    1  A    between atoms: N_3  and  C_4
REMARK    2  A    between atoms: N_13  and  C_14
REMARK    3  A    between atoms: C_19  and  C_20
REMARK                            x       y       z     vdW  Elec       q    Type
REMARK                         _______ _______ _______ _____ _____    ______ ____
ROOT
ATOM      1  O   UNL     1       1.658   9.303  22.483  0.00  0.00    +0.000 OA
ATOM      2  C   UNL     1       1.266   8.671  21.506  0.00  0.00    +0.000 C 
ATOM      3  N   UNL     1       0.296   9.068  20.626  0.00  0.00    +0.000 N 
ATOM      4  N   UNL     1       1.855   7.468  21.285  0.00  0.00    +0.000 N 
ATOM      5  H   UNL     1       0.282   8.601  19.736  0.00  0.00    +0.000 HD
ATOM      6  H   UNL     1       2.508   7.254  22.032  0.00  0.00    +0.000 HD
ENDROOT
BRANCH   3   7
ATOM      7  C   UNL     1      -0.471  10.261  20.725  0.00  0.00    +0.000 A 
ATOM      8  C   UNL     1      -0.666  10.956  21.932  0.00  0.00    +0.000 A 
ATOM      9  C   UNL     1      -1.347  12.177  21.987  0.00  0.00    +0.000 A 
ATOM     10  C   UNL     1      -1.894  12.750  20.838  0.00  0.00    +0.000 A 
ATOM     11  C   UNL     1      -1.757  12.026  19.653  0.00  0.00    +0.000 A 
ATOM     12  N   UNL     1      -2.184  12.302  18.380  0.00  0.00    +0.000 N 
ATOM     13  N   UNL     1      -1.865  11.357  17.473  0.00  0.00    +0.000 NA
ATOM     14  C   UNL     1      -1.191  10.462  18.201  0.00  0.00    +0.000 A 
ATOM     15  C   UNL     1      -1.080  10.808  19.569  0.00  0.00    +0.000 A 
ATOM     16  H   UNL     1      -2.699  13.114  18.064  0.00  0.00    +0.000 HD
ENDBRANCH   3   7
BRANCH   4  17
ATOM     17  C   UNL     1       1.605   6.395  20.323  0.00  0.00    +0.000 C 
ATOM     18  C   UNL     1       1.784   5.030  20.987  0.00  0.00    +0.000 C 
ATOM     19  C   UNL     1       1.854   3.982  19.898  0.00  0.00    +0.000 C 
ATOM     20  O   UNL     1       3.065   4.133  19.159  0.00  0.00    +0.000 OA
ATOM     21  C   UNL     1       3.265   5.397  18.654  0.00  0.00    +0.000 A 
ATOM     22  C   UNL     1       4.259   5.525  17.650  0.00  0.00    +0.000 A 
ATOM     23  C   UNL     1       4.372   6.767  17.022  0.00  0.00    +0.000 A 
ATOM     24  C   UNL     1       3.592   7.861  17.404  0.00  0.00    +0.000 A 
ATOM     25  C   UNL     1       2.692   7.739  18.460  0.00  0.00    +0.000 A 
ATOM     26  C   UNL     1       2.536   6.512  19.121  0.00  0.00    +0.000 A 
BRANCH  22  27
ATOM     27  C   UNL     1       5.187   4.349  17.325  0.00  0.00    +0.000 C 
ATOM     28  C   UNL     1       4.912   3.702  15.963  0.00  0.00    +0.000 C 
ATOM     29  C   UNL     1       5.457   4.513  14.795  0.00  0.00    +0.000 C 
ATOM     30  C   UNL     1       6.935   4.868  14.932  0.00  0.00    +0.000 C 
ATOM     31  C   UNL     1       7.392   5.310  16.319  0.00  0.00    +0.000 C 
ATOM     32  C   UNL     1       6.702   4.605  17.485  0.00  0.00    +0.000 C 
ENDBRANCH  22  27
ENDBRANCH   4  17
TORSDOF 3
ENDMDL
MODEL 2
REMARK VINA RESULT:      -8.9      1.448      1.503
REMARK  Name = 
REMARK  3 active torsions:
REMARK  status: ('A' for Active; 'I' for Inactive)
REMARK    1  A    between atoms: N_3  and  C_4
REMARK    2  A    between atoms: N_13  and  C_14
REMARK    3  A    between atoms: C_19  and  C_20
REMARK                            x       y       z     vdW  Elec       q    Type
REMARK                         _______ _______ _______ _____ _____    ______ ____
ROOT
ATOM      1  O   UNL     1       1.614   9.613  22.168  0.00  0.00    +0.000 OA
ATOM      2  C   UNL     1       1.343   8.944  21.175  0.00  0.00    +0.000 C 
ATOM      3  N   UNL     1       0.655   9.379  20.075  0.00  0.00    +0.000 N 
ATOM      4  N   UNL     1       1.770   7.655  21.176  0.00  0.00    +0.000 N 
ATOM      5  H   UNL     1       0.756   8.830  19.238  0.00  0.00    +0.000 HD
ATOM      6  H   UNL     1       2.208   7.431  22.062  0.00  0.00    +0.000 HD
ENDROOT
BRANCH   3   7
ATOM      7  C   UNL     1       0.080  10.669  19.916  0.00  0.00    +0.000 A 
ATOM      8  C   UNL     1      -1.181  11.021  20.429  0.00  0.00    +0.000 A 
ATOM      9  C   UNL     1      -1.684  12.324  20.342  0.00  0.00    +0.000 A 
ATOM     10  C   UNL     1      -0.961  13.335  19.707  0.00  0.00    +0.000 A 
ATOM     11  C   UNL     1       0.260  12.968  19.140  0.00  0.00    +0.000 A 
ATOM     12  N   UNL     1       1.185  13.708  18.450  0.00  0.00    +0.000 N 
ATOM     13  N   UNL     1       2.264  13.006  18.047  0.00  0.00    +0.000 NA
ATOM     14  C   UNL     1       2.016  11.781  18.522  0.00  0.00    +0.000 A 
ATOM     15  C   UNL     1       0.787  11.678  19.216  0.00  0.00    +0.000 A 
ATOM     16  H   UNL     1       1.141  14.692  18.219  0.00  0.00    +0.000 HD
ENDBRANCH   3   7
BRANCH   4  17
ATOM     17  C   UNL     1       1.564   6.535  20.259  0.00  0.00    +0.000 C 
ATOM     18  C   UNL     1       1.726   5.205  20.997  0.00  0.00    +0.000 C 
ATOM     19  C   UNL     1       1.844   4.105  19.964  0.00  0.00    +0.000 C 
ATOM     20  O   UNL     1       3.081   4.230  19.265  0.00  0.00    +0.000 OA
ATOM     21  C   UNL     1       3.292   5.469  18.706  0.00  0.00    +0.000 A 
ATOM     22  C   UNL     1       4.323   5.556  17.734  0.00  0.00    +0.000 A 
ATOM     23  C   UNL     1       4.451   6.766  17.050  0.00  0.00    +0.000 A 
ATOM     24  C   UNL     1       3.650   7.872  17.348  0.00  0.00    +0.000 A 
ATOM     25  C   UNL     1       2.711   7.794  18.374  0.00  0.00    +0.000 A 
ATOM     26  C   UNL     1       2.538   6.599  19.088  0.00  0.00    +0.000 A 
BRANCH  22  27
ATOM     27  C   UNL     1       5.270   4.373  17.503  0.00  0.00    +0.000 C 
ATOM     28  C   UNL     1       4.966   3.577  16.230  0.00  0.00    +0.000 C 
ATOM     29  C   UNL     1       5.449   4.269  14.962  0.00  0.00    +0.000 C 
ATOM     30  C   UNL     1       6.920   4.670  15.005  0.00  0.00    +0.000 C 
ATOM     31  C   UNL     1       7.413   5.270  16.319  0.00  0.00    +0.000 C 
ATOM     32  C   UNL     1       6.782   4.679  17.579  0.00  0.00    +0.000 C 
ENDBRANCH  22  27
ENDBRANCH   4  17
TORSDOF 3
ENDMDL
MODEL 3
REMARK VINA RESULT:      -8.6      1.255      1.854
REMARK  Name = 
REMARK  3 active torsions:
REMARK  status: ('A' for Active; 'I' for Inactive)
REMARK    1  A    between atoms: N_3  and  C_4
REMARK    2  A    between atoms: N_13  and  C_14
REMARK    3  A    between atoms: C_19  and  C_20
REMARK                            x       y       z     vdW  Elec       q    Type
REMARK                         _______ _______ _______ _____ _____    ______ ____
ROOT
ATOM      1  O   UNL     1       1.764   9.673  22.313  0.00  0.00    +0.000 OA
ATOM      2  C   UNL     1       1.374   9.018  21.350  0.00  0.00    +0.000 C 
ATOM      3  N   UNL     1       0.520   9.452  20.374  0.00  0.00    +0.000 N 
ATOM      4  N   UNL     1       1.840   7.746  21.253  0.00  0.00    +0.000 N 
ATOM      5  H   UNL     1       0.517   8.927  19.516  0.00  0.00    +0.000 HD
ATOM      6  H   UNL     1       2.409   7.518  22.061  0.00  0.00    +0.000 HD
ENDROOT
BRANCH   3   7
ATOM      7  C   UNL     1      -0.115  10.724  20.336  0.00  0.00    +0.000 A 
ATOM      8  C   UNL     1      -0.035  11.595  19.235  0.00  0.00    +0.000 A 
ATOM      9  C   UNL     1      -0.745  12.799  19.184  0.00  0.00    +0.000 A 
ATOM     10  C   UNL     1      -1.551  13.207  20.248  0.00  0.00    +0.000 A 
ATOM     11  C   UNL     1      -1.576  12.373  21.367  0.00  0.00    +0.000 A 
ATOM     12  N   UNL     1      -2.244  12.493  22.558  0.00  0.00    +0.000 N 
ATOM     13  N   UNL     1      -2.026  11.477  23.418  0.00  0.00    +0.000 NA
ATOM     14  C   UNL     1      -1.207  10.676  22.730  0.00  0.00    +0.000 A 
ATOM     15  C   UNL     1      -0.880  11.165  21.443  0.00  0.00    +0.000 A 
ATOM     16  H   UNL     1      -2.860  13.241  22.848  0.00  0.00    +0.000 HD
ENDBRANCH   3   7
BRANCH   4  17
ATOM     17  C   UNL     1       1.541   6.640  20.344  0.00  0.00    +0.000 C 
ATOM     18  C   UNL     1       1.669   5.302  21.072  0.00  0.00    +0.000 C 
ATOM     19  C   UNL     1       1.690   4.201  20.034  0.00  0.00    +0.000 C 
ATOM     20  O   UNL     1       2.901   4.268  19.283  0.00  0.00    +0.000 OA
ATOM     21  C   UNL     1       3.148   5.498  18.718  0.00  0.00    +0.000 A 
ATOM     22  C   UNL     1       4.140   5.538  17.703  0.00  0.00    +0.000 A 
ATOM     23  C   UNL     1       4.298   6.743  17.016  0.00  0.00    +0.000 A 
ATOM     24  C   UNL     1       3.565   7.885  17.349  0.00  0.00    +0.000 A 
ATOM     25  C   UNL     1       2.667   7.849  18.414  0.00  0.00    +0.000 A 
ATOM     26  C   UNL     1       2.467   6.662  19.133  0.00  0.00    +0.000 A 
BRANCH  22  27
ATOM     27  C   UNL     1       5.018   4.312  17.430  0.00  0.00    +0.000 C 
ATOM     28  C   UNL     1       4.848   3.730  16.023  0.00  0.00    +0.000 C 
ATOM     29  C   UNL     1       5.566   4.539  14.951  0.00  0.00    +0.000 C 
ATOM     30  C   UNL     1       7.041   4.785  15.255  0.00  0.00    +0.000 C 
ATOM     31  C   UNL     1       7.376   5.149  16.698  0.00  0.00    +0.000 C 
ATOM     32  C   UNL     1       6.520   4.456  17.757  0.00  0.00    +0.000 C 
ENDBRANCH  22  27
ENDBRANCH   4  17
TORSDOF 3
ENDMDL
MODEL 4
REMARK VINA RESULT:      -8.4      1.008      1.480
REMARK  Name = 
REMARK  3 active torsions:
REMARK  status: ('A' for Active; 'I' for Inactive)
REMARK    1  A    between atoms: N_3  and  C_4
REMARK    2  A    between atoms: N_13  and  C_14
REMARK    3  A    between atoms: C_19  and  C_20
REMARK                            x       y       z     vdW  Elec       q    Type
REMARK                         _______ _______ _______ _____ _____    ______ ____
ROOT
ATOM      1  O   UNL     1       0.983   9.553  22.513  0.00  0.00    +0.000 OA
ATOM      2  C   UNL     1       0.826   8.895  21.489  0.00  0.00    +0.000 C 
ATOM      3  N   UNL     1       0.074   9.261  20.406  0.00  0.00    +0.000 N 
ATOM      4  N   UNL     1       1.461   7.696  21.433  0.00  0.00    +0.000 N 
ATOM      5  H   UNL     1       0.263   8.775  19.545  0.00  0.00    +0.000 HD
ATOM      6  H   UNL     1       1.931   7.507  22.311  0.00  0.00    +0.000 HD
ENDROOT
BRANCH   3   7
ATOM      7  C   UNL     1      -0.708  10.444  20.303  0.00  0.00    +0.000 A 
ATOM      8  C   UNL     1      -0.879  11.351  21.363  0.00  0.00    +0.000 A 
ATOM      9  C   UNL     1      -1.575  12.555  21.210  0.00  0.00    +0.000 A 
ATOM     10  C   UNL     1      -2.162  12.898  19.991  0.00  0.00    +0.000 A 
ATOM     11  C   UNL     1      -2.048  11.966  18.959  0.00  0.00    +0.000 A 
ATOM     12  N   UNL     1      -2.515  11.994  17.670  0.00  0.00    +0.000 N 
ATOM     13  N   UNL     1      -2.209  10.898  16.947  0.00  0.00    +0.000 NA
ATOM     14  C   UNL     1      -1.501  10.162  17.809  0.00  0.00    +0.000 A 
ATOM     15  C   UNL     1      -1.357  10.759  19.084  0.00  0.00    +0.000 A 
ATOM     16  H   UNL     1      -3.050  12.728  17.224  0.00  0.00    +0.000 HD
ENDBRANCH   3   7
BRANCH   4  17
ATOM     17  C   UNL     1       1.442   6.601  20.464  0.00  0.00    +0.000 C 
ATOM     18  C   UNL     1       1.913   5.302  21.119  0.00  0.00    +0.000 C 
ATOM     19  C   UNL     1       2.201   4.299  20.023  0.00  0.00    +0.000 C 
ATOM     20  O   UNL     1       3.348   4.712  19.281  0.00  0.00    +0.000 OA
ATOM     21  C   UNL     1       3.270   5.992  18.784  0.00  0.00    +0.000 A 
ATOM     22  C   UNL     1       4.208   6.336  17.776  0.00  0.00    +0.000 A 
ATOM     23  C   UNL     1       4.049   7.577  17.156  0.00  0.00    +0.000 A 
ATOM     24  C   UNL     1       3.054   8.476  17.548  0.00  0.00    +0.000 A 
ATOM     25  C   UNL     1       2.206   8.157  18.607  0.00  0.00    +0.000 A 
ATOM     26  C   UNL     1       2.320   6.921  19.260  0.00  0.00    +0.000 A 
BRANCH  22  27
ATOM     27  C   UNL     1       5.366   5.389  17.441  0.00  0.00    +0.000 C 
ATOM     28  C   UNL     1       6.451   6.025  16.566  0.00  0.00    +0.000 C 
ATOM     29  C   UNL     1       7.377   6.952  17.341  0.00  0.00    +0.000 C 
ATOM     30  C   UNL     1       7.994   6.308  18.579  0.00  0.00    +0.000 C 
ATOM     31  C   UNL     1       7.060   5.444  19.421  0.00  0.00    +0.000 C 
ATOM     32  C   UNL     1       6.019   4.653  18.631  0.00  0.00    +0.000 C 
ENDBRANCH  22  27
ENDBRANCH   4  17
TORSDOF 3
ENDMDL
MODEL 5
REMARK VINA RESULT:      -8.4      2.734      9.369
REMARK  Name = 
REMARK  3 active torsions:
REMARK  status: ('A' for Active; 'I' for Inactive)
REMARK    1  A    between atoms: N_3  and  C_4
REMARK    2  A    between atoms: N_13  and  C_14
REMARK    3  A    between atoms: C_19  and  C_20
REMARK                            x       y       z     vdW  Elec       q    Type
REMARK                         _______ _______ _______ _____ _____    ______ ____
ROOT
ATOM      1  O   UNL     1       1.943   7.235  18.176  0.00  0.00    +0.000 OA
ATOM      2  C   UNL     1       1.905   7.478  19.378  0.00  0.00    +0.000 C 
ATOM      3  N   UNL     1       2.129   6.583  20.388  0.00  0.00    +0.000 N 
ATOM      4  N   UNL     1       1.612   8.756  19.730  0.00  0.00    +0.000 N 
ATOM      5  H   UNL     1       2.346   6.971  21.290  0.00  0.00    +0.000 HD
ATOM      6  H   UNL     1       1.405   9.309  18.905  0.00  0.00    +0.000 HD
ENDROOT
BRANCH   3   7
ATOM      7  C   UNL     1       2.388   5.195  20.221  0.00  0.00    +0.000 A 
ATOM      8  C   UNL     1       1.429   4.196  20.460  0.00  0.00    +0.000 A 
ATOM      9  C   UNL     1       1.678   2.844  20.197  0.00  0.00    +0.000 A 
ATOM     10  C   UNL     1       2.915   2.421  19.709  0.00  0.00    +0.000 A 
ATOM     11  C   UNL     1       3.888   3.406  19.536  0.00  0.00    +0.000 A 
ATOM     12  N   UNL     1       5.183   3.318  19.093  0.00  0.00    +0.000 N 
ATOM     13  N   UNL     1       5.835   4.498  19.055  0.00  0.00    +0.000 NA
ATOM     14  C   UNL     1       4.905   5.365  19.468  0.00  0.00    +0.000 A 
ATOM     15  C   UNL     1       3.665   4.761  19.786  0.00  0.00    +0.000 A 
ATOM     16  H   UNL     1       5.682   2.486  18.805  0.00  0.00    +0.000 HD
ENDBRANCH   3   7
BRANCH   4  17
ATOM     17  C   UNL     1       1.372   9.408  21.017  0.00  0.00    +0.000 C 
ATOM     18  C   UNL     1       0.501   8.522  21.908  0.00  0.00    +0.000 C 
ATOM     19  C   UNL     1       0.003   9.362  23.065  0.00  0.00    +0.000 C 
ATOM     20  O   UNL     1      -0.922  10.339  22.589  0.00  0.00    +0.000 OA
ATOM     21  C   UNL     1      -0.441  11.124  21.567  0.00  0.00    +0.000 A 
ATOM     22  C   UNL     1      -1.171  12.307  21.284  0.00  0.00    +0.000 A 
ATOM     23  C   UNL     1      -0.615  13.189  20.354  0.00  0.00    +0.000 A 
ATOM     24  C   UNL     1       0.571  12.898  19.677  0.00  0.00    +0.000 A 
ATOM     25  C   UNL     1       1.219  11.684  19.899  0.00  0.00    +0.000 A 
ATOM     26  C   UNL     1       0.706  10.766  20.827  0.00  0.00    +0.000 A 
BRANCH  22  27
ATOM     27  C   UNL     1      -2.530  12.556  21.947  0.00  0.00    +0.000 C 
ATOM     28  C   UNL     1      -2.435  13.222  23.323  0.00  0.00    +0.000 C 
ATOM     29  C   UNL     1      -2.149  14.716  23.246  0.00  0.00    +0.000 C 
ATOM     30  C   UNL     1      -3.117  15.479  22.347  0.00  0.00    +0.000 C 
ATOM     31  C   UNL     1      -3.481  14.803  21.029  0.00  0.00    +0.000 C 
ATOM     32  C   UNL     1      -3.591  13.280  21.089  0.00  0.00    +0.000 C 
ENDBRANCH  22  27
ENDBRANCH   4  17
TORSDOF 3
ENDMDL
MODEL 6
REMARK VINA RESULT:      -8.3      2.459      9.529
REMARK  Name = 
REMARK  3 active torsions:
REMARK  status: ('A' for Active; 'I' for Inactive)
REMARK    1  A    between atoms: N_3  and  C_4
REMARK    2  A    between atoms: N_13  and  C_14
REMARK    3  A    between atoms: C_19  and  C_20
REMARK                            x       y       z     vdW  Elec       q    Type
REMARK                         _______ _______ _______ _____ _____    ______ ____
ROOT
ATOM      1  O   UNL     1       1.285   8.882  17.574  0.00  0.00    +0.000 OA
ATOM      2  C   UNL     1       1.496   8.765  18.778  0.00  0.00    +0.000 C 
ATOM      3  N   UNL     1       2.208   7.763  19.378  0.00  0.00    +0.000 N 
ATOM      4  N   UNL     1       0.970   9.726  19.582  0.00  0.00    +0.000 N 
ATOM      5  H   UNL     1       2.538   7.945  20.311  0.00  0.00    +0.000 HD
ATOM      6  H   UNL     1       0.414  10.375  19.036  0.00  0.00    +0.000 HD
ENDROOT
BRANCH   3   7
ATOM      7  C   UNL     1       2.780   6.644  18.714  0.00  0.00    +0.000 A 
ATOM      8  C   UNL     1       3.759   6.759  17.711  0.00  0.00    +0.000 A 
ATOM      9  C   UNL     1       4.376   5.640  17.139  0.00  0.00    +0.000 A 
ATOM     10  C   UNL     1       4.019   4.346  17.523  0.00  0.00    +0.000 A 
ATOM     11  C   UNL     1       3.001   4.234  18.470  0.00  0.00    +0.000 A 
ATOM     12  N   UNL     1       2.422   3.127  19.035  0.00  0.00    +0.000 N 
ATOM     13  N   UNL     1       1.451   3.407  19.929  0.00  0.00    +0.000 NA
ATOM     14  C   UNL     1       1.435   4.743  19.941  0.00  0.00    +0.000 A 
ATOM     15  C   UNL     1       2.372   5.332  19.059  0.00  0.00    +0.000 A 
ATOM     16  H   UNL     1       2.641   2.156  18.855  0.00  0.00    +0.000 HD
ENDBRANCH   3   7
BRANCH   4  17
ATOM     17  C   UNL     1       0.904   9.886  21.034  0.00  0.00    +0.000 C 
ATOM     18  C   UNL     1      -0.030   8.841  21.644  0.00  0.00    +0.000 C 
ATOM     19  C   UNL     1      -0.331   9.254  23.069  0.00  0.00    +0.000 C 
ATOM     20  O   UNL     1      -1.133  10.434  23.072  0.00  0.00    +0.000 OA
ATOM     21  C   UNL     1      -0.606  11.477  22.347  0.00  0.00    +0.000 A 
ATOM     22  C   UNL     1      -1.173  12.757  22.580  0.00  0.00    +0.000 A 
ATOM     23  C   UNL     1      -0.554  13.848  21.967  0.00  0.00    +0.000 A 
ATOM     24  C   UNL     1       0.535  13.691  21.106  0.00  0.00    +0.000 A 
ATOM     25  C   UNL     1       1.013  12.415  20.814  0.00  0.00    +0.000 A 
ATOM     26  C   UNL     1       0.430  11.286  21.408  0.00  0.00    +0.000 A 
BRANCH  22  27
ATOM     27  C   UNL     1      -2.440  12.899  23.431  0.00  0.00    +0.000 C 
ATOM     28  C   UNL     1      -2.519  14.218  24.207  0.00  0.00    +0.000 C 
ATOM     29  C   UNL     1      -2.919  15.401  23.336  0.00  0.00    +0.000 C 
ATOM     30  C   UNL     1      -4.199  15.170  22.538  0.00  0.00    +0.000 C 
ATOM     31  C   UNL     1      -4.351  13.793  21.899  0.00  0.00    +0.000 C 
ATOM     32  C   UNL     1      -3.782  12.633  22.715  0.00  0.00    +0.000 C 
ENDBRANCH  22  27
ENDBRANCH   4  17
TORSDOF 3
ENDMDL
MODEL 7
REMARK VINA RESULT:      -8.2      2.986      4.524
REMARK  Name = 
REMARK  3 active torsions:
REMARK  status: ('A' for Active; 'I' for Inactive)
REMARK    1  A    between atoms: N_3  and  C_4
REMARK    2  A    between atoms: N_13  and  C_14
REMARK    3  A    between atoms: C_19  and  C_20
REMARK                            x       y       z     vdW  Elec       q    Type
REMARK                         _______ _______ _______ _____ _____    ______ ____
ROOT
ATOM      1  O   UNL     1       1.239  13.643  21.579  0.00  0.00    +0.000 OA
ATOM      2  C   UNL     1       0.453  12.700  21.577  0.00  0.00    +0.000 C 
ATOM      3  N   UNL     1      -0.762  12.663  22.205  0.00  0.00    +0.000 N 
ATOM      4  N   UNL     1       0.832  11.595  20.884  0.00  0.00    +0.000 N 
ATOM      5  H   UNL     1      -1.408  11.961  21.888  0.00  0.00    +0.000 HD
ATOM      6  H   UNL     1       1.770  11.715  20.518  0.00  0.00    +0.000 HD
ENDROOT
BRANCH   3   7
ATOM      7  C   UNL     1      -1.301  13.694  23.023  0.00  0.00    +0.000 A 
ATOM      8  C   UNL     1      -0.669  14.934  23.220  0.00  0.00    +0.000 A 
ATOM      9  C   UNL     1      -1.264  15.966  23.953  0.00  0.00    +0.000 A 
ATOM     10  C   UNL     1      -2.514  15.797  24.553  0.00  0.00    +0.000 A 
ATOM     11  C   UNL     1      -3.109  14.543  24.411  0.00  0.00    +0.000 A 
ATOM     12  N   UNL     1      -4.304  14.062  24.880  0.00  0.00    +0.000 N 
ATOM     13  N   UNL     1      -4.554  12.780  24.541  0.00  0.00    +0.000 NA
ATOM     14  C   UNL     1      -3.484  12.452  23.810  0.00  0.00    +0.000 A 
ATOM     15  C   UNL     1      -2.539  13.498  23.683  0.00  0.00    +0.000 A 
ATOM     16  H   UNL     1      -4.991  14.552  25.438  0.00  0.00    +0.000 HD
ENDBRANCH   3   7
BRANCH   4  17
ATOM     17  C   UNL     1       0.247  10.264  20.730  0.00  0.00    +0.000 C 
ATOM     18  C   UNL     1       0.197   9.545  22.078  0.00  0.00    +0.000 C 
ATOM     19  C   UNL     1      -0.086   8.080  21.821  0.00  0.00    +0.000 C 
ATOM     20  O   UNL     1       1.037   7.476  21.182  0.00  0.00    +0.000 OA
ATOM     21  C   UNL     1       1.449   8.117  20.037  0.00  0.00    +0.000 A 
ATOM     22  C   UNL     1       2.327   7.393  19.189  0.00  0.00    +0.000 A 
ATOM     23  C   UNL     1       2.636   7.967  17.955  0.00  0.00    +0.000 A 
ATOM     24  C   UNL     1       2.162   9.229  17.587  0.00  0.00    +0.000 A 
ATOM     25  C   UNL     1       1.382   9.965  18.477  0.00  0.00    +0.000 A 
ATOM     26  C   UNL     1       1.038   9.431  19.728  0.00  0.00    +0.000 A 
BRANCH  22  27
ATOM     27  C   UNL     1       2.933   6.065  19.656  0.00  0.00    +0.000 C 
ATOM     28  C   UNL     1       1.965   4.880  19.575  0.00  0.00    +0.000 C 
ATOM     29  C   UNL     1       1.785   4.351  18.158  0.00  0.00    +0.000 C 
ATOM     30  C   UNL     1       3.099   4.019  17.457  0.00  0.00    +0.000 C 
ATOM     31  C   UNL     1       4.235   5.018  17.654  0.00  0.00    +0.000 C 
ATOM     32  C   UNL     1       4.291   5.672  19.034  0.00  0.00    +0.000 C 
ENDBRANCH  22  27
ENDBRANCH   4  17
TORSDOF 3
ENDMDL
MODEL 8
REMARK VINA RESULT:      -8.2      2.582      9.423
REMARK  Name = 
REMARK  3 active torsions:
REMARK  status: ('A' for Active; 'I' for Inactive)
REMARK    1  A    between atoms: N_3  and  C_4
REMARK    2  A    between atoms: N_13  and  C_14
REMARK    3  A    between atoms: C_19  and  C_20
REMARK                            x       y       z     vdW  Elec       q    Type
REMARK                         _______ _______ _______ _____ _____    ______ ____
ROOT
ATOM      1  O   UNL     1       1.909   7.672  17.947  0.00  0.00    +0.000 OA
ATOM      2  C   UNL     1       1.978   7.861  19.158  0.00  0.00    +0.000 C 
ATOM      3  N   UNL     1       2.569   7.031  20.070  0.00  0.00    +0.000 N 
ATOM      4  N   UNL     1       1.412   9.003  19.626  0.00  0.00    +0.000 N 
ATOM      5  H   UNL     1       2.801   7.437  20.960  0.00  0.00    +0.000 HD
ATOM      6  H   UNL     1       0.953   9.503  18.873  0.00  0.00    +0.000 HD
ENDROOT
BRANCH   3   7
ATOM      7  C   UNL     1       3.157   5.769  19.781  0.00  0.00    +0.000 A 
ATOM      8  C   UNL     1       4.455   5.624  19.261  0.00  0.00    +0.000 A 
ATOM      9  C   UNL     1       5.047   4.370  19.073  0.00  0.00    +0.000 A 
ATOM     10  C   UNL     1       4.355   3.194  19.369  0.00  0.00    +0.000 A 
ATOM     11  C   UNL     1       3.043   3.340  19.822  0.00  0.00    +0.000 A 
ATOM     12  N   UNL     1       2.110   2.401  20.180  0.00  0.00    +0.000 N 
ATOM     13  N   UNL     1       0.929   2.919  20.575  0.00  0.00    +0.000 NA
ATOM     14  C   UNL     1       1.137   4.236  20.483  0.00  0.00    +0.000 A 
ATOM     15  C   UNL     1       2.430   4.578  20.022  0.00  0.00    +0.000 A 
ATOM     16  H   UNL     1       2.214   1.394  20.175  0.00  0.00    +0.000 HD
ENDBRANCH   3   7
BRANCH   4  17
ATOM     17  C   UNL     1       1.193   9.529  20.973  0.00  0.00    +0.000 C 
ATOM     18  C   UNL     1       0.298   8.583  21.775  0.00  0.00    +0.000 C 
ATOM     19  C   UNL     1      -0.174   9.317  23.012  0.00  0.00    +0.000 C 
ATOM     20  O   UNL     1      -1.072  10.361  22.641  0.00  0.00    +0.000 OA
ATOM     21  C   UNL     1      -0.570  11.231  21.701  0.00  0.00    +0.000 A 
ATOM     22  C   UNL     1      -1.266  12.457  21.541  0.00  0.00    +0.000 A 
ATOM     23  C   UNL     1      -0.688  13.412  20.702  0.00  0.00    +0.000 A 
ATOM     24  C   UNL     1       0.489  13.157  19.994  0.00  0.00    +0.000 A 
ATOM     25  C   UNL     1       1.102  11.909  20.090  0.00  0.00    +0.000 A 
ATOM     26  C   UNL     1       0.565  10.917  20.923  0.00  0.00    +0.000 A 
BRANCH  22  27
ATOM     27  C   UNL     1      -2.617  12.676  22.231  0.00  0.00    +0.000 C 
ATOM     28  C   UNL     1      -2.518  13.441  23.555  0.00  0.00    +0.000 C 
ATOM     29  C   UNL     1      -2.321  14.940  23.367  0.00  0.00    +0.000 C 
ATOM     30  C   UNL     1      -3.358  15.583  22.451  0.00  0.00    +0.000 C 
ATOM     31  C   UNL     1      -3.723  14.798  21.195  0.00  0.00    +0.000 C 
ATOM     32  C   UNL     1      -3.743  13.279  21.363  0.00  0.00    +0.000 C 
ENDBRANCH  22  27
ENDBRANCH   4  17
TORSDOF 3
ENDMDL
MODEL 9
REMARK VINA RESULT:      -8.2      3.026      9.165
REMARK  Name = 
REMARK  3 active torsions:
REMARK  status: ('A' for Active; 'I' for Inactive)
REMARK    1  A    between atoms: N_3  and  C_4
REMARK    2  A    between atoms: N_13  and  C_14
REMARK    3  A    between atoms: C_19  and  C_20
REMARK                            x       y       z     vdW  Elec       q    Type
REMARK                         _______ _______ _______ _____ _____    ______ ____
ROOT
ATOM      1  O   UNL     1       3.541   6.976  19.722  0.00  0.00    +0.000 OA
ATOM      2  C   UNL     1       2.319   7.087  19.723  0.00  0.00    +0.000 C 
ATOM      3  N   UNL     1       1.419   6.076  19.922  0.00  0.00    +0.000 N 
ATOM      4  N   UNL     1       1.822   8.332  19.506  0.00  0.00    +0.000 N 
ATOM      5  H   UNL     1       0.486   6.351  20.179  0.00  0.00    +0.000 HD
ATOM      6  H   UNL     1       2.576   8.981  19.309  0.00  0.00    +0.000 HD
ENDROOT
BRANCH   3   7
ATOM      7  C   UNL     1       1.743   4.704  20.104  0.00  0.00    +0.000 A 
ATOM      8  C   UNL     1       1.846   4.096  21.368  0.00  0.00    +0.000 A 
ATOM      9  C   UNL     1       2.074   2.723  21.518  0.00  0.00    +0.000 A 
ATOM     10  C   UNL     1       2.240   1.894  20.408  0.00  0.00    +0.000 A 
ATOM     11  C   UNL     1       2.203   2.511  19.157  0.00  0.00    +0.000 A 
ATOM     12  N   UNL     1       2.342   1.989  17.897  0.00  0.00    +0.000 N 
ATOM     13  N   UNL     1       2.247   2.901  16.908  0.00  0.00    +0.000 NA
ATOM     14  C   UNL     1       2.017   4.037  17.572  0.00  0.00    +0.000 A 
ATOM     15  C   UNL     1       1.974   3.876  18.978  0.00  0.00    +0.000 A 
ATOM     16  H   UNL     1       2.506   1.023  17.643  0.00  0.00    +0.000 HD
ENDBRANCH   3   7
BRANCH   4  17
ATOM     17  C   UNL     1       0.466   8.849  19.329  0.00  0.00    +0.000 C 
ATOM     18  C   UNL     1       0.410   9.803  18.135  0.00  0.00    +0.000 C 
ATOM     19  C   UNL     1      -0.897  10.562  18.199  0.00  0.00    +0.000 C 
ATOM     20  O   UNL     1      -0.885  11.452  19.314  0.00  0.00    +0.000 OA
ATOM     21  C   UNL     1      -0.594  10.850  20.515  0.00  0.00    +0.000 A 
ATOM     22  C   UNL     1      -0.890  11.598  21.684  0.00  0.00    +0.000 A 
ATOM     23  C   UNL     1      -0.741  10.947  22.910  0.00  0.00    +0.000 A 
ATOM     24  C   UNL     1      -0.258   9.639  22.999  0.00  0.00    +0.000 A 
ATOM     25  C   UNL     1       0.119   8.958  21.843  0.00  0.00    +0.000 A 
ATOM     26  C   UNL     1      -0.015   9.565  20.586  0.00  0.00    +0.000 A 
BRANCH  22  27
ATOM     27  C   UNL     1      -1.304  13.070  21.577  0.00  0.00    +0.000 C 
ATOM     28  C   UNL     1      -2.817  13.279  21.452  0.00  0.00    +0.000 C 
ATOM     29  C   UNL     1      -3.553  13.123  22.776  0.00  0.00    +0.000 C 
ATOM     30  C   UNL     1      -2.983  13.983  23.900  0.00  0.00    +0.000 C 
ATOM     31  C   UNL     1      -1.461  14.047  23.989  0.00  0.00    +0.000 C 
ATOM     32  C   UNL     1      -0.731  14.025  22.647  0.00  0.00    +0.000 C 
ENDBRANCH  22  27
ENDBRANCH   4  17
TORSDOF 3
ENDMDL
