MODEL 1
REMARK VINA RESULT:      -7.9      0.000      0.000
REMARK  Name = 
REMARK  3 active torsions:
REMARK  status: ('A' for Active; 'I' for Inactive)
REMARK    1  A    between atoms: N_1  and  C_2
REMARK    2  A    between atoms: C_3  and  N_4
REMARK    3  A    between atoms: N_7  and  C_8
REMARK                            x       y       z     vdW  Elec       q    Type
REMARK                         _______ _______ _______ _____ _____    ______ ____
ROOT
ATOM      1  C   UNL     1       3.016   4.191  19.839  0.00  0.00    +0.000 A 
ATOM      2  C   UNL     1       3.143   5.156  18.900  0.00  0.00    +0.000 A 
ATOM      3  C   UNL     1       2.495   6.463  19.127  0.00  0.00    +0.000 A 
ATOM      4  C   UNL     1       2.415   7.471  18.157  0.00  0.00    +0.000 A 
ATOM      5  C   UNL     1       1.851   8.718  18.453  0.00  0.00    +0.000 A 
ATOM      6  C   UNL     1       1.336   8.968  19.722  0.00  0.00    +0.000 A 
ATOM      7  C   UNL     1       1.350   7.961  20.681  0.00  0.00    +0.000 A 
ATOM      8  C   UNL     1       1.914   6.723  20.366  0.00  0.00    +0.000 A 
ATOM      9  O   UNL     1       1.842   5.740  21.363  0.00  0.00    +0.000 OA
ATOM     10  C   UNL     1       2.318   4.461  21.140  0.00  0.00    +0.000 A 
ATOM     11  O   UNL     1       2.251   3.592  22.008  0.00  0.00    +0.000 OA
ENDROOT
BRANCH   2  12
ATOM     12  N   UNL     1       3.935   4.969  17.758  0.00  0.00    +0.000 N 
ATOM     13  C   UNL     1       4.974   5.932  17.338  0.00  0.00    +0.000 C 
ATOM     14  C   UNL     1       6.244   5.195  16.857  0.00  0.00    +0.000 C 
ATOM     15  N   UNL     1       5.910   4.207  15.810  0.00  0.00    +0.000 N 
ATOM     16  C   UNL     1       4.844   3.256  16.192  0.00  0.00    +0.000 C 
ATOM     17  C   UNL     1       3.583   3.988  16.706  0.00  0.00    +0.000 C 
BRANCH  15  18
ATOM     18  C   UNL     1       6.417   4.316  14.529  0.00  0.00    +0.000 A 
ATOM     19  C   UNL     1       5.926   3.515  13.481  0.00  0.00    +0.000 A 
ATOM     20  C   UNL     1       6.428   3.599  12.175  0.00  0.00    +0.000 A 
ATOM     21  C   UNL     1       7.437   4.506  11.879  0.00  0.00    +0.000 A 
ATOM     22  C   UNL     1       7.935   5.323  12.887  0.00  0.00    +0.000 A 
ATOM     23  C   UNL     1       7.427   5.227  14.190  0.00  0.00    +0.000 A 
ENDBRANCH  15  18
ENDBRANCH   2  12
BRANCH   1  24
ATOM     24  N   UNL     1       3.624   2.932  19.706  0.00  0.00    +0.000 N 
ATOM     25  H   UNL     1       3.795   2.735  18.723  0.00  0.00    +0.000 HD
ATOM     26  H   UNL     1       4.461   2.875  20.287  0.00  0.00    +0.000 HD
ENDBRANCH   1  24
TORSDOF 3
ENDMDL
MODEL 2
REMARK VINA RESULT:      -7.7      1.173      2.987
REMARK  Name = 
REMARK  3 active torsions:
REMARK  status: ('A' for Active; 'I' for Inactive)
REMARK    1  A    between atoms: N_1  and  C_2
REMARK    2  A    between atoms: C_3  and  N_4
REMARK    3  A    between atoms: N_7  and  C_8
REMARK                            x       y       z     vdW  Elec       q    Type
REMARK                         _______ _______ _______ _____ _____    ______ ____
ROOT
ATOM      1  C   UNL     1       2.849   6.890  18.949  0.00  0.00    +0.000 A 
ATOM      2  C   UNL     1       3.419   5.679  18.754  0.00  0.00    +0.000 A 
ATOM      3  C   UNL     1       3.180   4.610  19.743  0.00  0.00    +0.000 A 
ATOM      4  C   UNL     1       3.850   3.379  19.735  0.00  0.00    +0.000 A 
ATOM      5  C   UNL     1       3.530   2.374  20.657  0.00  0.00    +0.000 A 
ATOM      6  C   UNL     1       2.547   2.595  21.619  0.00  0.00    +0.000 A 
ATOM      7  C   UNL     1       1.914   3.832  21.682  0.00  0.00    +0.000 A 
ATOM      8  C   UNL     1       2.249   4.822  20.756  0.00  0.00    +0.000 A 
ATOM      9  O   UNL     1       1.609   6.060  20.917  0.00  0.00    +0.000 OA
ATOM     10  C   UNL     1       1.906   7.128  20.092  0.00  0.00    +0.000 A 
ATOM     11  O   UNL     1       1.354   8.219  20.233  0.00  0.00    +0.000 OA
ENDROOT
BRANCH   2  12
ATOM     12  N   UNL     1       4.165   5.397  17.600  0.00  0.00    +0.000 N 
ATOM     13  C   UNL     1       5.118   6.358  17.008  0.00  0.00    +0.000 C 
ATOM     14  C   UNL     1       6.408   5.642  16.550  0.00  0.00    +0.000 C 
ATOM     15  N   UNL     1       6.089   4.513  15.652  0.00  0.00    +0.000 N 
ATOM     16  C   UNL     1       5.106   3.557  16.207  0.00  0.00    +0.000 C 
ATOM     17  C   UNL     1       3.826   4.273  16.697  0.00  0.00    +0.000 C 
BRANCH  15  18
ATOM     18  C   UNL     1       6.524   4.490  14.341  0.00  0.00    +0.000 A 
ATOM     19  C   UNL     1       5.952   3.616  13.399  0.00  0.00    +0.000 A 
ATOM     20  C   UNL     1       6.381   3.566  12.065  0.00  0.00    +0.000 A 
ATOM     21  C   UNL     1       7.397   4.408  11.634  0.00  0.00    +0.000 A 
ATOM     22  C   UNL     1       7.975   5.295  12.534  0.00  0.00    +0.000 A 
ATOM     23  C   UNL     1       7.539   5.332  13.866  0.00  0.00    +0.000 A 
ENDBRANCH  15  18
ENDBRANCH   2  12
BRANCH   1  24
ATOM     24  N   UNL     1       3.009   7.948  18.041  0.00  0.00    +0.000 N 
ATOM     25  H   UNL     1       2.101   8.339  17.804  0.00  0.00    +0.000 HD
ATOM     26  H   UNL     1       3.669   8.637  18.405  0.00  0.00    +0.000 HD
ENDBRANCH   1  24
TORSDOF 3
ENDMDL
MODEL 3
REMARK VINA RESULT:      -7.3      3.576      7.372
REMARK  Name = 
REMARK  3 active torsions:
REMARK  status: ('A' for Active; 'I' for Inactive)
REMARK    1  A    between atoms: N_1  and  C_2
REMARK    2  A    between atoms: C_3  and  N_4
REMARK    3  A    between atoms: N_7  and  C_8
REMARK                            x       y       z     vdW  Elec       q    Type
REMARK                         _______ _______ _______ _____ _____    ______ ____
ROOT
ATOM      1  C   UNL     1       4.523   5.636  18.581  0.00  0.00    +0.000 A 
ATOM      2  C   UNL     1       3.283   5.644  19.122  0.00  0.00    +0.000 A 
ATOM      3  C   UNL     1       2.823   4.460  19.873  0.00  0.00    +0.000 A 
ATOM      4  C   UNL     1       1.508   4.289  20.328  0.00  0.00    +0.000 A 
ATOM      5  C   UNL     1       1.147   3.176  21.098  0.00  0.00    +0.000 A 
ATOM      6  C   UNL     1       2.094   2.202  21.406  0.00  0.00    +0.000 A 
ATOM      7  C   UNL     1       3.388   2.322  20.912  0.00  0.00    +0.000 A 
ATOM      8  C   UNL     1       3.729   3.438  20.144  0.00  0.00    +0.000 A 
ATOM      9  O   UNL     1       5.036   3.461  19.635  0.00  0.00    +0.000 OA
ATOM     10  C   UNL     1       5.463   4.489  18.816  0.00  0.00    +0.000 A 
ATOM     11  O   UNL     1       6.606   4.512  18.361  0.00  0.00    +0.000 OA
ENDROOT
BRANCH   2  12
ATOM     12  N   UNL     1       2.460   6.778  19.051  0.00  0.00    +0.000 N 
ATOM     13  C   UNL     1       1.703   7.291  20.211  0.00  0.00    +0.000 C 
ATOM     14  C   UNL     1       1.765   8.834  20.269  0.00  0.00    +0.000 C 
ATOM     15  N   UNL     1       1.331   9.423  18.985  0.00  0.00    +0.000 N 
ATOM     16  C   UNL     1       2.047   8.896  17.804  0.00  0.00    +0.000 C 
ATOM     17  C   UNL     1       2.016   7.351  17.760  0.00  0.00    +0.000 C 
BRANCH  15  18
ATOM     18  C   UNL     1       0.216  10.235  18.906  0.00  0.00    +0.000 A 
ATOM     19  C   UNL     1       0.026  11.302  19.803  0.00  0.00    +0.000 A 
ATOM     20  C   UNL     1      -1.100  12.135  19.750  0.00  0.00    +0.000 A 
ATOM     21  C   UNL     1      -2.069  11.926  18.779  0.00  0.00    +0.000 A 
ATOM     22  C   UNL     1      -1.908  10.890  17.867  0.00  0.00    +0.000 A 
ATOM     23  C   UNL     1      -0.779  10.062  17.932  0.00  0.00    +0.000 A 
ENDBRANCH  15  18
ENDBRANCH   2  12
BRANCH   1  24
ATOM     24  N   UNL     1       5.040   6.733  17.875  0.00  0.00    +0.000 N 
ATOM     25  H   UNL     1       5.222   6.467  16.910  0.00  0.00    +0.000 HD
ATOM     26  H   UNL     1       4.424   7.542  17.968  0.00  0.00    +0.000 HD
ENDBRANCH   1  24
TORSDOF 3
ENDMDL
MODEL 4
REMARK VINA RESULT:      -7.2      3.465      7.431
REMARK  Name = 
REMARK  3 active torsions:
REMARK  status: ('A' for Active; 'I' for Inactive)
REMARK    1  A    between atoms: N_1  and  C_2
REMARK    2  A    between atoms: C_3  and  N_4
REMARK    3  A    between atoms: N_7  and  C_8
REMARK                            x       y       z     vdW  Elec       q    Type
REMARK                         _______ _______ _______ _____ _____    ______ ____
ROOT
ATOM      1  C   UNL     1       4.724   5.670  18.324  0.00  0.00    +0.000 A 
ATOM      2  C   UNL     1       3.386   5.553  18.488  0.00  0.00    +0.000 A 
ATOM      3  C   UNL     1       2.791   4.206  18.568  0.00  0.00    +0.000 A 
ATOM      4  C   UNL     1       1.410   3.963  18.565  0.00  0.00    +0.000 A 
ATOM      5  C   UNL     1       0.903   2.666  18.716  0.00  0.00    +0.000 A 
ATOM      6  C   UNL     1       1.772   1.586  18.849  0.00  0.00    +0.000 A 
ATOM      7  C   UNL     1       3.145   1.798  18.793  0.00  0.00    +0.000 A 
ATOM      8  C   UNL     1       3.633   3.098  18.639  0.00  0.00    +0.000 A 
ATOM      9  O   UNL     1       5.025   3.227  18.535  0.00  0.00    +0.000 OA
ATOM     10  C   UNL     1       5.613   4.460  18.324  0.00  0.00    +0.000 A 
ATOM     11  O   UNL     1       6.834   4.579  18.225  0.00  0.00    +0.000 OA
ENDROOT
BRANCH   2  12
ATOM     12  N   UNL     1       2.568   6.680  18.658  0.00  0.00    +0.000 N 
ATOM     13  C   UNL     1       1.797   6.930  19.894  0.00  0.00    +0.000 C 
ATOM     14  C   UNL     1       1.863   8.422  20.291  0.00  0.00    +0.000 C 
ATOM     15  N   UNL     1       1.448   9.281  19.163  0.00  0.00    +0.000 N 
ATOM     16  C   UNL     1       2.178   9.022  17.903  0.00  0.00    +0.000 C 
ATOM     17  C   UNL     1       2.142   7.525  17.520  0.00  0.00    +0.000 C 
BRANCH  15  18
ATOM     18  C   UNL     1       0.337  10.097  19.251  0.00  0.00    +0.000 A 
ATOM     19  C   UNL     1      -0.620  10.139  18.220  0.00  0.00    +0.000 A 
ATOM     20  C   UNL     1      -1.752  10.965  18.280  0.00  0.00    +0.000 A 
ATOM     21  C   UNL     1      -1.962  11.769  19.392  0.00  0.00    +0.000 A 
ATOM     22  C   UNL     1      -1.045  11.742  20.436  0.00  0.00    +0.000 A 
ATOM     23  C   UNL     1       0.084  10.915  20.362  0.00  0.00    +0.000 A 
ENDBRANCH  15  18
ENDBRANCH   2  12
BRANCH   1  24
ATOM     24  N   UNL     1       5.366   6.917  18.264  0.00  0.00    +0.000 N 
ATOM     25  H   UNL     1       6.203   6.901  18.842  0.00  0.00    +0.000 HD
ATOM     26  H   UNL     1       5.542   7.183  17.295  0.00  0.00    +0.000 HD
ENDBRANCH   1  24
TORSDOF 3
ENDMDL
MODEL 5
REMARK VINA RESULT:      -7.1      2.895      7.157
REMARK  Name = 
REMARK  3 active torsions:
REMARK  status: ('A' for Active; 'I' for Inactive)
REMARK    1  A    between atoms: N_1  and  C_2
REMARK    2  A    between atoms: C_3  and  N_4
REMARK    3  A    between atoms: N_7  and  C_8
REMARK                            x       y       z     vdW  Elec       q    Type
REMARK                         _______ _______ _______ _____ _____    ______ ____
ROOT
ATOM      1  C   UNL     1       3.205   4.578  19.883  0.00  0.00    +0.000 A 
ATOM      2  C   UNL     1       3.508   5.711  19.209  0.00  0.00    +0.000 A 
ATOM      3  C   UNL     1       4.797   5.793  18.494  0.00  0.00    +0.000 A 
ATOM      4  C   UNL     1       5.290   6.968  17.910  0.00  0.00    +0.000 A 
ATOM      5  C   UNL     1       6.486   6.969  17.182  0.00  0.00    +0.000 A 
ATOM      6  C   UNL     1       7.222   5.795  17.047  0.00  0.00    +0.000 A 
ATOM      7  C   UNL     1       6.783   4.632  17.670  0.00  0.00    +0.000 A 
ATOM      8  C   UNL     1       5.588   4.651  18.394  0.00  0.00    +0.000 A 
ATOM      9  O   UNL     1       5.238   3.457  19.040  0.00  0.00    +0.000 OA
ATOM     10  C   UNL     1       4.107   3.379  19.830  0.00  0.00    +0.000 A 
ATOM     11  O   UNL     1       3.798   2.336  20.405  0.00  0.00    +0.000 OA
ENDROOT
BRANCH   2  12
ATOM     12  N   UNL     1       2.598   6.773  19.113  0.00  0.00    +0.000 N 
ATOM     13  C   UNL     1       1.807   7.256  20.264  0.00  0.00    +0.000 C 
ATOM     14  C   UNL     1       1.747   8.800  20.281  0.00  0.00    +0.000 C 
ATOM     15  N   UNL     1       1.263   9.319  18.984  0.00  0.00    +0.000 N 
ATOM     16  C   UNL     1       2.015   8.818  17.813  0.00  0.00    +0.000 C 
ATOM     17  C   UNL     1       2.105   7.275  17.810  0.00  0.00    +0.000 C 
BRANCH  15  18
ATOM     18  C   UNL     1       0.088  10.038  18.890  0.00  0.00    +0.000 A 
ATOM     19  C   UNL     1      -0.768   9.894  17.782  0.00  0.00    +0.000 A 
ATOM     20  C   UNL     1      -1.962  10.618  17.658  0.00  0.00    +0.000 A 
ATOM     21  C   UNL     1      -2.340  11.505  18.656  0.00  0.00    +0.000 A 
ATOM     22  C   UNL     1      -1.526  11.662  19.773  0.00  0.00    +0.000 A 
ATOM     23  C   UNL     1      -0.333  10.935  19.883  0.00  0.00    +0.000 A 
ENDBRANCH  15  18
ENDBRANCH   2  12
BRANCH   1  24
ATOM     24  N   UNL     1       1.989   4.415  20.565  0.00  0.00    +0.000 N 
ATOM     25  H   UNL     1       2.167   4.279  21.557  0.00  0.00    +0.000 HD
ATOM     26  H   UNL     1       1.358   5.193  20.365  0.00  0.00    +0.000 HD
ENDBRANCH   1  24
TORSDOF 3
ENDMDL
MODEL 6
REMARK VINA RESULT:      -7.1      2.795      7.417
REMARK  Name = 
REMARK  3 active torsions:
REMARK  status: ('A' for Active; 'I' for Inactive)
REMARK    1  A    between atoms: N_1  and  C_2
REMARK    2  A    between atoms: C_3  and  N_4
REMARK    3  A    between atoms: N_7  and  C_8
REMARK                            x       y       z     vdW  Elec       q    Type
REMARK                         _______ _______ _______ _____ _____    ______ ____
ROOT
ATOM      1  C   UNL     1       2.594   4.119  18.289  0.00  0.00    +0.000 A 
ATOM      2  C   UNL     1       3.145   5.353  18.231  0.00  0.00    +0.000 A 
ATOM      3  C   UNL     1       4.521   5.497  17.718  0.00  0.00    +0.000 A 
ATOM      4  C   UNL     1       5.250   6.694  17.770  0.00  0.00    +0.000 A 
ATOM      5  C   UNL     1       6.526   6.789  17.202  0.00  0.00    +0.000 A 
ATOM      6  C   UNL     1       7.104   5.679  16.591  0.00  0.00    +0.000 A 
ATOM      7  C   UNL     1       6.424   4.467  16.583  0.00  0.00    +0.000 A 
ATOM      8  C   UNL     1       5.152   4.390  17.157  0.00  0.00    +0.000 A 
ATOM      9  O   UNL     1       4.552   3.123  17.160  0.00  0.00    +0.000 OA
ATOM     10  C   UNL     1       3.319   2.920  17.752  0.00  0.00    +0.000 A 
ATOM     11  O   UNL     1       2.790   1.809  17.764  0.00  0.00    +0.000 OA
ENDROOT
BRANCH   2  12
ATOM     12  N   UNL     1       2.413   6.500  18.574  0.00  0.00    +0.000 N 
ATOM     13  C   UNL     1       1.805   6.692  19.906  0.00  0.00    +0.000 C 
ATOM     14  C   UNL     1       1.997   8.146  20.393  0.00  0.00    +0.000 C 
ATOM     15  N   UNL     1       1.502   9.106  19.385  0.00  0.00    +0.000 N 
ATOM     16  C   UNL     1       2.067   8.908  18.032  0.00  0.00    +0.000 C 
ATOM     17  C   UNL     1       1.906   7.446  17.554  0.00  0.00    +0.000 C 
BRANCH  15  18
ATOM     18  C   UNL     1       0.454   9.963  19.660  0.00  0.00    +0.000 A 
ATOM     19  C   UNL     1      -0.453  10.350  18.656  0.00  0.00    +0.000 A 
ATOM     20  C   UNL     1      -1.519  11.226  18.906  0.00  0.00    +0.000 A 
ATOM     21  C   UNL     1      -1.713  11.731  20.185  0.00  0.00    +0.000 A 
ATOM     22  C   UNL     1      -0.845  11.358  21.204  0.00  0.00    +0.000 A 
ATOM     23  C   UNL     1       0.219  10.484  20.940  0.00  0.00    +0.000 A 
ENDBRANCH  15  18
ENDBRANCH   2  12
BRANCH   1  24
ATOM     24  N   UNL     1       1.283   3.905  18.742  0.00  0.00    +0.000 N 
ATOM     25  H   UNL     1       0.907   4.767  19.131  0.00  0.00    +0.000 HD
ATOM     26  H   UNL     1       0.708   3.506  17.998  0.00  0.00    +0.000 HD
ENDBRANCH   1  24
TORSDOF 3
ENDMDL
MODEL 7
REMARK VINA RESULT:      -7.0      3.072      7.549
REMARK  Name = 
REMARK  3 active torsions:
REMARK  status: ('A' for Active; 'I' for Inactive)
REMARK    1  A    between atoms: N_1  and  C_2
REMARK    2  A    between atoms: C_3  and  N_4
REMARK    3  A    between atoms: N_7  and  C_8
REMARK                            x       y       z     vdW  Elec       q    Type
REMARK                         _______ _______ _______ _____ _____    ______ ____
ROOT
ATOM      1  C   UNL     1       4.725   5.826  17.272  0.00  0.00    +0.000 A 
ATOM      2  C   UNL     1       3.506   5.808  17.857  0.00  0.00    +0.000 A 
ATOM      3  C   UNL     1       2.820   4.514  18.040  0.00  0.00    +0.000 A 
ATOM      4  C   UNL     1       1.493   4.390  18.474  0.00  0.00    +0.000 A 
ATOM      5  C   UNL     1       0.918   3.133  18.698  0.00  0.00    +0.000 A 
ATOM      6  C   UNL     1       1.657   1.976  18.468  0.00  0.00    +0.000 A 
ATOM      7  C   UNL     1       2.955   2.075  17.979  0.00  0.00    +0.000 A 
ATOM      8  C   UNL     1       3.510   3.338  17.759  0.00  0.00    +0.000 A 
ATOM      9  O   UNL     1       4.801   3.357  17.212  0.00  0.00    +0.000 OA
ATOM     10  C   UNL     1       5.425   4.551  16.902  0.00  0.00    +0.000 A 
ATOM     11  O   UNL     1       6.556   4.575  16.415  0.00  0.00    +0.000 OA
ENDROOT
BRANCH   2  12
ATOM     12  N   UNL     1       2.916   6.977  18.359  0.00  0.00    +0.000 N 
ATOM     13  C   UNL     1       2.709   8.186  17.535  0.00  0.00    +0.000 C 
ATOM     14  C   UNL     1       1.326   8.815  17.820  0.00  0.00    +0.000 C 
ATOM     15  N   UNL     1       1.151   9.061  19.267  0.00  0.00    +0.000 N 
ATOM     16  C   UNL     1       1.392   7.874  20.116  0.00  0.00    +0.000 C 
ATOM     17  C   UNL     1       2.761   7.222  19.811  0.00  0.00    +0.000 C 
BRANCH  15  18
ATOM     18  C   UNL     1       0.982  10.338  19.765  0.00  0.00    +0.000 A 
ATOM     19  C   UNL     1       1.486  11.459  19.080  0.00  0.00    +0.000 A 
ATOM     20  C   UNL     1       1.336  12.765  19.569  0.00  0.00    +0.000 A 
ATOM     21  C   UNL     1       0.659  12.984  20.760  0.00  0.00    +0.000 A 
ATOM     22  C   UNL     1       0.135  11.900  21.455  0.00  0.00    +0.000 A 
ATOM     23  C   UNL     1       0.295  10.599  20.959  0.00  0.00    +0.000 A 
ENDBRANCH  15  18
ENDBRANCH   2  12
BRANCH   1  24
ATOM     24  N   UNL     1       5.449   7.013  17.086  0.00  0.00    +0.000 N 
ATOM     25  H   UNL     1       6.446   6.822  17.148  0.00  0.00    +0.000 HD
ATOM     26  H   UNL     1       5.173   7.469  16.215  0.00  0.00    +0.000 HD
ENDBRANCH   1  24
TORSDOF 3
ENDMDL
MODEL 8
REMARK VINA RESULT:      -7.0      2.773      7.425
REMARK  Name = 
REMARK  3 active torsions:
REMARK  status: ('A' for Active; 'I' for Inactive)
REMARK    1  A    between atoms: N_1  and  C_2
REMARK    2  A    between atoms: C_3  and  N_4
REMARK    3  A    between atoms: N_7  and  C_8
REMARK                            x       y       z     vdW  Elec       q    Type
REMARK                         _______ _______ _______ _____ _____    ______ ____
ROOT
ATOM      1  C   UNL     1       2.517   4.610  18.023  0.00  0.00    +0.000 A 
ATOM      2  C   UNL     1       3.283   5.724  18.039  0.00  0.00    +0.000 A 
ATOM      3  C   UNL     1       4.665   5.649  17.529  0.00  0.00    +0.000 A 
ATOM      4  C   UNL     1       5.599   6.687  17.652  0.00  0.00    +0.000 A 
ATOM      5  C   UNL     1       6.875   6.586  17.084  0.00  0.00    +0.000 A 
ATOM      6  C   UNL     1       7.246   5.430  16.401  0.00  0.00    +0.000 A 
ATOM      7  C   UNL     1       6.356   4.365  16.320  0.00  0.00    +0.000 A 
ATOM      8  C   UNL     1       5.089   4.484  16.895  0.00  0.00    +0.000 A 
ATOM      9  O   UNL     1       4.269   3.349  16.821  0.00  0.00    +0.000 OA
ATOM     10  C   UNL     1       3.016   3.335  17.406  0.00  0.00    +0.000 A 
ATOM     11  O   UNL     1       2.294   2.340  17.351  0.00  0.00    +0.000 OA
ENDROOT
BRANCH   2  12
ATOM     12  N   UNL     1       2.769   6.961  18.458  0.00  0.00    +0.000 N 
ATOM     13  C   UNL     1       2.695   8.139  17.570  0.00  0.00    +0.000 C 
ATOM     14  C   UNL     1       1.357   8.888  17.762  0.00  0.00    +0.000 C 
ATOM     15  N   UNL     1       1.143   9.220  19.186  0.00  0.00    +0.000 N 
ATOM     16  C   UNL     1       1.253   8.063  20.100  0.00  0.00    +0.000 C 
ATOM     17  C   UNL     1       2.575   7.291  19.889  0.00  0.00    +0.000 C 
BRANCH  15  18
ATOM     18  C   UNL     1       1.057  10.530  19.615  0.00  0.00    +0.000 A 
ATOM     19  C   UNL     1       0.424  10.860  20.827  0.00  0.00    +0.000 A 
ATOM     20  C   UNL     1       0.315  12.182  21.281  0.00  0.00    +0.000 A 
ATOM     21  C   UNL     1       0.855  13.217  20.531  0.00  0.00    +0.000 A 
ATOM     22  C   UNL     1       1.501  12.926  19.334  0.00  0.00    +0.000 A 
ATOM     23  C   UNL     1       1.600  11.601  18.890  0.00  0.00    +0.000 A 
ENDBRANCH  15  18
ENDBRANCH   2  12
BRANCH   1  24
ATOM     24  N   UNL     1       1.186   4.608  18.468  0.00  0.00    +0.000 N 
ATOM     25  H   UNL     1       0.623   5.209  17.871  0.00  0.00    +0.000 HD
ATOM     26  H   UNL     1       0.832   3.653  18.539  0.00  0.00    +0.000 HD
ENDBRANCH   1  24
TORSDOF 3
ENDMDL
MODEL 9
REMARK VINA RESULT:      -7.0      3.473      5.633
REMARK  Name = 
REMARK  3 active torsions:
REMARK  status: ('A' for Active; 'I' for Inactive)
REMARK    1  A    between atoms: N_1  and  C_2
REMARK    2  A    between atoms: C_3  and  N_4
REMARK    3  A    between atoms: N_7  and  C_8
REMARK                            x       y       z     vdW  Elec       q    Type
REMARK                         _______ _______ _______ _____ _____    ______ ____
ROOT
ATOM      1  C   UNL     1       0.415  10.051  21.388  0.00  0.00    +0.000 A 
ATOM      2  C   UNL     1       0.406   9.672  20.090  0.00  0.00    +0.000 A 
ATOM      3  C   UNL     1      -0.641  10.206  19.197  0.00  0.00    +0.000 A 
ATOM      4  C   UNL     1      -0.851   9.756  17.886  0.00  0.00    +0.000 A 
ATOM      5  C   UNL     1      -1.813  10.351  17.061  0.00  0.00    +0.000 A 
ATOM      6  C   UNL     1      -2.599  11.394  17.544  0.00  0.00    +0.000 A 
ATOM      7  C   UNL     1      -2.449  11.815  18.861  0.00  0.00    +0.000 A 
ATOM      8  C   UNL     1      -1.486  11.207  19.670  0.00  0.00    +0.000 A 
ATOM      9  O   UNL     1      -1.431  11.646  21.000  0.00  0.00    +0.000 OA
ATOM     10  C   UNL     1      -0.554  11.075  21.903  0.00  0.00    +0.000 A 
ATOM     11  O   UNL     1      -0.506  11.450  23.075  0.00  0.00    +0.000 OA
ENDROOT
BRANCH   2  12
ATOM     12  N   UNL     1       1.408   8.846  19.560  0.00  0.00    +0.000 N 
ATOM     13  C   UNL     1       1.891   7.631  20.247  0.00  0.00    +0.000 C 
ATOM     14  C   UNL     1       2.098   6.476  19.242  0.00  0.00    +0.000 C 
ATOM     15  N   UNL     1       2.973   6.901  18.130  0.00  0.00    +0.000 N 
ATOM     16  C   UNL     1       2.532   8.138  17.451  0.00  0.00    +0.000 C 
ATOM     17  C   UNL     1       2.292   9.288  18.457  0.00  0.00    +0.000 C 
BRANCH  15  18
ATOM     18  C   UNL     1       4.194   6.296  17.903  0.00  0.00    +0.000 A 
ATOM     19  C   UNL     1       4.884   6.480  16.691  0.00  0.00    +0.000 A 
ATOM     20  C   UNL     1       6.120   5.870  16.432  0.00  0.00    +0.000 A 
ATOM     21  C   UNL     1       6.708   5.063  17.395  0.00  0.00    +0.000 A 
ATOM     22  C   UNL     1       6.061   4.871  18.611  0.00  0.00    +0.000 A 
ATOM     23  C   UNL     1       4.824   5.483  18.856  0.00  0.00    +0.000 A 
ENDBRANCH  15  18
ENDBRANCH   2  12
BRANCH   1  24
ATOM     24  N   UNL     1       1.392   9.605  22.292  0.00  0.00    +0.000 N 
ATOM     25  H   UNL     1       1.860  10.403  22.714  0.00  0.00    +0.000 HD
ATOM     26  H   UNL     1       0.985   8.962  22.972  0.00  0.00    +0.000 HD
ENDBRANCH   1  24
TORSDOF 3
ENDMDL
