MODEL 1
REMARK VINA RESULT:      -8.2      0.000      0.000
REMARK  Name = 
REMARK  4 active torsions:
REMARK  status: ('A' for Active; 'I' for Inactive)
REMARK    1  A    between atoms: C_1  and  C_2
REMARK    2  A    between atoms: C_8  and  N_9
REMARK    3  A    between atoms: N_9  and  S_10
REMARK    4  A    between atoms: S_10  and  C_13
REMARK                            x       y       z     vdW  Elec       q    Type
REMARK                         _______ _______ _______ _____ _____    ______ ____
ROOT
ATOM      1  N   UNL     1       4.106   2.785  18.715  0.00  0.00    +0.000 N 
ATOM      2  H   UNL     1       4.391   2.287  19.556  0.00  0.00    +0.000 HD
ENDROOT
BRANCH   1  10
ATOM      3  C   UNL     1       6.053   3.816  13.494  0.00  0.00    +0.000 C 
ATOM      4  C   UNL     1       6.518   4.553  14.693  0.00  0.00    +0.000 A 
ATOM      5  N   UNL     1       7.440   5.518  14.594  0.00  0.00    +0.000 NA
ATOM      6  N   UNL     1       7.597   5.945  15.860  0.00  0.00    +0.000 N 
ATOM      7  C   UNL     1       6.811   5.294  16.773  0.00  0.00    +0.000 A 
ATOM      8  C   UNL     1       6.673   5.435  18.159  0.00  0.00    +0.000 A 
ATOM      9  C   UNL     1       5.752   4.590  18.795  0.00  0.00    +0.000 A 
ATOM     10  C   UNL     1       5.015   3.656  18.069  0.00  0.00    +0.000 A 
ATOM     11  C   UNL     1       5.180   3.521  16.688  0.00  0.00    +0.000 A 
ATOM     12  C   UNL     1       6.089   4.367  16.033  0.00  0.00    +0.000 A 
ATOM     13  H   UNL     1       8.263   6.689  16.035  0.00  0.00    +0.000 HD
ENDBRANCH   1  10
BRANCH   1  14
ATOM     14  S   UNL     1       2.453   2.984  18.520  0.00  0.00    +0.000 S 
ATOM     15  O   UNL     1       2.208   2.922  17.095  0.00  0.00    +0.000 OA
ATOM     16  O   UNL     1       1.747   2.116  19.438  0.00  0.00    +0.000 OA
BRANCH  14  17
ATOM     17  C   UNL     1       2.197   4.670  19.032  0.00  0.00    +0.000 A 
ATOM     18  C   UNL     1       1.881   4.958  20.363  0.00  0.00    +0.000 A 
ATOM     19  C   UNL     1       1.700   6.288  20.755  0.00  0.00    +0.000 A 
ATOM     20  C   UNL     1       1.847   7.314  19.821  0.00  0.00    +0.000 A 
ATOM     21 CL   UNL     1       1.619   8.950  20.305  0.00  0.00    +0.000 Cl
ATOM     22  C   UNL     1       2.178   7.027  18.496  0.00  0.00    +0.000 A 
ATOM     23  C   UNL     1       2.362   5.701  18.099  0.00  0.00    +0.000 A 
ENDBRANCH  14  17
ENDBRANCH   1  14
TORSDOF 3
ENDMDL
MODEL 2
REMARK VINA RESULT:      -8.2      0.369      1.119
REMARK  Name = 
REMARK  4 active torsions:
REMARK  status: ('A' for Active; 'I' for Inactive)
REMARK    1  A    between atoms: C_1  and  C_2
REMARK    2  A    between atoms: C_8  and  N_9
REMARK    3  A    between atoms: N_9  and  S_10
REMARK    4  A    between atoms: S_10  and  C_13
REMARK                            x       y       z     vdW  Elec       q    Type
REMARK                         _______ _______ _______ _____ _____    ______ ____
ROOT
ATOM      1  N   UNL     1       3.995   2.998  18.981  0.00  0.00    +0.000 N 
ATOM      2  H   UNL     1       4.272   2.494  19.821  0.00  0.00    +0.000 HD
ENDROOT
BRANCH   1  10
ATOM      3  C   UNL     1       6.055   3.839  13.769  0.00  0.00    +0.000 C 
ATOM      4  C   UNL     1       6.501   4.613  14.952  0.00  0.00    +0.000 A 
ATOM      5  N   UNL     1       7.431   5.568  14.840  0.00  0.00    +0.000 NA
ATOM      6  N   UNL     1       7.566   6.036  16.094  0.00  0.00    +0.000 N 
ATOM      7  C   UNL     1       6.757   5.422  17.012  0.00  0.00    +0.000 A 
ATOM      8  C   UNL     1       6.592   5.610  18.388  0.00  0.00    +0.000 A 
ATOM      9  C   UNL     1       5.652   4.794  19.034  0.00  0.00    +0.000 A 
ATOM     10  C   UNL     1       4.923   3.840  18.325  0.00  0.00    +0.000 A 
ATOM     11  C   UNL     1       5.115   3.657  16.953  0.00  0.00    +0.000 A 
ATOM     12  C   UNL     1       6.044   4.475  16.289  0.00  0.00    +0.000 A 
ATOM     13  H   UNL     1       8.233   6.781  16.257  0.00  0.00    +0.000 HD
ENDBRANCH   1  10
BRANCH   1  14
ATOM     14  S   UNL     1       2.347   3.244  18.798  0.00  0.00    +0.000 S 
ATOM     15  O   UNL     1       2.061   3.021  17.397  0.00  0.00    +0.000 OA
ATOM     16  O   UNL     1       1.630   2.525  19.830  0.00  0.00    +0.000 OA
BRANCH  14  17
ATOM     17  C   UNL     1       2.173   4.989  19.107  0.00  0.00    +0.000 A 
ATOM     18  C   UNL     1       2.313   5.904  18.058  0.00  0.00    +0.000 A 
ATOM     19  C   UNL     1       2.156   7.270  18.312  0.00  0.00    +0.000 A 
ATOM     20  C   UNL     1       1.852   7.707  19.602  0.00  0.00    +0.000 A 
ATOM     21 CL   UNL     1       1.665   9.390  19.911  0.00  0.00    +0.000 Cl
ATOM     22  C   UNL     1       1.697   6.793  20.644  0.00  0.00    +0.000 A 
ATOM     23  C   UNL     1       1.850   5.427  20.397  0.00  0.00    +0.000 A 
ENDBRANCH  14  17
ENDBRANCH   1  14
TORSDOF 3
ENDMDL
MODEL 3
REMARK VINA RESULT:      -7.6      1.328      2.537
REMARK  Name = 
REMARK  4 active torsions:
REMARK  status: ('A' for Active; 'I' for Inactive)
REMARK    1  A    between atoms: C_1  and  C_2
REMARK    2  A    between atoms: C_8  and  N_9
REMARK    3  A    between atoms: N_9  and  S_10
REMARK    4  A    between atoms: S_10  and  C_13
REMARK                            x       y       z     vdW  Elec       q    Type
REMARK                         _______ _______ _______ _____ _____    ______ ____
ROOT
ATOM      1  N   UNL     1       3.989   3.683  19.919  0.00  0.00    +0.000 N 
ATOM      2  H   UNL     1       4.467   3.571  20.810  0.00  0.00    +0.000 HD
ENDROOT
BRANCH   1  10
ATOM      3  C   UNL     1       8.072   7.344  18.491  0.00  0.00    +0.000 C 
ATOM      4  C   UNL     1       7.418   6.437  17.517  0.00  0.00    +0.000 A 
ATOM      5  N   UNL     1       7.772   6.443  16.226  0.00  0.00    +0.000 NA
ATOM      6  N   UNL     1       6.980   5.507  15.671  0.00  0.00    +0.000 N 
ATOM      7  C   UNL     1       6.131   4.896  16.554  0.00  0.00    +0.000 A 
ATOM      8  C   UNL     1       5.171   3.892  16.387  0.00  0.00    +0.000 A 
ATOM      9  C   UNL     1       4.466   3.488  17.529  0.00  0.00    +0.000 A 
ATOM     10  C   UNL     1       4.719   4.071  18.770  0.00  0.00    +0.000 A 
ATOM     11  C   UNL     1       5.671   5.084  18.913  0.00  0.00    +0.000 A 
ATOM     12  C   UNL     1       6.394   5.491  17.780  0.00  0.00    +0.000 A 
ATOM     13  H   UNL     1       7.071   5.333  14.677  0.00  0.00    +0.000 HD
ENDBRANCH   1  10
BRANCH   1  14
ATOM     14  S   UNL     1       2.340   3.970  20.016  0.00  0.00    +0.000 S 
ATOM     15  O   UNL     1       1.733   3.174  18.972  0.00  0.00    +0.000 OA
ATOM     16  O   UNL     1       1.907   3.853  21.392  0.00  0.00    +0.000 OA
BRANCH  14  17
ATOM     17  C   UNL     1       2.209   5.677  19.529  0.00  0.00    +0.000 A 
ATOM     18  C   UNL     1       2.304   6.031  18.180  0.00  0.00    +0.000 A 
ATOM     19  C   UNL     1       2.181   7.374  17.810  0.00  0.00    +0.000 A 
ATOM     20  C   UNL     1       1.955   8.346  18.786  0.00  0.00    +0.000 A 
ATOM     21 CL   UNL     1       1.810   9.998  18.328  0.00  0.00    +0.000 Cl
ATOM     22  C   UNL     1       1.845   7.990  20.131  0.00  0.00    +0.000 A 
ATOM     23  C   UNL     1       1.964   6.651  20.505  0.00  0.00    +0.000 A 
ENDBRANCH  14  17
ENDBRANCH   1  14
TORSDOF 3
ENDMDL
MODEL 4
REMARK VINA RESULT:      -7.5      3.901      6.588
REMARK  Name = 
REMARK  4 active torsions:
REMARK  status: ('A' for Active; 'I' for Inactive)
REMARK    1  A    between atoms: C_1  and  C_2
REMARK    2  A    between atoms: C_8  and  N_9
REMARK    3  A    between atoms: N_9  and  S_10
REMARK    4  A    between atoms: S_10  and  C_13
REMARK                            x       y       z     vdW  Elec       q    Type
REMARK                         _______ _______ _______ _____ _____    ______ ____
ROOT
ATOM      1  N   UNL     1       2.730   6.030  20.507  0.00  0.00    +0.000 N 
ATOM      2  H   UNL     1       2.841   6.039  21.518  0.00  0.00    +0.000 HD
ENDROOT
BRANCH   1  10
ATOM      3  C   UNL     1      -0.364  10.642  21.637  0.00  0.00    +0.000 C 
ATOM      4  C   UNL     1       0.196  10.349  20.296  0.00  0.00    +0.000 A 
ATOM      5  N   UNL     1      -0.008  11.181  19.268  0.00  0.00    +0.000 NA
ATOM      6  N   UNL     1       0.640  10.595  18.245  0.00  0.00    +0.000 N 
ATOM      7  C   UNL     1       1.258   9.418  18.573  0.00  0.00    +0.000 A 
ATOM      8  C   UNL     1       2.022   8.520  17.820  0.00  0.00    +0.000 A 
ATOM      9  C   UNL     1       2.517   7.390  18.487  0.00  0.00    +0.000 A 
ATOM     10  C   UNL     1       2.253   7.183  19.840  0.00  0.00    +0.000 A 
ATOM     11  C   UNL     1       1.474   8.085  20.570  0.00  0.00    +0.000 A 
ATOM     12  C   UNL     1       0.980   9.227  19.921  0.00  0.00    +0.000 A 
ATOM     13  H   UNL     1       0.623  11.055  17.342  0.00  0.00    +0.000 HD
ENDBRANCH   1  10
BRANCH   1  14
ATOM     14  S   UNL     1       2.560   4.514  19.812  0.00  0.00    +0.000 S 
ATOM     15  O   UNL     1       2.874   3.559  20.853  0.00  0.00    +0.000 OA
ATOM     16  O   UNL     1       1.307   4.447  19.090  0.00  0.00    +0.000 OA
BRANCH  14  17
ATOM     17  C   UNL     1       3.891   4.471  18.631  0.00  0.00    +0.000 A 
ATOM     18  C   UNL     1       3.635   4.138  17.297  0.00  0.00    +0.000 A 
ATOM     19  C   UNL     1       4.687   4.126  16.376  0.00  0.00    +0.000 A 
ATOM     20  C   UNL     1       5.978   4.455  16.791  0.00  0.00    +0.000 A 
ATOM     21 CL   UNL     1       7.271   4.435  15.656  0.00  0.00    +0.000 Cl
ATOM     22  C   UNL     1       6.230   4.803  18.118  0.00  0.00    +0.000 A 
ATOM     23  C   UNL     1       5.183   4.820  19.042  0.00  0.00    +0.000 A 
ENDBRANCH  14  17
ENDBRANCH   1  14
TORSDOF 3
ENDMDL
MODEL 5
REMARK VINA RESULT:      -7.5      3.898      6.554
REMARK  Name = 
REMARK  4 active torsions:
REMARK  status: ('A' for Active; 'I' for Inactive)
REMARK    1  A    between atoms: C_1  and  C_2
REMARK    2  A    between atoms: C_8  and  N_9
REMARK    3  A    between atoms: N_9  and  S_10
REMARK    4  A    between atoms: S_10  and  C_13
REMARK                            x       y       z     vdW  Elec       q    Type
REMARK                         _______ _______ _______ _____ _____    ______ ____
ROOT
ATOM      1  N   UNL     1       2.712   6.007  20.513  0.00  0.00    +0.000 N 
ATOM      2  H   UNL     1       2.799   5.999  21.526  0.00  0.00    +0.000 HD
ENDROOT
BRANCH   1  10
ATOM      3  C   UNL     1      -0.436  10.581  21.646  0.00  0.00    +0.000 C 
ATOM      4  C   UNL     1       0.159  10.315  20.314  0.00  0.00    +0.000 A 
ATOM      5  N   UNL     1      -0.025  11.164  19.296  0.00  0.00    +0.000 NA
ATOM      6  N   UNL     1       0.653  10.600  18.280  0.00  0.00    +0.000 N 
ATOM      7  C   UNL     1       1.269   9.421  18.603  0.00  0.00    +0.000 A 
ATOM      8  C   UNL     1       2.057   8.540  17.853  0.00  0.00    +0.000 A 
ATOM      9  C   UNL     1       2.543   7.402  18.513  0.00  0.00    +0.000 A 
ATOM     10  C   UNL     1       2.245   7.169  19.854  0.00  0.00    +0.000 A 
ATOM     11  C   UNL     1       1.443   8.054  20.581  0.00  0.00    +0.000 A 
ATOM     12  C   UNL     1       0.958   9.204  19.939  0.00  0.00    +0.000 A 
ATOM     13  H   UNL     1       0.655  11.076  17.385  0.00  0.00    +0.000 HD
ENDBRANCH   1  10
BRANCH   1  14
ATOM     14  S   UNL     1       2.566   4.502  19.789  0.00  0.00    +0.000 S 
ATOM     15  O   UNL     1       2.892   3.532  20.812  0.00  0.00    +0.000 OA
ATOM     16  O   UNL     1       1.316   4.431  19.063  0.00  0.00    +0.000 OA
BRANCH  14  17
ATOM     17  C   UNL     1       3.901   4.502  18.610  0.00  0.00    +0.000 A 
ATOM     18  C   UNL     1       5.196   4.839  19.017  0.00  0.00    +0.000 A 
ATOM     19  C   UNL     1       6.238   4.816  18.084  0.00  0.00    +0.000 A 
ATOM     20  C   UNL     1       5.980   4.451  16.762  0.00  0.00    +0.000 A 
ATOM     21 CL   UNL     1       7.263   4.430  15.616  0.00  0.00    +0.000 Cl
ATOM     22  C   UNL     1       4.690   4.100  16.361  0.00  0.00    +0.000 A 
ATOM     23  C   UNL     1       3.647   4.117  17.288  0.00  0.00    +0.000 A 
ENDBRANCH  14  17
ENDBRANCH   1  14
TORSDOF 3
ENDMDL
MODEL 6
REMARK VINA RESULT:      -7.5      1.244      2.269
REMARK  Name = 
REMARK  4 active torsions:
REMARK  status: ('A' for Active; 'I' for Inactive)
REMARK    1  A    between atoms: C_1  and  C_2
REMARK    2  A    between atoms: C_8  and  N_9
REMARK    3  A    between atoms: N_9  and  S_10
REMARK    4  A    between atoms: S_10  and  C_13
REMARK                            x       y       z     vdW  Elec       q    Type
REMARK                         _______ _______ _______ _____ _____    ______ ____
ROOT
ATOM      1  N   UNL     1       3.978   3.220  19.711  0.00  0.00    +0.000 N 
ATOM      2  H   UNL     1       4.502   2.953  20.542  0.00  0.00    +0.000 HD
ENDROOT
BRANCH   1  10
ATOM      3  C   UNL     1       8.014   7.034  18.577  0.00  0.00    +0.000 C 
ATOM      4  C   UNL     1       7.312   6.258  17.527  0.00  0.00    +0.000 A 
ATOM      5  N   UNL     1       7.608   6.427  16.232  0.00  0.00    +0.000 NA
ATOM      6  N   UNL     1       6.788   5.569  15.599  0.00  0.00    +0.000 N 
ATOM      7  C   UNL     1       5.975   4.851  16.435  0.00  0.00    +0.000 A 
ATOM      8  C   UNL     1       5.003   3.876  16.185  0.00  0.00    +0.000 A 
ATOM      9  C   UNL     1       4.348   3.330  17.298  0.00  0.00    +0.000 A 
ATOM     10  C   UNL     1       4.658   3.751  18.590  0.00  0.00    +0.000 A 
ATOM     11  C   UNL     1       5.622   4.738  18.817  0.00  0.00    +0.000 A 
ATOM     12  C   UNL     1       6.296   5.286  17.714  0.00  0.00    +0.000 A 
ATOM     13  H   UNL     1       6.833   5.523  14.588  0.00  0.00    +0.000 HD
ENDBRANCH   1  10
BRANCH   1  14
ATOM     14  S   UNL     1       2.354   3.554  19.958  0.00  0.00    +0.000 S 
ATOM     15  O   UNL     1       1.630   2.753  18.994  0.00  0.00    +0.000 OA
ATOM     16  O   UNL     1       2.051   3.477  21.371  0.00  0.00    +0.000 OA
BRANCH  14  17
ATOM     17  C   UNL     1       2.221   5.254  19.447  0.00  0.00    +0.000 A 
ATOM     18  C   UNL     1       2.184   6.273  20.404  0.00  0.00    +0.000 A 
ATOM     19  C   UNL     1       2.097   7.605  19.988  0.00  0.00    +0.000 A 
ATOM     20  C   UNL     1       2.059   7.907  18.626  0.00  0.00    +0.000 A 
ATOM     21 CL   UNL     1       1.947   9.547  18.117  0.00  0.00    +0.000 Cl
ATOM     22  C   UNL     1       2.112   6.890  17.671  0.00  0.00    +0.000 A 
ATOM     23  C   UNL     1       2.201   5.559  18.081  0.00  0.00    +0.000 A 
ENDBRANCH  14  17
ENDBRANCH   1  14
TORSDOF 3
ENDMDL
MODEL 7
REMARK VINA RESULT:      -7.4      4.084      7.009
REMARK  Name = 
REMARK  4 active torsions:
REMARK  status: ('A' for Active; 'I' for Inactive)
REMARK    1  A    between atoms: C_1  and  C_2
REMARK    2  A    between atoms: C_8  and  N_9
REMARK    3  A    between atoms: N_9  and  S_10
REMARK    4  A    between atoms: S_10  and  C_13
REMARK                            x       y       z     vdW  Elec       q    Type
REMARK                         _______ _______ _______ _____ _____    ______ ____
ROOT
ATOM      1  N   UNL     1       3.199   6.356  19.564  0.00  0.00    +0.000 N 
ATOM      2  H   UNL     1       3.790   6.232  20.384  0.00  0.00    +0.000 HD
ENDROOT
BRANCH   1  10
ATOM      3  C   UNL     1      -0.309   9.389  22.822  0.00  0.00    +0.000 C 
ATOM      4  C   UNL     1      -0.057   9.697  21.394  0.00  0.00    +0.000 A 
ATOM      5  N   UNL     1      -0.662  10.731  20.796  0.00  0.00    +0.000 NA
ATOM      6  N   UNL     1      -0.193  10.693  19.536  0.00  0.00    +0.000 N 
ATOM      7  C   UNL     1       0.693   9.677  19.297  0.00  0.00    +0.000 A 
ATOM      8  C   UNL     1       1.396   9.299  18.148  0.00  0.00    +0.000 A 
ATOM      9  C   UNL     1       2.242   8.186  18.257  0.00  0.00    +0.000 A 
ATOM     10  C   UNL     1       2.366   7.495  19.461  0.00  0.00    +0.000 A 
ATOM     11  C   UNL     1       1.643   7.880  20.593  0.00  0.00    +0.000 A 
ATOM     12  C   UNL     1       0.800   9.000  20.505  0.00  0.00    +0.000 A 
ATOM     13  H   UNL     1      -0.520  11.396  18.883  0.00  0.00    +0.000 HD
ENDBRANCH   1  10
BRANCH   1  14
ATOM     14  S   UNL     1       2.833   4.955  18.721  0.00  0.00    +0.000 S 
ATOM     15  O   UNL     1       3.130   3.858  19.616  0.00  0.00    +0.000 OA
ATOM     16  O   UNL     1       1.529   5.084  18.106  0.00  0.00    +0.000 OA
BRANCH  14  17
ATOM     17  C   UNL     1       4.061   4.939  17.432  0.00  0.00    +0.000 A 
ATOM     18  C   UNL     1       4.538   3.722  16.933  0.00  0.00    +0.000 A 
ATOM     19  C   UNL     1       5.490   3.725  15.908  0.00  0.00    +0.000 A 
ATOM     20  C   UNL     1       5.947   4.936  15.387  0.00  0.00    +0.000 A 
ATOM     21 CL   UNL     1       7.122   4.936  14.130  0.00  0.00    +0.000 Cl
ATOM     22  C   UNL     1       5.459   6.149  15.875  0.00  0.00    +0.000 A 
ATOM     23  C   UNL     1       4.507   6.153  16.896  0.00  0.00    +0.000 A 
ENDBRANCH  14  17
ENDBRANCH   1  14
TORSDOF 3
ENDMDL
MODEL 8
REMARK VINA RESULT:      -7.3      3.808      6.511
REMARK  Name = 
REMARK  4 active torsions:
REMARK  status: ('A' for Active; 'I' for Inactive)
REMARK    1  A    between atoms: C_1  and  C_2
REMARK    2  A    between atoms: C_8  and  N_9
REMARK    3  A    between atoms: N_9  and  S_10
REMARK    4  A    between atoms: S_10  and  C_13
REMARK                            x       y       z     vdW  Elec       q    Type
REMARK                         _______ _______ _______ _____ _____    ______ ____
ROOT
ATOM      1  N   UNL     1       3.409   4.794  18.921  0.00  0.00    +0.000 N 
ATOM      2  H   UNL     1       2.845   4.036  18.542  0.00  0.00    +0.000 HD
ENDROOT
BRANCH   1  10
ATOM      3  C   UNL     1       0.580   8.561  22.070  0.00  0.00    +0.000 C 
ATOM      4  C   UNL     1       1.060   8.849  20.697  0.00  0.00    +0.000 A 
ATOM      5  N   UNL     1       0.842  10.040  20.127  0.00  0.00    +0.000 NA
ATOM      6  N   UNL     1       1.413   9.926  18.914  0.00  0.00    +0.000 N 
ATOM      7  C   UNL     1       1.993   8.708  18.680  0.00  0.00    +0.000 A 
ATOM      8  C   UNL     1       2.679   8.195  17.573  0.00  0.00    +0.000 A 
ATOM      9  C   UNL     1       3.157   6.881  17.674  0.00  0.00    +0.000 A 
ATOM     10  C   UNL     1       2.950   6.129  18.829  0.00  0.00    +0.000 A 
ATOM     11  C   UNL     1       2.249   6.655  19.918  0.00  0.00    +0.000 A 
ATOM     12  C   UNL     1       1.774   7.974  19.838  0.00  0.00    +0.000 A 
ATOM     13  H   UNL     1       1.370  10.722  18.289  0.00  0.00    +0.000 HD
ENDBRANCH   1  10
BRANCH   1  14
ATOM     14  S   UNL     1       5.045   4.465  19.078  0.00  0.00    +0.000 S 
ATOM     15  O   UNL     1       5.630   5.632  19.703  0.00  0.00    +0.000 OA
ATOM     16  O   UNL     1       5.225   3.146  19.644  0.00  0.00    +0.000 OA
BRANCH  14  17
ATOM     17  C   UNL     1       5.603   4.431  17.387  0.00  0.00    +0.000 A 
ATOM     18  C   UNL     1       4.738   4.010  16.372  0.00  0.00    +0.000 A 
ATOM     19  C   UNL     1       5.183   4.006  15.046  0.00  0.00    +0.000 A 
ATOM     20  C   UNL     1       6.479   4.429  14.747  0.00  0.00    +0.000 A 
ATOM     21 CL   UNL     1       7.026   4.417  13.115  0.00  0.00    +0.000 Cl
ATOM     22  C   UNL     1       7.336   4.863  15.758  0.00  0.00    +0.000 A 
ATOM     23  C   UNL     1       6.896   4.873  17.083  0.00  0.00    +0.000 A 
ENDBRANCH  14  17
ENDBRANCH   1  14
TORSDOF 3
ENDMDL
MODEL 9
REMARK VINA RESULT:      -7.3      3.826      6.535
REMARK  Name = 
REMARK  4 active torsions:
REMARK  status: ('A' for Active; 'I' for Inactive)
REMARK    1  A    between atoms: C_1  and  C_2
REMARK    2  A    between atoms: C_8  and  N_9
REMARK    3  A    between atoms: N_9  and  S_10
REMARK    4  A    between atoms: S_10  and  C_13
REMARK                            x       y       z     vdW  Elec       q    Type
REMARK                         _______ _______ _______ _____ _____    ______ ____
ROOT
ATOM      1  N   UNL     1       3.366   4.848  18.887  0.00  0.00    +0.000 N 
ATOM      2  H   UNL     1       2.803   4.099  18.491  0.00  0.00    +0.000 HD
ENDROOT
BRANCH   1  10
ATOM      3  C   UNL     1       0.548   8.586  22.082  0.00  0.00    +0.000 C 
ATOM      4  C   UNL     1       1.032   8.890  20.714  0.00  0.00    +0.000 A 
ATOM      5  N   UNL     1       0.820  10.089  20.159  0.00  0.00    +0.000 NA
ATOM      6  N   UNL     1       1.393   9.989  18.946  0.00  0.00    +0.000 N 
ATOM      7  C   UNL     1       1.969   8.772  18.696  0.00  0.00    +0.000 A 
ATOM      8  C   UNL     1       2.654   8.270  17.584  0.00  0.00    +0.000 A 
ATOM      9  C   UNL     1       3.125   6.953  17.668  0.00  0.00    +0.000 A 
ATOM     10  C   UNL     1       2.913   6.187  18.813  0.00  0.00    +0.000 A 
ATOM     11  C   UNL     1       2.212   6.701  19.907  0.00  0.00    +0.000 A 
ATOM     12  C   UNL     1       1.744   8.023  19.845  0.00  0.00    +0.000 A 
ATOM     13  H   UNL     1       1.356  10.794  18.331  0.00  0.00    +0.000 HD
ENDBRANCH   1  10
BRANCH   1  14
ATOM     14  S   UNL     1       4.999   4.511  19.055  0.00  0.00    +0.000 S 
ATOM     15  O   UNL     1       5.583   5.667  19.701  0.00  0.00    +0.000 OA
ATOM     16  O   UNL     1       5.168   3.183  19.606  0.00  0.00    +0.000 OA
BRANCH  14  17
ATOM     17  C   UNL     1       5.573   4.495  17.370  0.00  0.00    +0.000 A 
ATOM     18  C   UNL     1       6.880   4.892  17.070  0.00  0.00    +0.000 A 
ATOM     19  C   UNL     1       7.322   4.857  15.744  0.00  0.00    +0.000 A 
ATOM     20  C   UNL     1       6.463   4.420  14.735  0.00  0.00    +0.000 A 
ATOM     21 CL   UNL     1       7.009   4.383  13.104  0.00  0.00    +0.000 Cl
ATOM     22  C   UNL     1       5.164   4.009  15.037  0.00  0.00    +0.000 A 
ATOM     23  C   UNL     1       4.718   4.038  16.360  0.00  0.00    +0.000 A 
ENDBRANCH  14  17
ENDBRANCH   1  14
TORSDOF 3
ENDMDL
