MODEL 1
REMARK VINA RESULT:      -7.9      0.000      0.000
REMARK  Name = 
REMARK  5 active torsions:
REMARK  status: ('A' for Active; 'I' for Inactive)
REMARK    1  A    between atoms: C_1  and  C_2
REMARK    2  A    between atoms: N_6  and  C_7
REMARK    3  A    between atoms: C_7  and  C_8
REMARK    4  A    between atoms: N_10  and  C_11
REMARK    5  A    between atoms: N_27  and  C_28
REMARK                            x       y       z     vdW  Elec       q    Type
REMARK                         _______ _______ _______ _____ _____    ______ ____
ROOT
ATOM      1  C   UNL     1       0.621   7.343  21.397  0.00  0.00    +0.000 C 
ATOM      2  C   UNL     1       1.593   7.356  20.273  0.00  0.00    +0.000 A 
ATOM      3  C   UNL     1       2.243   6.327  19.632  0.00  0.00    +0.000 A 
ATOM      4  C   UNL     1       2.895   6.909  18.510  0.00  0.00    +0.000 A 
ATOM      5  N   UNL     1       2.738   8.239  18.501  0.00  0.00    +0.000 NA
ATOM      6  N   UNL     1       1.907   8.482  19.546  0.00  0.00    +0.000 N 
ATOM      7  C   UNL     1       3.675   6.136  17.544  0.00  0.00    +0.000 A 
ATOM      8  C   UNL     1       4.586   6.743  16.673  0.00  0.00    +0.000 A 
ATOM      9  C   UNL     1       5.397   5.963  15.845  0.00  0.00    +0.000 A 
ATOM     10  C   UNL     1       5.303   4.567  15.853  0.00  0.00    +0.000 A 
ATOM     11  C   UNL     1       4.381   3.949  16.688  0.00  0.00    +0.000 A 
ATOM     12  C   UNL     1       3.565   4.735  17.513  0.00  0.00    +0.000 A 
ATOM     13  S   UNL     1       2.389   3.911  18.568  0.00  0.00    +0.000 S 
ATOM     14  O   UNL     1       1.129   3.922  17.857  0.00  0.00    +0.000 OA
ATOM     15  O   UNL     1       3.008   2.668  18.985  0.00  0.00    +0.000 OA
ATOM     16  N   UNL     1       2.281   4.955  19.897  0.00  0.00    +0.000 N 
ATOM     17  C   UNL     1       2.369   4.401  21.246  0.00  0.00    +0.000 C 
ENDROOT
BRANCH   6  18
ATOM     18  C   UNL     1       1.296   9.796  19.642  0.00  0.00    +0.000 C 
BRANCH  18  19
ATOM     19  C   UNL     1       0.245  10.078  18.597  0.00  0.00    +0.000 C 
ATOM     20  O   UNL     1       0.590  10.528  17.502  0.00  0.00    +0.000 OA
ATOM     21  N   UNL     1      -1.077   9.906  18.982  0.00  0.00    +0.000 N 
ATOM     22  H   UNL     1      -1.278   9.944  19.980  0.00  0.00    +0.000 HD
BRANCH  21  23
ATOM     23  C   UNL     1      -2.146  10.277  18.121  0.00  0.00    +0.000 A 
ATOM     24  C   UNL     1      -2.346   9.620  16.899  0.00  0.00    +0.000 A 
ATOM     25  C   UNL     1      -3.302  10.080  15.991  0.00  0.00    +0.000 A 
ATOM     26  C   UNL     1      -4.069  11.202  16.296  0.00  0.00    +0.000 A 
ATOM     27  C   UNL     1      -3.919  11.830  17.534  0.00  0.00    +0.000 A 
ATOM     28  C   UNL     1      -2.982  11.352  18.455  0.00  0.00    +0.000 A 
ATOM     29 CL   UNL     1      -2.808  12.180  19.962  0.00  0.00    +0.000 Cl
ENDBRANCH  21  23
ENDBRANCH  18  19
ENDBRANCH   6  18
TORSDOF 3
ENDMDL
MODEL 2
REMARK VINA RESULT:      -7.5      4.574      9.315
REMARK  Name = 
REMARK  5 active torsions:
REMARK  status: ('A' for Active; 'I' for Inactive)
REMARK    1  A    between atoms: C_1  and  C_2
REMARK    2  A    between atoms: N_6  and  C_7
REMARK    3  A    between atoms: C_7  and  C_8
REMARK    4  A    between atoms: N_10  and  C_11
REMARK    5  A    between atoms: N_27  and  C_28
REMARK                            x       y       z     vdW  Elec       q    Type
REMARK                         _______ _______ _______ _____ _____    ______ ____
ROOT
ATOM      1  C   UNL     1       1.004  11.602  20.310  0.00  0.00    +0.000 C 
ATOM      2  C   UNL     1      -0.023  11.604  21.384  0.00  0.00    +0.000 A 
ATOM      3  C   UNL     1      -1.193  12.317  21.510  0.00  0.00    +0.000 A 
ATOM      4  C   UNL     1      -1.869  11.773  22.637  0.00  0.00    +0.000 A 
ATOM      5  N   UNL     1      -1.122  10.836  23.237  0.00  0.00    +0.000 NA
ATOM      6  N   UNL     1      -0.034  10.715  22.435  0.00  0.00    +0.000 N 
ATOM      7  C   UNL     1      -3.179  12.238  23.090  0.00  0.00    +0.000 A 
ATOM      8  C   UNL     1      -3.661  11.957  24.372  0.00  0.00    +0.000 A 
ATOM      9  C   UNL     1      -4.865  12.515  24.810  0.00  0.00    +0.000 A 
ATOM     10  C   UNL     1      -5.621  13.343  23.975  0.00  0.00    +0.000 A 
ATOM     11  C   UNL     1      -5.173  13.607  22.687  0.00  0.00    +0.000 A 
ATOM     12  C   UNL     1      -3.968  13.041  22.249  0.00  0.00    +0.000 A 
ATOM     13  S   UNL     1      -3.425  13.395  20.589  0.00  0.00    +0.000 S 
ATOM     14  O   UNL     1      -3.868  12.285  19.772  0.00  0.00    +0.000 OA
ATOM     15  O   UNL     1      -3.835  14.755  20.300  0.00  0.00    +0.000 OA
ATOM     16  N   UNL     1      -1.737  13.338  20.726  0.00  0.00    +0.000 N 
ATOM     17  C   UNL     1      -0.940  14.417  20.146  0.00  0.00    +0.000 C 
ENDROOT
BRANCH   6  18
ATOM     18  C   UNL     1       0.839   9.572  22.636  0.00  0.00    +0.000 C 
BRANCH  18  19
ATOM     19  C   UNL     1       0.720   8.497  21.585  0.00  0.00    +0.000 C 
ATOM     20  O   UNL     1      -0.398   8.083  21.272  0.00  0.00    +0.000 OA
ATOM     21  N   UNL     1       1.907   7.963  21.104  0.00  0.00    +0.000 N 
ATOM     22  H   UNL     1       2.730   8.055  21.695  0.00  0.00    +0.000 HD
BRANCH  21  23
ATOM     23  C   UNL     1       1.904   6.851  20.216  0.00  0.00    +0.000 A 
ATOM     24  C   UNL     1       1.667   5.553  20.690  0.00  0.00    +0.000 A 
ATOM     25  C   UNL     1       1.809   4.450  19.846  0.00  0.00    +0.000 A 
ATOM     26  C   UNL     1       2.188   4.633  18.519  0.00  0.00    +0.000 A 
ATOM     27  C   UNL     1       2.369   5.925  18.020  0.00  0.00    +0.000 A 
ATOM     28  C   UNL     1       2.200   7.032  18.858  0.00  0.00    +0.000 A 
ATOM     29 CL   UNL     1       2.467   8.609  18.206  0.00  0.00    +0.000 Cl
ENDBRANCH  21  23
ENDBRANCH  18  19
ENDBRANCH   6  18
TORSDOF 3
ENDMDL
MODEL 3
REMARK VINA RESULT:      -7.4      2.811      3.281
REMARK  Name = 
REMARK  5 active torsions:
REMARK  status: ('A' for Active; 'I' for Inactive)
REMARK    1  A    between atoms: C_1  and  C_2
REMARK    2  A    between atoms: N_6  and  C_7
REMARK    3  A    between atoms: C_7  and  C_8
REMARK    4  A    between atoms: N_10  and  C_11
REMARK    5  A    between atoms: N_27  and  C_28
REMARK                            x       y       z     vdW  Elec       q    Type
REMARK                         _______ _______ _______ _____ _____    ______ ____
ROOT
ATOM      1  C   UNL     1       1.532   3.862  21.692  0.00  0.00    +0.000 C 
ATOM      2  C   UNL     1       2.172   4.729  20.670  0.00  0.00    +0.000 A 
ATOM      3  C   UNL     1       2.958   4.414  19.585  0.00  0.00    +0.000 A 
ATOM      4  C   UNL     1       3.122   5.620  18.851  0.00  0.00    +0.000 A 
ATOM      5  N   UNL     1       2.550   6.651  19.488  0.00  0.00    +0.000 NA
ATOM      6  N   UNL     1       1.939   6.081  20.558  0.00  0.00    +0.000 N 
ATOM      7  C   UNL     1       3.873   5.703  17.600  0.00  0.00    +0.000 A 
ATOM      8  C   UNL     1       4.324   6.924  17.086  0.00  0.00    +0.000 A 
ATOM      9  C   UNL     1       5.137   6.954  15.950  0.00  0.00    +0.000 A 
ATOM     10  C   UNL     1       5.499   5.774  15.292  0.00  0.00    +0.000 A 
ATOM     11  C   UNL     1       5.034   4.555  15.769  0.00  0.00    +0.000 A 
ATOM     12  C   UNL     1       4.214   4.529  16.906  0.00  0.00    +0.000 A 
ATOM     13  S   UNL     1       3.630   2.950  17.489  0.00  0.00    +0.000 S 
ATOM     14  O   UNL     1       2.308   2.774  16.928  0.00  0.00    +0.000 OA
ATOM     15  O   UNL     1       4.691   1.996  17.232  0.00  0.00    +0.000 OA
ATOM     16  N   UNL     1       3.492   3.194  19.160  0.00  0.00    +0.000 N 
ATOM     17  C   UNL     1       4.051   2.199  20.072  0.00  0.00    +0.000 C 
ENDROOT
BRANCH   6  18
ATOM     18  C   UNL     1       0.977   6.878  21.299  0.00  0.00    +0.000 C 
BRANCH  18  19
ATOM     19  C   UNL     1       1.161   8.369  21.168  0.00  0.00    +0.000 C 
ATOM     20  O   UNL     1       1.801   8.974  22.030  0.00  0.00    +0.000 OA
ATOM     21  N   UNL     1       0.498   8.988  20.118  0.00  0.00    +0.000 N 
ATOM     22  H   UNL     1      -0.309   8.504  19.730  0.00  0.00    +0.000 HD
BRANCH  21  23
ATOM     23  C   UNL     1       0.493  10.404  19.987  0.00  0.00    +0.000 A 
ATOM     24  C   UNL     1      -0.270  11.203  20.851  0.00  0.00    +0.000 A 
ATOM     25  C   UNL     1      -0.390  12.576  20.630  0.00  0.00    +0.000 A 
ATOM     26  C   UNL     1       0.254  13.166  19.545  0.00  0.00    +0.000 A 
ATOM     27  C   UNL     1       1.064  12.391  18.713  0.00  0.00    +0.000 A 
ATOM     28  C   UNL     1       1.206  11.020  18.950  0.00  0.00    +0.000 A 
ATOM     29 CL   UNL     1       2.193  10.095  17.874  0.00  0.00    +0.000 Cl
ENDBRANCH  21  23
ENDBRANCH  18  19
ENDBRANCH   6  18
TORSDOF 3
ENDMDL
MODEL 4
REMARK VINA RESULT:      -7.4      4.558      9.212
REMARK  Name = 
REMARK  5 active torsions:
REMARK  status: ('A' for Active; 'I' for Inactive)
REMARK    1  A    between atoms: C_1  and  C_2
REMARK    2  A    between atoms: N_6  and  C_7
REMARK    3  A    between atoms: C_7  and  C_8
REMARK    4  A    between atoms: N_10  and  C_11
REMARK    5  A    between atoms: N_27  and  C_28
REMARK                            x       y       z     vdW  Elec       q    Type
REMARK                         _______ _______ _______ _____ _____    ______ ____
ROOT
ATOM      1  C   UNL     1      -0.575  13.410  22.330  0.00  0.00    +0.000 C 
ATOM      2  C   UNL     1      -1.584  12.939  21.346  0.00  0.00    +0.000 A 
ATOM      3  C   UNL     1      -2.943  12.762  21.463  0.00  0.00    +0.000 A 
ATOM      4  C   UNL     1      -3.420  12.483  20.153  0.00  0.00    +0.000 A 
ATOM      5  N   UNL     1      -2.406  12.398  19.281  0.00  0.00    +0.000 NA
ATOM      6  N   UNL     1      -1.312  12.726  20.013  0.00  0.00    +0.000 N 
ATOM      7  C   UNL     1      -4.832  12.264  19.842  0.00  0.00    +0.000 A 
ATOM      8  C   UNL     1      -5.241  11.651  18.653  0.00  0.00    +0.000 A 
ATOM      9  C   UNL     1      -6.591  11.354  18.442  0.00  0.00    +0.000 A 
ATOM     10  C   UNL     1      -7.558  11.679  19.397  0.00  0.00    +0.000 A 
ATOM     11  C   UNL     1      -7.173  12.317  20.570  0.00  0.00    +0.000 A 
ATOM     12  C   UNL     1      -5.820  12.619  20.776  0.00  0.00    +0.000 A 
ATOM     13  S   UNL     1      -5.361  13.443  22.288  0.00  0.00    +0.000 S 
ATOM     14  O   UNL     1      -5.295  14.855  21.976  0.00  0.00    +0.000 OA
ATOM     15  O   UNL     1      -6.246  12.940  23.319  0.00  0.00    +0.000 OA
ATOM     16  N   UNL     1      -3.793  12.867  22.568  0.00  0.00    +0.000 N 
ATOM     17  C   UNL     1      -3.441  12.382  23.901  0.00  0.00    +0.000 C 
ENDROOT
BRANCH   6  18
ATOM     18  C   UNL     1      -0.078  13.019  19.304  0.00  0.00    +0.000 C 
BRANCH  18  19
ATOM     19  C   UNL     1       0.911  11.882  19.268  0.00  0.00    +0.000 C 
ATOM     20  O   UNL     1       2.114  12.133  19.165  0.00  0.00    +0.000 OA
ATOM     21  N   UNL     1       0.383  10.599  19.248  0.00  0.00    +0.000 N 
ATOM     22  H   UNL     1      -0.575  10.496  18.920  0.00  0.00    +0.000 HD
BRANCH  21  23
ATOM     23  C   UNL     1       1.223   9.463  19.074  0.00  0.00    +0.000 A 
ATOM     24  C   UNL     1       1.774   9.163  17.820  0.00  0.00    +0.000 A 
ATOM     25  C   UNL     1       2.475   7.972  17.618  0.00  0.00    +0.000 A 
ATOM     26  C   UNL     1       2.633   7.070  18.668  0.00  0.00    +0.000 A 
ATOM     27  C   UNL     1       2.140   7.386  19.935  0.00  0.00    +0.000 A 
ATOM     28  C   UNL     1       1.462   8.591  20.145  0.00  0.00    +0.000 A 
ATOM     29 CL   UNL     1       0.840   8.925  21.722  0.00  0.00    +0.000 Cl
ENDBRANCH  21  23
ENDBRANCH  18  19
ENDBRANCH   6  18
TORSDOF 3
ENDMDL
MODEL 5
REMARK VINA RESULT:      -7.4      2.962      4.497
REMARK  Name = 
REMARK  5 active torsions:
REMARK  status: ('A' for Active; 'I' for Inactive)
REMARK    1  A    between atoms: C_1  and  C_2
REMARK    2  A    between atoms: N_6  and  C_7
REMARK    3  A    between atoms: C_7  and  C_8
REMARK    4  A    between atoms: N_10  and  C_11
REMARK    5  A    between atoms: N_27  and  C_28
REMARK                            x       y       z     vdW  Elec       q    Type
REMARK                         _______ _______ _______ _____ _____    ______ ____
ROOT
ATOM      1  C   UNL     1       4.643   7.523  16.194  0.00  0.00    +0.000 C 
ATOM      2  C   UNL     1       3.730   6.953  17.219  0.00  0.00    +0.000 A 
ATOM      3  C   UNL     1       3.756   5.746  17.878  0.00  0.00    +0.000 A 
ATOM      4  C   UNL     1       2.754   5.823  18.884  0.00  0.00    +0.000 A 
ATOM      5  N   UNL     1       2.076   6.975  18.799  0.00  0.00    +0.000 NA
ATOM      6  N   UNL     1       2.715   7.664  17.819  0.00  0.00    +0.000 N 
ATOM      7  C   UNL     1       2.484   4.743  19.833  0.00  0.00    +0.000 A 
ATOM      8  C   UNL     1       1.293   4.680  20.563  0.00  0.00    +0.000 A 
ATOM      9  C   UNL     1       1.020   3.574  21.373  0.00  0.00    +0.000 A 
ATOM     10  C   UNL     1       1.934   2.522  21.488  0.00  0.00    +0.000 A 
ATOM     11  C   UNL     1       3.137   2.584  20.794  0.00  0.00    +0.000 A 
ATOM     12  C   UNL     1       3.410   3.697  19.987  0.00  0.00    +0.000 A 
ATOM     13  S   UNL     1       4.964   3.746  19.117  0.00  0.00    +0.000 S 
ATOM     14  O   UNL     1       5.864   4.526  19.938  0.00  0.00    +0.000 OA
ATOM     15  O   UNL     1       5.274   2.380  18.746  0.00  0.00    +0.000 OA
ATOM     16  N   UNL     1       4.584   4.631  17.722  0.00  0.00    +0.000 N 
ATOM     17  C   UNL     1       5.014   4.125  16.421  0.00  0.00    +0.000 C 
ENDROOT
BRANCH   6  18
ATOM     18  C   UNL     1       2.418   9.078  17.674  0.00  0.00    +0.000 C 
BRANCH  18  19
ATOM     19  C   UNL     1       1.305   9.581  18.560  0.00  0.00    +0.000 C 
ATOM     20  O   UNL     1       0.191   9.780  18.071  0.00  0.00    +0.000 OA
ATOM     21  N   UNL     1       1.644   9.890  19.869  0.00  0.00    +0.000 N 
ATOM     22  H   UNL     1       2.623  10.093  20.059  0.00  0.00    +0.000 HD
BRANCH  21  23
ATOM     23  C   UNL     1       0.704  10.502  20.744  0.00  0.00    +0.000 A 
ATOM     24  C   UNL     1       0.542  11.894  20.766  0.00  0.00    +0.000 A 
ATOM     25  C   UNL     1      -0.271  12.501  21.726  0.00  0.00    +0.000 A 
ATOM     26  C   UNL     1      -0.933  11.722  22.671  0.00  0.00    +0.000 A 
ATOM     27  C   UNL     1      -0.826  10.331  22.623  0.00  0.00    +0.000 A 
ATOM     28  C   UNL     1      -0.034   9.721  21.645  0.00  0.00    +0.000 A 
ATOM     29 CL   UNL     1       0.095   7.998  21.644  0.00  0.00    +0.000 Cl
ENDBRANCH  21  23
ENDBRANCH  18  19
ENDBRANCH   6  18
TORSDOF 3
ENDMDL
MODEL 6
REMARK VINA RESULT:      -7.4      4.812      9.651
REMARK  Name = 
REMARK  5 active torsions:
REMARK  status: ('A' for Active; 'I' for Inactive)
REMARK    1  A    between atoms: C_1  and  C_2
REMARK    2  A    between atoms: N_6  and  C_7
REMARK    3  A    between atoms: C_7  and  C_8
REMARK    4  A    between atoms: N_10  and  C_11
REMARK    5  A    between atoms: N_27  and  C_28
REMARK                            x       y       z     vdW  Elec       q    Type
REMARK                         _______ _______ _______ _____ _____    ______ ____
ROOT
ATOM      1  C   UNL     1      -5.611  12.405  17.084  0.00  0.00    +0.000 C 
ATOM      2  C   UNL     1      -4.801  12.521  18.324  0.00  0.00    +0.000 A 
ATOM      3  C   UNL     1      -5.173  12.786  19.622  0.00  0.00    +0.000 A 
ATOM      4  C   UNL     1      -4.011  12.581  20.416  0.00  0.00    +0.000 A 
ATOM      5  N   UNL     1      -2.950  12.295  19.649  0.00  0.00    +0.000 NA
ATOM      6  N   UNL     1      -3.461  12.215  18.394  0.00  0.00    +0.000 N 
ATOM      7  C   UNL     1      -3.996  12.729  21.870  0.00  0.00    +0.000 A 
ATOM      8  C   UNL     1      -2.804  12.877  22.587  0.00  0.00    +0.000 A 
ATOM      9  C   UNL     1      -2.834  13.132  23.961  0.00  0.00    +0.000 A 
ATOM     10  C   UNL     1      -4.047  13.224  24.650  0.00  0.00    +0.000 A 
ATOM     11  C   UNL     1      -5.240  13.047  23.960  0.00  0.00    +0.000 A 
ATOM     12  C   UNL     1      -5.206  12.787  22.583  0.00  0.00    +0.000 A 
ATOM     13  S   UNL     1      -6.754  12.560  21.729  0.00  0.00    +0.000 S 
ATOM     14  O   UNL     1      -6.978  11.132  21.667  0.00  0.00    +0.000 OA
ATOM     15  O   UNL     1      -7.710  13.446  22.363  0.00  0.00    +0.000 OA
ATOM     16  N   UNL     1      -6.410  13.133  20.172  0.00  0.00    +0.000 N 
ATOM     17  C   UNL     1      -7.341  14.060  19.533  0.00  0.00    +0.000 C 
ENDROOT
BRANCH   6  18
ATOM     18  C   UNL     1      -2.631  11.628  17.356  0.00  0.00    +0.000 C 
BRANCH  18  19
ATOM     19  C   UNL     1      -1.735  10.509  17.825  0.00  0.00    +0.000 C 
ATOM     20  O   UNL     1      -2.226   9.401  18.052  0.00  0.00    +0.000 OA
ATOM     21  N   UNL     1      -0.410  10.836  18.072  0.00  0.00    +0.000 N 
ATOM     22  H   UNL     1      -0.200  11.814  18.260  0.00  0.00    +0.000 HD
BRANCH  21  23
ATOM     23  C   UNL     1       0.483   9.890  18.649  0.00  0.00    +0.000 A 
ATOM     24  C   UNL     1       1.329   9.115  17.843  0.00  0.00    +0.000 A 
ATOM     25  C   UNL     1       2.096   8.088  18.397  0.00  0.00    +0.000 A 
ATOM     26  C   UNL     1       2.027   7.826  19.763  0.00  0.00    +0.000 A 
ATOM     27  C   UNL     1       1.233   8.629  20.584  0.00  0.00    +0.000 A 
ATOM     28  C   UNL     1       0.486   9.675  20.034  0.00  0.00    +0.000 A 
ATOM     29 CL   UNL     1      -0.507  10.622  21.085  0.00  0.00    +0.000 Cl
ENDBRANCH  21  23
ENDBRANCH  18  19
ENDBRANCH   6  18
TORSDOF 3
ENDMDL
MODEL 7
REMARK VINA RESULT:      -7.3      3.585      8.284
REMARK  Name = 
REMARK  5 active torsions:
REMARK  status: ('A' for Active; 'I' for Inactive)
REMARK    1  A    between atoms: C_1  and  C_2
REMARK    2  A    between atoms: N_6  and  C_7
REMARK    3  A    between atoms: C_7  and  C_8
REMARK    4  A    between atoms: N_10  and  C_11
REMARK    5  A    between atoms: N_27  and  C_28
REMARK                            x       y       z     vdW  Elec       q    Type
REMARK                         _______ _______ _______ _____ _____    ______ ____
ROOT
ATOM      1  C   UNL     1       1.871   9.495  21.771  0.00  0.00    +0.000 C 
ATOM      2  C   UNL     1       0.841   9.698  20.720  0.00  0.00    +0.000 A 
ATOM      3  C   UNL     1      -0.350  10.386  20.746  0.00  0.00    +0.000 A 
ATOM      4  C   UNL     1      -0.823  10.408  19.405  0.00  0.00    +0.000 A 
ATOM      5  N   UNL     1      -0.022   9.696  18.601  0.00  0.00    +0.000 NA
ATOM      6  N   UNL     1       1.003   9.319  19.406  0.00  0.00    +0.000 N 
ATOM      7  C   UNL     1      -2.058  11.079  19.000  0.00  0.00    +0.000 A 
ATOM      8  C   UNL     1      -2.687  10.800  17.782  0.00  0.00    +0.000 A 
ATOM      9  C   UNL     1      -3.925  11.374  17.480  0.00  0.00    +0.000 A 
ATOM     10  C   UNL     1      -4.549  12.252  18.373  0.00  0.00    +0.000 A 
ATOM     11  C   UNL     1      -3.922  12.566  19.572  0.00  0.00    +0.000 A 
ATOM     12  C   UNL     1      -2.678  11.992  19.870  0.00  0.00    +0.000 A 
ATOM     13  S   UNL     1      -1.900  12.421  21.414  0.00  0.00    +0.000 S 
ATOM     14  O   UNL     1      -0.973  13.492  21.118  0.00  0.00    +0.000 OA
ATOM     15  O   UNL     1      -2.966  12.592  22.381  0.00  0.00    +0.000 OA
ATOM     16  N   UNL     1      -1.023  11.021  21.793  0.00  0.00    +0.000 N 
ATOM     17  C   UNL     1      -1.114  10.469  23.142  0.00  0.00    +0.000 C 
ENDROOT
BRANCH   6  18
ATOM     18  C   UNL     1       2.199   8.780  18.782  0.00  0.00    +0.000 C 
BRANCH  18  19
ATOM     19  C   UNL     1       2.276   7.274  18.767  0.00  0.00    +0.000 C 
ATOM     20  O   UNL     1       2.041   6.669  17.719  0.00  0.00    +0.000 OA
ATOM     21  N   UNL     1       2.510   6.651  19.985  0.00  0.00    +0.000 N 
ATOM     22  H   UNL     1       2.278   7.175  20.826  0.00  0.00    +0.000 HD
BRANCH  21  23
ATOM     23  C   UNL     1       2.463   5.235  20.105  0.00  0.00    +0.000 A 
ATOM     24  C   UNL     1       1.300   4.589  20.549  0.00  0.00    +0.000 A 
ATOM     25  C   UNL     1       1.301   3.217  20.806  0.00  0.00    +0.000 A 
ATOM     26  C   UNL     1       2.464   2.474  20.620  0.00  0.00    +0.000 A 
ATOM     27  C   UNL     1       3.612   3.095  20.122  0.00  0.00    +0.000 A 
ATOM     28  C   UNL     1       3.603   4.464  19.838  0.00  0.00    +0.000 A 
ATOM     29 CL   UNL     1       5.056   5.196  19.254  0.00  0.00    +0.000 Cl
ENDBRANCH  21  23
ENDBRANCH  18  19
ENDBRANCH   6  18
TORSDOF 3
ENDMDL
MODEL 8
REMARK VINA RESULT:      -7.3      3.580      8.322
REMARK  Name = 
REMARK  5 active torsions:
REMARK  status: ('A' for Active; 'I' for Inactive)
REMARK    1  A    between atoms: C_1  and  C_2
REMARK    2  A    between atoms: N_6  and  C_7
REMARK    3  A    between atoms: C_7  and  C_8
REMARK    4  A    between atoms: N_10  and  C_11
REMARK    5  A    between atoms: N_27  and  C_28
REMARK                            x       y       z     vdW  Elec       q    Type
REMARK                         _______ _______ _______ _____ _____    ______ ____
ROOT
ATOM      1  C   UNL     1       1.590  10.294  21.443  0.00  0.00    +0.000 C 
ATOM      2  C   UNL     1       0.570  10.188  20.368  0.00  0.00    +0.000 A 
ATOM      3  C   UNL     1      -0.675  10.761  20.247  0.00  0.00    +0.000 A 
ATOM      4  C   UNL     1      -1.119  10.468  18.928  0.00  0.00    +0.000 A 
ATOM      5  N   UNL     1      -0.243   9.678  18.292  0.00  0.00    +0.000 NA
ATOM      6  N   UNL     1       0.792   9.563  19.161  0.00  0.00    +0.000 N 
ATOM      7  C   UNL     1      -2.396  10.933  18.388  0.00  0.00    +0.000 A 
ATOM      8  C   UNL     1      -2.973  10.356  17.252  0.00  0.00    +0.000 A 
ATOM      9  C   UNL     1      -4.247  10.748  16.833  0.00  0.00    +0.000 A 
ATOM     10  C   UNL     1      -4.962  11.732  17.523  0.00  0.00    +0.000 A 
ATOM     11  C   UNL     1      -4.390  12.338  18.635  0.00  0.00    +0.000 A 
ATOM     12  C   UNL     1      -3.109  11.947  19.049  0.00  0.00    +0.000 A 
ATOM     13  S   UNL     1      -2.403  12.748  20.476  0.00  0.00    +0.000 S 
ATOM     14  O   UNL     1      -1.563  13.812  19.969  0.00  0.00    +0.000 OA
ATOM     15  O   UNL     1      -3.501  13.022  21.382  0.00  0.00    +0.000 OA
ATOM     16  N   UNL     1      -1.421  11.537  21.138  0.00  0.00    +0.000 N 
ATOM     17  C   UNL     1      -1.495  11.267  22.572  0.00  0.00    +0.000 C 
ENDROOT
BRANCH   6  18
ATOM     18  C   UNL     1       2.042   9.013  18.666  0.00  0.00    +0.000 C 
BRANCH  18  19
ATOM     19  C   UNL     1       2.200   7.528  18.872  0.00  0.00    +0.000 C 
ATOM     20  O   UNL     1       2.194   7.076  20.019  0.00  0.00    +0.000 OA
ATOM     21  N   UNL     1       2.450   6.766  17.740  0.00  0.00    +0.000 N 
ATOM     22  H   UNL     1       2.845   7.247  16.935  0.00  0.00    +0.000 HD
BRANCH  21  23
ATOM     23  C   UNL     1       2.753   5.379  17.842  0.00  0.00    +0.000 A 
ATOM     24  C   UNL     1       1.730   4.421  17.884  0.00  0.00    +0.000 A 
ATOM     25  C   UNL     1       2.022   3.079  18.131  0.00  0.00    +0.000 A 
ATOM     26  C   UNL     1       3.340   2.679  18.335  0.00  0.00    +0.000 A 
ATOM     27  C   UNL     1       4.373   3.613  18.237  0.00  0.00    +0.000 A 
ATOM     28  C   UNL     1       4.083   4.954  17.963  0.00  0.00    +0.000 A 
ATOM     29 CL   UNL     1       5.390   6.081  17.883  0.00  0.00    +0.000 Cl
ENDBRANCH  21  23
ENDBRANCH  18  19
ENDBRANCH   6  18
TORSDOF 3
ENDMDL
MODEL 9
REMARK VINA RESULT:      -7.2      4.736      8.584
REMARK  Name = 
REMARK  5 active torsions:
REMARK  status: ('A' for Active; 'I' for Inactive)
REMARK    1  A    between atoms: C_1  and  C_2
REMARK    2  A    between atoms: N_6  and  C_7
REMARK    3  A    between atoms: C_7  and  C_8
REMARK    4  A    between atoms: N_10  and  C_11
REMARK    5  A    between atoms: N_27  and  C_28
REMARK                            x       y       z     vdW  Elec       q    Type
REMARK                         _______ _______ _______ _____ _____    ______ ____
ROOT
ATOM      1  C   UNL     1      -1.229  10.439  23.190  0.00  0.00    +0.000 C 
ATOM      2  C   UNL     1      -0.350  11.119  22.204  0.00  0.00    +0.000 A 
ATOM      3  C   UNL     1      -0.367  12.405  21.717  0.00  0.00    +0.000 A 
ATOM      4  C   UNL     1       0.823  12.555  20.953  0.00  0.00    +0.000 A 
ATOM      5  N   UNL     1       1.500  11.401  20.889  0.00  0.00    +0.000 NA
ATOM      6  N   UNL     1       0.801  10.561  21.692  0.00  0.00    +0.000 N 
ATOM      7  C   UNL     1       1.199  13.802  20.289  0.00  0.00    +0.000 A 
ATOM      8  C   UNL     1       2.158  13.839  19.271  0.00  0.00    +0.000 A 
ATOM      9  C   UNL     1       2.408  15.028  18.580  0.00  0.00    +0.000 A 
ATOM     10  C   UNL     1       1.725  16.205  18.902  0.00  0.00    +0.000 A 
ATOM     11  C   UNL     1       0.793  16.194  19.933  0.00  0.00    +0.000 A 
ATOM     12  C   UNL     1       0.549  15.001  20.627  0.00  0.00    +0.000 A 
ATOM     13  S   UNL     1      -0.649  15.024  21.946  0.00  0.00    +0.000 S 
ATOM     14  O   UNL     1       0.100  15.206  23.171  0.00  0.00    +0.000 OA
ATOM     15  O   UNL     1      -1.684  15.958  21.550  0.00  0.00    +0.000 OA
ATOM     16  N   UNL     1      -1.275  13.450  21.911  0.00  0.00    +0.000 N 
ATOM     17  C   UNL     1      -2.723  13.260  21.946  0.00  0.00    +0.000 C 
ENDROOT
BRANCH   6  18
ATOM     18  C   UNL     1       1.426   9.308  22.081  0.00  0.00    +0.000 C 
BRANCH  18  19
ATOM     19  C   UNL     1       1.109   8.142  21.179  0.00  0.00    +0.000 C 
ATOM     20  O   UNL     1      -0.070   7.859  20.953  0.00  0.00    +0.000 OA
ATOM     21  N   UNL     1       2.186   7.387  20.737  0.00  0.00    +0.000 N 
ATOM     22  H   UNL     1       3.041   7.431  21.288  0.00  0.00    +0.000 HD
BRANCH  21  23
ATOM     23  C   UNL     1       1.987   6.188  19.998  0.00  0.00    +0.000 A 
ATOM     24  C   UNL     1       1.497   5.032  20.623  0.00  0.00    +0.000 A 
ATOM     25  C   UNL     1       1.441   3.819  19.932  0.00  0.00    +0.000 A 
ATOM     26  C   UNL     1       1.872   3.750  18.610  0.00  0.00    +0.000 A 
ATOM     27  C   UNL     1       2.306   4.907  17.959  0.00  0.00    +0.000 A 
ATOM     28  C   UNL     1       2.336   6.127  18.642  0.00  0.00    +0.000 A 
ATOM     29 CL   UNL     1       2.911   7.526  17.807  0.00  0.00    +0.000 Cl
ENDBRANCH  21  23
ENDBRANCH  18  19
ENDBRANCH   6  18
TORSDOF 3
ENDMDL
