MODEL 1
REMARK VINA RESULT:      -6.6      0.000      0.000
REMARK  Name = 
REMARK  0 active torsions:
REMARK  status: ('A' for Active; 'I' for Inactive)
REMARK                            x       y       z     vdW  Elec       q    Type
REMARK                         _______ _______ _______ _____ _____    ______ ____
ROOT
ATOM      1  C   UNL     1       5.653   4.058  15.799  0.00  0.00    +0.000 C 
ATOM      2  C   UNL     1       5.070   3.964  16.999  0.00  0.00    +0.000 C 
ATOM      3  C   UNL     1       3.712   3.462  17.305  0.00  0.00    +0.000 C 
ATOM      4  C   UNL     1       3.422   4.119  18.656  0.00  0.00    +0.000 C 
ATOM      5  C   UNL     1       2.751   5.504  18.502  0.00  0.00    +0.000 C 
ATOM      6  C   UNL     1       2.403   6.145  19.848  0.00  0.00    +0.000 C 
ATOM      7  C   UNL     1       1.547   5.223  20.706  0.00  0.00    +0.000 C 
ATOM      8  C   UNL     1       2.233   3.875  20.920  0.00  0.00    +0.000 C 
ATOM      9  C   UNL     1       2.633   3.196  19.607  0.00  0.00    +0.000 C 
ATOM     10 BR   UNL     1       1.009   2.479  18.751  0.00  0.00    +0.000 Br
ATOM     11  O   UNL     1       4.737   4.327  19.234  0.00  0.00    +0.000 OA
ATOM     12  C   UNL     1       5.704   4.364  18.272  0.00  0.00    +0.000 C 
ATOM     13  O   UNL     1       6.874   4.644  18.444  0.00  0.00    +0.000 OA
ENDROOT
TORSDOF 0
ENDMDL
MODEL 2
REMARK VINA RESULT:      -6.5      2.132      2.894
REMARK  Name = 
REMARK  0 active torsions:
REMARK  status: ('A' for Active; 'I' for Inactive)
REMARK                            x       y       z     vdW  Elec       q    Type
REMARK                         _______ _______ _______ _____ _____    ______ ____
ROOT
ATOM      1  C   UNL     1       7.629   4.705  17.794  0.00  0.00    +0.000 C 
ATOM      2  C   UNL     1       6.310   4.636  17.588  0.00  0.00    +0.000 C 
ATOM      3  C   UNL     1       5.230   5.063  18.506  0.00  0.00    +0.000 C 
ATOM      4  C   UNL     1       4.041   4.237  18.011  0.00  0.00    +0.000 C 
ATOM      5  C   UNL     1       3.945   2.866  18.719  0.00  0.00    +0.000 C 
ATOM      6  C   UNL     1       2.724   2.056  18.274  0.00  0.00    +0.000 C 
ATOM      7  C   UNL     1       1.432   2.843  18.444  0.00  0.00    +0.000 C 
ATOM      8  C   UNL     1       1.492   4.171  17.692  0.00  0.00    +0.000 C 
ATOM      9  C   UNL     1       2.711   5.017  18.074  0.00  0.00    +0.000 C 
ATOM     10 BR   UNL     1       2.402   5.793  19.859  0.00  0.00    +0.000 Br
ATOM     11  O   UNL     1       4.342   3.992  16.612  0.00  0.00    +0.000 OA
ATOM     12  C   UNL     1       5.680   4.098  16.365  0.00  0.00    +0.000 C 
ATOM     13  O   UNL     1       6.237   3.829  15.319  0.00  0.00    +0.000 OA
ENDROOT
TORSDOF 0
ENDMDL
MODEL 3
REMARK VINA RESULT:      -6.3      2.627      3.744
REMARK  Name = 
REMARK  0 active torsions:
REMARK  status: ('A' for Active; 'I' for Inactive)
REMARK                            x       y       z     vdW  Elec       q    Type
REMARK                         _______ _______ _______ _____ _____    ______ ____
ROOT
ATOM      1  C   UNL     1       8.325   7.679  18.425  0.00  0.00    +0.000 C 
ATOM      2  C   UNL     1       7.574   6.589  18.235  0.00  0.00    +0.000 C 
ATOM      3  C   UNL     1       6.918   6.151  16.983  0.00  0.00    +0.000 C 
ATOM      4  C   UNL     1       5.798   5.248  17.503  0.00  0.00    +0.000 C 
ATOM      5  C   UNL     1       4.494   6.031  17.778  0.00  0.00    +0.000 C 
ATOM      6  C   UNL     1       3.349   5.127  18.243  0.00  0.00    +0.000 C 
ATOM      7  C   UNL     1       3.098   3.987  17.265  0.00  0.00    +0.000 C 
ATOM      8  C   UNL     1       4.366   3.166  17.039  0.00  0.00    +0.000 C 
ATOM      9  C   UNL     1       5.558   4.021  16.599  0.00  0.00    +0.000 C 
ATOM     10 BR   UNL     1       5.298   4.540  14.716  0.00  0.00    +0.000 Br
ATOM     11  O   UNL     1       6.300   4.765  18.777  0.00  0.00    +0.000 OA
ATOM     12  C   UNL     1       7.253   5.601  19.285  0.00  0.00    +0.000 C 
ATOM     13  O   UNL     1       7.760   5.519  20.386  0.00  0.00    +0.000 OA
ENDROOT
TORSDOF 0
ENDMDL
MODEL 4
REMARK VINA RESULT:      -6.2      2.196      2.996
REMARK  Name = 
REMARK  0 active torsions:
REMARK  status: ('A' for Active; 'I' for Inactive)
REMARK                            x       y       z     vdW  Elec       q    Type
REMARK                         _______ _______ _______ _____ _____    ______ ____
ROOT
ATOM      1  C   UNL     1       7.464   7.049  17.636  0.00  0.00    +0.000 C 
ATOM      2  C   UNL     1       6.557   6.083  17.456  0.00  0.00    +0.000 C 
ATOM      3  C   UNL     1       5.112   6.131  17.773  0.00  0.00    +0.000 C 
ATOM      4  C   UNL     1       4.761   4.648  17.905  0.00  0.00    +0.000 C 
ATOM      5  C   UNL     1       4.945   4.129  19.350  0.00  0.00    +0.000 C 
ATOM      6  C   UNL     1       4.539   2.661  19.506  0.00  0.00    +0.000 C 
ATOM      7  C   UNL     1       3.117   2.414  19.020  0.00  0.00    +0.000 C 
ATOM      8  C   UNL     1       2.945   2.862  17.570  0.00  0.00    +0.000 C 
ATOM      9  C   UNL     1       3.362   4.318  17.344  0.00  0.00    +0.000 C 
ATOM     10 BR   UNL     1       1.974   5.494  18.101  0.00  0.00    +0.000 Br
ATOM     11  O   UNL     1       5.741   3.980  17.067  0.00  0.00    +0.000 OA
ATOM     12  C   UNL     1       6.854   4.750  16.892  0.00  0.00    +0.000 C 
ATOM     13  O   UNL     1       7.882   4.405  16.345  0.00  0.00    +0.000 OA
ENDROOT
TORSDOF 0
ENDMDL
MODEL 5
REMARK VINA RESULT:      -6.2      1.954      2.300
REMARK  Name = 
REMARK  0 active torsions:
REMARK  status: ('A' for Active; 'I' for Inactive)
REMARK                            x       y       z     vdW  Elec       q    Type
REMARK                         _______ _______ _______ _____ _____    ______ ____
ROOT
ATOM      1  C   UNL     1       6.116   4.043  14.695  0.00  0.00    +0.000 C 
ATOM      2  C   UNL     1       5.516   4.404  15.834  0.00  0.00    +0.000 C 
ATOM      3  C   UNL     1       5.229   3.555  17.012  0.00  0.00    +0.000 C 
ATOM      4  C   UNL     1       4.082   4.312  17.684  0.00  0.00    +0.000 C 
ATOM      5  C   UNL     1       2.698   3.861  17.164  0.00  0.00    +0.000 C 
ATOM      6  C   UNL     1       1.541   4.570  17.873  0.00  0.00    +0.000 C 
ATOM      7  C   UNL     1       1.626   4.416  19.385  0.00  0.00    +0.000 C 
ATOM      8  C   UNL     1       2.966   4.922  19.916  0.00  0.00    +0.000 C 
ATOM      9  C   UNL     1       4.166   4.268  19.224  0.00  0.00    +0.000 C 
ATOM     10 BR   UNL     1       4.350   2.424  19.894  0.00  0.00    +0.000 Br
ATOM     11  O   UNL     1       4.282   5.690  17.271  0.00  0.00    +0.000 OA
ATOM     12  C   UNL     1       5.014   5.764  16.121  0.00  0.00    +0.000 C 
ATOM     13  O   UNL     1       5.234   6.770  15.478  0.00  0.00    +0.000 OA
ENDROOT
TORSDOF 0
ENDMDL
MODEL 6
REMARK VINA RESULT:      -6.2      2.517      3.948
REMARK  Name = 
REMARK  0 active torsions:
REMARK  status: ('A' for Active; 'I' for Inactive)
REMARK                            x       y       z     vdW  Elec       q    Type
REMARK                         _______ _______ _______ _____ _____    ______ ____
ROOT
ATOM      1  C   UNL     1       2.141   8.779  17.840  0.00  0.00    +0.000 C 
ATOM      2  C   UNL     1       2.553   7.587  18.284  0.00  0.00    +0.000 C 
ATOM      3  C   UNL     1       3.365   6.585  17.559  0.00  0.00    +0.000 C 
ATOM      4  C   UNL     1       3.017   5.291  18.299  0.00  0.00    +0.000 C 
ATOM      5  C   UNL     1       1.792   4.576  17.685  0.00  0.00    +0.000 C 
ATOM      6  C   UNL     1       1.471   3.250  18.381  0.00  0.00    +0.000 C 
ATOM      7  C   UNL     1       2.679   2.323  18.411  0.00  0.00    +0.000 C 
ATOM      8  C   UNL     1       3.876   2.999  19.078  0.00  0.00    +0.000 C 
ATOM      9  C   UNL     1       4.229   4.347  18.442  0.00  0.00    +0.000 C 
ATOM     10 BR   UNL     1       5.105   4.014  16.709  0.00  0.00    +0.000 Br
ATOM     11  O   UNL     1       2.647   5.738  19.630  0.00  0.00    +0.000 OA
ATOM     12  C   UNL     1       2.252   7.044  19.625  0.00  0.00    +0.000 C 
ATOM     13  O   UNL     1       1.775   7.649  20.564  0.00  0.00    +0.000 OA
ENDROOT
TORSDOF 0
ENDMDL
MODEL 7
REMARK VINA RESULT:      -6.2      2.049      4.112
REMARK  Name = 
REMARK  0 active torsions:
REMARK  status: ('A' for Active; 'I' for Inactive)
REMARK                            x       y       z     vdW  Elec       q    Type
REMARK                         _______ _______ _______ _____ _____    ______ ____
ROOT
ATOM      1  C   UNL     1       1.984   2.360  20.452  0.00  0.00    +0.000 C 
ATOM      2  C   UNL     1       2.916   3.154  19.915  0.00  0.00    +0.000 C 
ATOM      3  C   UNL     1       2.720   4.479  19.286  0.00  0.00    +0.000 C 
ATOM      4  C   UNL     1       3.956   4.599  18.392  0.00  0.00    +0.000 C 
ATOM      5  C   UNL     1       3.715   4.019  16.979  0.00  0.00    +0.000 C 
ATOM      6  C   UNL     1       4.926   4.187  16.057  0.00  0.00    +0.000 C 
ATOM      7  C   UNL     1       5.376   5.640  15.977  0.00  0.00    +0.000 C 
ATOM      8  C   UNL     1       5.681   6.201  17.364  0.00  0.00    +0.000 C 
ATOM      9  C   UNL     1       4.514   6.036  18.342  0.00  0.00    +0.000 C 
ATOM     10 BR   UNL     1       3.118   7.347  17.881  0.00  0.00    +0.000 Br
ATOM     11  O   UNL     1       4.946   3.764  19.049  0.00  0.00    +0.000 OA
ATOM     12  C   UNL     1       4.356   2.829  19.850  0.00  0.00    +0.000 C 
ATOM     13  O   UNL     1       4.923   1.922  20.425  0.00  0.00    +0.000 OA
ENDROOT
TORSDOF 0
ENDMDL
MODEL 8
REMARK VINA RESULT:      -6.1      2.598      4.499
REMARK  Name = 
REMARK  0 active torsions:
REMARK  status: ('A' for Active; 'I' for Inactive)
REMARK                            x       y       z     vdW  Elec       q    Type
REMARK                         _______ _______ _______ _____ _____    ______ ____
ROOT
ATOM      1  C   UNL     1       1.412   3.707  18.898  0.00  0.00    +0.000 C 
ATOM      2  C   UNL     1       2.379   4.572  18.574  0.00  0.00    +0.000 C 
ATOM      3  C   UNL     1       3.340   4.474  17.453  0.00  0.00    +0.000 C 
ATOM      4  C   UNL     1       4.485   5.369  17.929  0.00  0.00    +0.000 C 
ATOM      5  C   UNL     1       5.537   4.589  18.751  0.00  0.00    +0.000 C 
ATOM      6  C   UNL     1       6.718   5.463  19.182  0.00  0.00    +0.000 C 
ATOM      7  C   UNL     1       7.367   6.160  17.994  0.00  0.00    +0.000 C 
ATOM      8  C   UNL     1       6.348   6.988  17.215  0.00  0.00    +0.000 C 
ATOM      9  C   UNL     1       5.127   6.173  16.779  0.00  0.00    +0.000 C 
ATOM     10 BR   UNL     1       5.652   5.009  15.278  0.00  0.00    +0.000 Br
ATOM     11  O   UNL     1       3.841   6.316  18.822  0.00  0.00    +0.000 OA
ATOM     12  C   UNL     1       2.667   5.821  19.310  0.00  0.00    +0.000 C 
ATOM     13  O   UNL     1       1.976   6.335  20.167  0.00  0.00    +0.000 OA
ENDROOT
TORSDOF 0
ENDMDL
MODEL 9
REMARK VINA RESULT:      -6.1      1.314      1.512
REMARK  Name = 
REMARK  0 active torsions:
REMARK  status: ('A' for Active; 'I' for Inactive)
REMARK                            x       y       z     vdW  Elec       q    Type
REMARK                         _______ _______ _______ _____ _____    ______ ____
ROOT
ATOM      1  C   UNL     1       7.061   5.867  17.023  0.00  0.00    +0.000 C 
ATOM      2  C   UNL     1       6.286   5.194  17.880  0.00  0.00    +0.000 C 
ATOM      3  C   UNL     1       5.104   4.361  17.568  0.00  0.00    +0.000 C 
ATOM      4  C   UNL     1       4.348   4.360  18.898  0.00  0.00    +0.000 C 
ATOM      5  C   UNL     1       3.350   5.535  19.006  0.00  0.00    +0.000 C 
ATOM      6  C   UNL     1       2.546   5.510  20.308  0.00  0.00    +0.000 C 
ATOM      7  C   UNL     1       1.835   4.177  20.506  0.00  0.00    +0.000 C 
ATOM      8  C   UNL     1       2.825   3.014  20.468  0.00  0.00    +0.000 C 
ATOM      9  C   UNL     1       3.681   3.002  19.198  0.00  0.00    +0.000 C 
ATOM     10 BR   UNL     1       2.565   2.387  17.695  0.00  0.00    +0.000 Br
ATOM     11  O   UNL     1       5.387   4.570  19.891  0.00  0.00    +0.000 OA
ATOM     12  C   UNL     1       6.484   5.171  19.345  0.00  0.00    +0.000 C 
ATOM     13  O   UNL     1       7.453   5.577  19.954  0.00  0.00    +0.000 OA
ENDROOT
TORSDOF 0
ENDMDL
