MODEL 1
REMARK VINA RESULT:      -8.8      0.000      0.000
REMARK  Name = 
REMARK  6 active torsions:
REMARK  status: ('A' for Active; 'I' for Inactive)
REMARK    1  A    between atoms: C_2  and  C_14
REMARK    2  A    between atoms: N_3  and  C_4
REMARK    3  A    between atoms: C_4  and  C_5
REMARK    4  A    between atoms: C_17  and  C_18
REMARK    5  A    between atoms: N_20  and  C_21
REMARK    6  A    between atoms: C_21  and  C_22
REMARK                            x       y       z     vdW  Elec       q    Type
REMARK                         _______ _______ _______ _____ _____    ______ ____
ROOT
ATOM      1  C   UNL     1       1.952   7.534  19.623  0.00  0.00    +0.000 A 
ATOM      2  C   UNL     1       1.471   7.647  20.928  0.00  0.00    +0.000 A 
ATOM      3  C   UNL     1       0.869   8.839  21.331  0.00  0.00    +0.000 A 
ATOM      4  C   UNL     1       0.768   9.885  20.416  0.00  0.00    +0.000 A 
ATOM      5  N   UNL     1       1.248   9.818  19.143  0.00  0.00    +0.000 NA
ATOM      6  C   UNL     1       1.837   8.643  18.787  0.00  0.00    +0.000 A 
ENDROOT
BRANCH   1   8
ATOM      7  O   UNL     1       2.107   5.721  18.151  0.00  0.00    +0.000 OA
ATOM      8  C   UNL     1       2.597   6.301  19.110  0.00  0.00    +0.000 C 
ATOM      9  N   UNL     1       3.716   5.865  19.786  0.00  0.00    +0.000 N 
ATOM     10  H   UNL     1       4.000   6.311  20.647  0.00  0.00    +0.000 HD
BRANCH   9  11
ATOM     11  C   UNL     1       4.409   4.648  19.422  0.00  0.00    +0.000 C 
BRANCH  11  12
ATOM     12  C   UNL     1       5.302   4.867  18.226  0.00  0.00    +0.000 A 
ATOM     13  C   UNL     1       6.392   5.763  18.320  0.00  0.00    +0.000 A 
ATOM     14  C   UNL     1       7.223   6.008  17.222  0.00  0.00    +0.000 A 
ATOM     15  C   UNL     1       6.950   5.340  16.049  0.00  0.00    +0.000 A 
ATOM     16  C   UNL     1       5.903   4.454  15.951  0.00  0.00    +0.000 A 
ATOM     17  C   UNL     1       5.068   4.190  17.017  0.00  0.00    +0.000 A 
ATOM     18  O   UNL     1       5.805   3.906  14.710  0.00  0.00    +0.000 OA
ATOM     19  C   UNL     1       6.885   4.580  14.028  0.00  0.00    +0.000 C 
ATOM     20  O   UNL     1       7.639   5.464  14.883  0.00  0.00    +0.000 OA
ENDBRANCH  11  12
ENDBRANCH   9  11
ENDBRANCH   1   8
BRANCH   4  21
ATOM     21  C   UNL     1       0.102  11.159  20.841  0.00  0.00    +0.000 C 
ATOM     22  O   UNL     1       0.535  11.799  21.792  0.00  0.00    +0.000 OA
ATOM     23  N   UNL     1      -1.000  11.538  20.103  0.00  0.00    +0.000 N 
ATOM     24  H   UNL     1      -1.267  10.945  19.325  0.00  0.00    +0.000 HD
BRANCH  23  25
ATOM     25  C   UNL     1      -1.705  12.773  20.353  0.00  0.00    +0.000 C 
BRANCH  25  26
ATOM     26  C   UNL     1      -3.200  12.578  20.369  0.00  0.00    +0.000 A 
ATOM     27  C   UNL     1      -3.880  12.230  19.177  0.00  0.00    +0.000 A 
ATOM     28  C   UNL     1      -5.261  12.005  19.172  0.00  0.00    +0.000 A 
ATOM     29  C   UNL     1      -5.937  12.145  20.363  0.00  0.00    +0.000 A 
ATOM     30  C   UNL     1      -5.291  12.499  21.524  0.00  0.00    +0.000 A 
ATOM     31  C   UNL     1      -3.929  12.725  21.560  0.00  0.00    +0.000 A 
ATOM     32  O   UNL     1      -6.138  12.581  22.585  0.00  0.00    +0.000 OA
ATOM     33  C   UNL     1      -7.394  12.252  21.954  0.00  0.00    +0.000 C 
ATOM     34  O   UNL     1      -7.272  11.959  20.548  0.00  0.00    +0.000 OA
ENDBRANCH  25  26
ENDBRANCH  23  25
ENDBRANCH   4  21
TORSDOF 6
ENDMDL
MODEL 2
REMARK VINA RESULT:      -8.8      0.810      1.439
REMARK  Name = 
REMARK  6 active torsions:
REMARK  status: ('A' for Active; 'I' for Inactive)
REMARK    1  A    between atoms: C_2  and  C_14
REMARK    2  A    between atoms: N_3  and  C_4
REMARK    3  A    between atoms: C_4  and  C_5
REMARK    4  A    between atoms: C_17  and  C_18
REMARK    5  A    between atoms: N_20  and  C_21
REMARK    6  A    between atoms: C_21  and  C_22
REMARK                            x       y       z     vdW  Elec       q    Type
REMARK                         _______ _______ _______ _____ _____    ______ ____
ROOT
ATOM      1  C   UNL     1       2.031   7.375  19.612  0.00  0.00    +0.000 A 
ATOM      2  C   UNL     1       1.574   7.457  20.928  0.00  0.00    +0.000 A 
ATOM      3  C   UNL     1       0.934   8.620  21.356  0.00  0.00    +0.000 A 
ATOM      4  C   UNL     1       0.771   9.669  20.453  0.00  0.00    +0.000 A 
ATOM      5  N   UNL     1       1.225   9.633  19.170  0.00  0.00    +0.000 NA
ATOM      6  C   UNL     1       1.853   8.486  18.790  0.00  0.00    +0.000 A 
ENDROOT
BRANCH   1   8
ATOM      7  O   UNL     1       2.269   5.628  18.073  0.00  0.00    +0.000 OA
ATOM      8  C   UNL     1       2.713   6.174  19.073  0.00  0.00    +0.000 C 
ATOM      9  N   UNL     1       3.813   5.725  19.773  0.00  0.00    +0.000 N 
ATOM     10  H   UNL     1       4.057   6.138  20.661  0.00  0.00    +0.000 HD
BRANCH   9  11
ATOM     11  C   UNL     1       4.538   4.534  19.385  0.00  0.00    +0.000 C 
BRANCH  11  12
ATOM     12  C   UNL     1       5.403   4.793  18.177  0.00  0.00    +0.000 A 
ATOM     13  C   UNL     1       6.420   5.775  18.240  0.00  0.00    +0.000 A 
ATOM     14  C   UNL     1       7.222   6.057  17.130  0.00  0.00    +0.000 A 
ATOM     15  C   UNL     1       6.995   5.340  15.976  0.00  0.00    +0.000 A 
ATOM     16  C   UNL     1       6.021   4.371  15.908  0.00  0.00    +0.000 A 
ATOM     17  C   UNL     1       5.216   4.069  16.988  0.00  0.00    +0.000 A 
ATOM     18  O   UNL     1       5.960   3.786  14.682  0.00  0.00    +0.000 OA
ATOM     19  C   UNL     1       6.979   4.526  13.975  0.00  0.00    +0.000 C 
ATOM     20  O   UNL     1       7.665   5.488  14.802  0.00  0.00    +0.000 OA
ENDBRANCH  11  12
ENDBRANCH   9  11
ENDBRANCH   1   8
BRANCH   4  21
ATOM     21  C   UNL     1       0.063  10.911  20.905  0.00  0.00    +0.000 C 
ATOM     22  O   UNL     1       0.270  11.373  22.022  0.00  0.00    +0.000 OA
ATOM     23  N   UNL     1      -0.809  11.472  19.996  0.00  0.00    +0.000 N 
ATOM     24  H   UNL     1      -0.896  11.019  19.092  0.00  0.00    +0.000 HD
BRANCH  23  25
ATOM     25  C   UNL     1      -1.514  12.703  20.265  0.00  0.00    +0.000 C 
BRANCH  25  26
ATOM     26  C   UNL     1      -3.004  12.553  20.094  0.00  0.00    +0.000 A 
ATOM     27  C   UNL     1      -3.883  13.058  21.082  0.00  0.00    +0.000 A 
ATOM     28  C   UNL     1      -5.271  12.966  20.930  0.00  0.00    +0.000 A 
ATOM     29  C   UNL     1      -5.752  12.358  19.792  0.00  0.00    +0.000 A 
ATOM     30  C   UNL     1      -4.908  11.850  18.832  0.00  0.00    +0.000 A 
ATOM     31  C   UNL     1      -3.535  11.927  18.954  0.00  0.00    +0.000 A 
ATOM     32  O   UNL     1      -5.582  11.295  17.790  0.00  0.00    +0.000 OA
ATOM     33  C   UNL     1      -6.947  11.500  18.211  0.00  0.00    +0.000 C 
ATOM     34  O   UNL     1      -7.063  12.189  19.472  0.00  0.00    +0.000 OA
ENDBRANCH  25  26
ENDBRANCH  23  25
ENDBRANCH   4  21
TORSDOF 6
ENDMDL
MODEL 3
REMARK VINA RESULT:      -8.7      1.003     11.608
REMARK  Name = 
REMARK  6 active torsions:
REMARK  status: ('A' for Active; 'I' for Inactive)
REMARK    1  A    between atoms: C_2  and  C_14
REMARK    2  A    between atoms: N_3  and  C_4
REMARK    3  A    between atoms: C_4  and  C_5
REMARK    4  A    between atoms: C_17  and  C_18
REMARK    5  A    between atoms: N_20  and  C_21
REMARK    6  A    between atoms: C_21  and  C_22
REMARK                            x       y       z     vdW  Elec       q    Type
REMARK                         _______ _______ _______ _____ _____    ______ ____
ROOT
ATOM      1  C   UNL     1       0.746   9.697  20.519  0.00  0.00    +0.000 A 
ATOM      2  C   UNL     1       1.194   9.634  19.199  0.00  0.00    +0.000 A 
ATOM      3  C   UNL     1       1.822   8.473  18.748  0.00  0.00    +0.000 A 
ATOM      4  C   UNL     1       1.983   7.409  19.633  0.00  0.00    +0.000 A 
ATOM      5  N   UNL     1       1.580   7.445  20.934  0.00  0.00    +0.000 NA
ATOM      6  C   UNL     1       0.980   8.597  21.342  0.00  0.00    +0.000 A 
ENDROOT
BRANCH   1   8
ATOM      7  O   UNL     1       0.169  11.141  22.269  0.00  0.00    +0.000 OA
ATOM      8  C   UNL     1       0.061  10.889  21.077  0.00  0.00    +0.000 C 
ATOM      9  N   UNL     1      -0.695  11.633  20.196  0.00  0.00    +0.000 N 
ATOM     10  H   UNL     1      -0.851  11.306  19.254  0.00  0.00    +0.000 HD
BRANCH   9  11
ATOM     11  C   UNL     1      -1.456  12.788  20.622  0.00  0.00    +0.000 C 
BRANCH  11  12
ATOM     12  C   UNL     1      -2.920  12.624  20.299  0.00  0.00    +0.000 A 
ATOM     13  C   UNL     1      -3.895  13.141  21.184  0.00  0.00    +0.000 A 
ATOM     14  C   UNL     1      -5.261  12.983  20.928  0.00  0.00    +0.000 A 
ATOM     15  C   UNL     1      -5.625  12.315  19.780  0.00  0.00    +0.000 A 
ATOM     16  C   UNL     1      -4.686  11.823  18.903  0.00  0.00    +0.000 A 
ATOM     17  C   UNL     1      -3.332  11.966  19.128  0.00  0.00    +0.000 A 
ATOM     18  O   UNL     1      -5.253  11.196  17.838  0.00  0.00    +0.000 OA
ATOM     19  C   UNL     1      -6.654  11.316  18.165  0.00  0.00    +0.000 C 
ATOM     20  O   UNL     1      -6.898  12.057  19.378  0.00  0.00    +0.000 OA
ENDBRANCH  11  12
ENDBRANCH   9  11
ENDBRANCH   1   8
BRANCH   4  21
ATOM     21  C   UNL     1       2.638   6.151  19.145  0.00  0.00    +0.000 C 
ATOM     22  O   UNL     1       2.148   5.516  18.217  0.00  0.00    +0.000 OA
ATOM     23  N   UNL     1       3.792   5.778  19.800  0.00  0.00    +0.000 N 
ATOM     24  H   UNL     1       4.122   6.383  20.545  0.00  0.00    +0.000 HD
BRANCH  23  25
ATOM     25  C   UNL     1       4.566   4.627  19.400  0.00  0.00    +0.000 C 
BRANCH  25  26
ATOM     26  C   UNL     1       5.379   4.894  18.159  0.00  0.00    +0.000 A 
ATOM     27  C   UNL     1       6.394   5.881  18.177  0.00  0.00    +0.000 A 
ATOM     28  C   UNL     1       7.189   6.122  17.051  0.00  0.00    +0.000 A 
ATOM     29  C   UNL     1       6.943   5.373  15.922  0.00  0.00    +0.000 A 
ATOM     30  C   UNL     1       5.950   4.422  15.887  0.00  0.00    +0.000 A 
ATOM     31  C   UNL     1       5.152   4.162  16.982  0.00  0.00    +0.000 A 
ATOM     32  O   UNL     1       5.875   3.796  14.682  0.00  0.00    +0.000 OA
ATOM     33  C   UNL     1       6.925   4.472  13.959  0.00  0.00    +0.000 C 
ATOM     34  O   UNL     1       7.618   5.463  14.744  0.00  0.00    +0.000 OA
ENDBRANCH  25  26
ENDBRANCH  23  25
ENDBRANCH   4  21
TORSDOF 6
ENDMDL
MODEL 4
REMARK VINA RESULT:      -8.7      0.930      1.634
REMARK  Name = 
REMARK  6 active torsions:
REMARK  status: ('A' for Active; 'I' for Inactive)
REMARK    1  A    between atoms: C_2  and  C_14
REMARK    2  A    between atoms: N_3  and  C_4
REMARK    3  A    between atoms: C_4  and  C_5
REMARK    4  A    between atoms: C_17  and  C_18
REMARK    5  A    between atoms: N_20  and  C_21
REMARK    6  A    between atoms: C_21  and  C_22
REMARK                            x       y       z     vdW  Elec       q    Type
REMARK                         _______ _______ _______ _____ _____    ______ ____
ROOT
ATOM      1  C   UNL     1       1.996   7.468  19.623  0.00  0.00    +0.000 A 
ATOM      2  C   UNL     1       1.726   8.604  18.859  0.00  0.00    +0.000 A 
ATOM      3  C   UNL     1       1.130   9.709  19.468  0.00  0.00    +0.000 A 
ATOM      4  C   UNL     1       0.821   9.643  20.825  0.00  0.00    +0.000 A 
ATOM      5  N   UNL     1       1.048   8.543  21.595  0.00  0.00    +0.000 NA
ATOM      6  C   UNL     1       1.622   7.480  20.965  0.00  0.00    +0.000 A 
ENDROOT
BRANCH   1   8
ATOM      7  O   UNL     1       2.180   5.756  18.037  0.00  0.00    +0.000 OA
ATOM      8  C   UNL     1       2.634   6.255  19.057  0.00  0.00    +0.000 C 
ATOM      9  N   UNL     1       3.706   5.741  19.757  0.00  0.00    +0.000 N 
ATOM     10  H   UNL     1       3.956   6.119  20.659  0.00  0.00    +0.000 HD
BRANCH   9  11
ATOM     11  C   UNL     1       4.385   4.532  19.344  0.00  0.00    +0.000 C 
BRANCH  11  12
ATOM     12  C   UNL     1       5.287   4.791  18.163  0.00  0.00    +0.000 A 
ATOM     13  C   UNL     1       6.337   5.732  18.276  0.00  0.00    +0.000 A 
ATOM     14  C   UNL     1       7.175   6.013  17.192  0.00  0.00    +0.000 A 
ATOM     15  C   UNL     1       6.948   5.337  16.014  0.00  0.00    +0.000 A 
ATOM     16  C   UNL     1       5.941   4.408  15.897  0.00  0.00    +0.000 A 
ATOM     17  C   UNL     1       5.101   4.107  16.950  0.00  0.00    +0.000 A 
ATOM     18  O   UNL     1       5.886   3.860  14.654  0.00  0.00    +0.000 OA
ATOM     19  C   UNL     1       6.948   4.579  13.991  0.00  0.00    +0.000 C 
ATOM     20  O   UNL     1       7.650   5.492  14.859  0.00  0.00    +0.000 OA
ENDBRANCH  11  12
ENDBRANCH   9  11
ENDBRANCH   1   8
BRANCH   4  21
ATOM     21  C   UNL     1       0.200  10.837  21.487  0.00  0.00    +0.000 C 
ATOM     22  O   UNL     1       0.144  10.909  22.709  0.00  0.00    +0.000 OA
ATOM     23  N   UNL     1      -0.286  11.811  20.641  0.00  0.00    +0.000 N 
ATOM     24  H   UNL     1      -0.175  11.660  19.643  0.00  0.00    +0.000 HD
BRANCH  23  25
ATOM     25  C   UNL     1      -0.852  13.045  21.132  0.00  0.00    +0.000 C 
BRANCH  25  26
ATOM     26  C   UNL     1      -2.295  12.884  21.538  0.00  0.00    +0.000 A 
ATOM     27  C   UNL     1      -2.648  12.896  22.909  0.00  0.00    +0.000 A 
ATOM     28  C   UNL     1      -3.985  12.788  23.312  0.00  0.00    +0.000 A 
ATOM     29  C   UNL     1      -4.941  12.659  22.330  0.00  0.00    +0.000 A 
ATOM     30  C   UNL     1      -4.608  12.629  20.996  0.00  0.00    +0.000 A 
ATOM     31  C   UNL     1      -3.300  12.736  20.569  0.00  0.00    +0.000 A 
ATOM     32  O   UNL     1      -5.698  12.498  20.192  0.00  0.00    +0.000 OA
ATOM     33  C   UNL     1      -6.753  12.433  21.175  0.00  0.00    +0.000 C 
ATOM     34  O   UNL     1      -6.281  12.551  22.533  0.00  0.00    +0.000 OA
ENDBRANCH  25  26
ENDBRANCH  23  25
ENDBRANCH   4  21
TORSDOF 6
ENDMDL
MODEL 5
REMARK VINA RESULT:      -8.7      7.278     10.435
REMARK  Name = 
REMARK  6 active torsions:
REMARK  status: ('A' for Active; 'I' for Inactive)
REMARK    1  A    between atoms: C_2  and  C_14
REMARK    2  A    between atoms: N_3  and  C_4
REMARK    3  A    between atoms: C_4  and  C_5
REMARK    4  A    between atoms: C_17  and  C_18
REMARK    5  A    between atoms: N_20  and  C_21
REMARK    6  A    between atoms: C_21  and  C_22
REMARK                            x       y       z     vdW  Elec       q    Type
REMARK                         _______ _______ _______ _____ _____    ______ ____
ROOT
ATOM      1  C   UNL     1       8.558   9.025  18.425  0.00  0.00    +0.000 A 
ATOM      2  C   UNL     1       8.774   7.881  19.194  0.00  0.00    +0.000 A 
ATOM      3  C   UNL     1       8.198   6.675  18.796  0.00  0.00    +0.000 A 
ATOM      4  C   UNL     1       7.421   6.650  17.640  0.00  0.00    +0.000 A 
ATOM      5  N   UNL     1       7.169   7.751  16.879  0.00  0.00    +0.000 NA
ATOM      6  C   UNL     1       7.739   8.913  17.303  0.00  0.00    +0.000 A 
ENDROOT
BRANCH   1   8
ATOM      7  O   UNL     1       9.626  11.038  17.889  0.00  0.00    +0.000 OA
ATOM      8  C   UNL     1       9.139  10.345  18.771  0.00  0.00    +0.000 C 
ATOM      9  N   UNL     1       9.118  10.697  20.104  0.00  0.00    +0.000 N 
ATOM     10  H   UNL     1       8.820  10.032  20.804  0.00  0.00    +0.000 HD
BRANCH   9  11
ATOM     11  C   UNL     1       9.699  11.932  20.583  0.00  0.00    +0.000 C 
BRANCH  11  12
ATOM     12  C   UNL     1       9.059  12.370  21.877  0.00  0.00    +0.000 A 
ATOM     13  C   UNL     1       9.220  13.703  22.323  0.00  0.00    +0.000 A 
ATOM     14  C   UNL     1       8.660  14.133  23.530  0.00  0.00    +0.000 A 
ATOM     15  C   UNL     1       7.939  13.219  24.265  0.00  0.00    +0.000 A 
ATOM     16  C   UNL     1       7.762  11.925  23.833  0.00  0.00    +0.000 A 
ATOM     17  C   UNL     1       8.299  11.472  22.646  0.00  0.00    +0.000 A 
ATOM     18  O   UNL     1       7.024  11.186  24.705  0.00  0.00    +0.000 OA
ATOM     19  C   UNL     1       6.792  12.153  25.753  0.00  0.00    +0.000 C 
ATOM     20  O   UNL     1       7.339  13.455  25.463  0.00  0.00    +0.000 OA
ENDBRANCH  11  12
ENDBRANCH   9  11
ENDBRANCH   1   8
BRANCH   4  21
ATOM     21  C   UNL     1       6.819   5.349  17.198  0.00  0.00    +0.000 C 
ATOM     22  O   UNL     1       7.535   4.436  16.804  0.00  0.00    +0.000 OA
ATOM     23  N   UNL     1       5.444   5.268  17.265  0.00  0.00    +0.000 N 
ATOM     24  H   UNL     1       4.945   6.077  17.620  0.00  0.00    +0.000 HD
BRANCH  23  25
ATOM     25  C   UNL     1       4.728   4.059  16.933  0.00  0.00    +0.000 C 
BRANCH  25  26
ATOM     26  C   UNL     1       3.613   3.775  17.907  0.00  0.00    +0.000 A 
ATOM     27  C   UNL     1       2.265   3.934  17.505  0.00  0.00    +0.000 A 
ATOM     28  C   UNL     1       1.211   3.640  18.377  0.00  0.00    +0.000 A 
ATOM     29  C   UNL     1       1.530   3.201  19.643  0.00  0.00    +0.000 A 
ATOM     30  C   UNL     1       2.835   3.057  20.050  0.00  0.00    +0.000 A 
ATOM     31  C   UNL     1       3.896   3.338  19.212  0.00  0.00    +0.000 A 
ATOM     32  O   UNL     1       2.932   2.611  21.331  0.00  0.00    +0.000 OA
ATOM     33  C   UNL     1       1.538   2.505  21.688  0.00  0.00    +0.000 C 
ATOM     34  O   UNL     1       0.642   2.862  20.615  0.00  0.00    +0.000 OA
ENDBRANCH  25  26
ENDBRANCH  23  25
ENDBRANCH   4  21
TORSDOF 6
ENDMDL
MODEL 6
REMARK VINA RESULT:      -8.6      1.023     11.816
REMARK  Name = 
REMARK  6 active torsions:
REMARK  status: ('A' for Active; 'I' for Inactive)
REMARK    1  A    between atoms: C_2  and  C_14
REMARK    2  A    between atoms: N_3  and  C_4
REMARK    3  A    between atoms: C_4  and  C_5
REMARK    4  A    between atoms: C_17  and  C_18
REMARK    5  A    between atoms: N_20  and  C_21
REMARK    6  A    between atoms: C_21  and  C_22
REMARK                            x       y       z     vdW  Elec       q    Type
REMARK                         _______ _______ _______ _____ _____    ______ ____
ROOT
ATOM      1  C   UNL     1       0.701   9.636  20.342  0.00  0.00    +0.000 A 
ATOM      2  C   UNL     1       1.203   9.593  19.040  0.00  0.00    +0.000 A 
ATOM      3  C   UNL     1       1.878   8.452  18.608  0.00  0.00    +0.000 A 
ATOM      4  C   UNL     1       2.033   7.386  19.493  0.00  0.00    +0.000 A 
ATOM      5  N   UNL     1       1.577   7.403  20.776  0.00  0.00    +0.000 NA
ATOM      6  C   UNL     1       0.932   8.537  21.166  0.00  0.00    +0.000 A 
ENDROOT
BRANCH   1   8
ATOM      7  O   UNL     1       0.173  11.172  22.027  0.00  0.00    +0.000 OA
ATOM      8  C   UNL     1      -0.036  10.805  20.879  0.00  0.00    +0.000 C 
ATOM      9  N   UNL     1      -0.952  11.396  20.035  0.00  0.00    +0.000 N 
ATOM     10  H   UNL     1      -1.175  10.973  19.146  0.00  0.00    +0.000 HD
BRANCH   9  11
ATOM     11  C   UNL     1      -1.776  12.510  20.452  0.00  0.00    +0.000 C 
BRANCH  11  12
ATOM     12  C   UNL     1      -3.158  12.420  19.855  0.00  0.00    +0.000 A 
ATOM     13  C   UNL     1      -3.349  11.735  18.632  0.00  0.00    +0.000 A 
ATOM     14  C   UNL     1      -4.613  11.656  18.038  0.00  0.00    +0.000 A 
ATOM     15  C   UNL     1      -5.666  12.258  18.689  0.00  0.00    +0.000 A 
ATOM     16  C   UNL     1      -5.495  12.911  19.887  0.00  0.00    +0.000 A 
ATOM     17  C   UNL     1      -4.261  13.004  20.498  0.00  0.00    +0.000 A 
ATOM     18  O   UNL     1      -6.658  13.437  20.359  0.00  0.00    +0.000 OA
ATOM     19  C   UNL     1      -7.571  13.073  19.301  0.00  0.00    +0.000 C 
ATOM     20  O   UNL     1      -6.955  12.293  18.256  0.00  0.00    +0.000 OA
ENDBRANCH  11  12
ENDBRANCH   9  11
ENDBRANCH   1   8
BRANCH   4  21
ATOM     21  C   UNL     1       2.739   6.149  19.023  0.00  0.00    +0.000 C 
ATOM     22  O   UNL     1       2.341   5.546  18.033  0.00  0.00    +0.000 OA
ATOM     23  N   UNL     1       3.830   5.758  19.769  0.00  0.00    +0.000 N 
ATOM     24  H   UNL     1       4.085   6.338  20.562  0.00  0.00    +0.000 HD
BRANCH  23  25
ATOM     25  C   UNL     1       4.646   4.625  19.402  0.00  0.00    +0.000 C 
BRANCH  25  26
ATOM     26  C   UNL     1       5.444   4.882  18.149  0.00  0.00    +0.000 A 
ATOM     27  C   UNL     1       6.471   5.856  18.152  0.00  0.00    +0.000 A 
ATOM     28  C   UNL     1       7.252   6.087  17.014  0.00  0.00    +0.000 A 
ATOM     29  C   UNL     1       6.979   5.343  15.888  0.00  0.00    +0.000 A 
ATOM     30  C   UNL     1       5.973   4.405  15.868  0.00  0.00    +0.000 A 
ATOM     31  C   UNL     1       5.188   4.154  16.975  0.00  0.00    +0.000 A 
ATOM     32  O   UNL     1       5.870   3.781  14.664  0.00  0.00    +0.000 OA
ATOM     33  C   UNL     1       6.917   4.444  13.925  0.00  0.00    +0.000 C 
ATOM     34  O   UNL     1       7.636   5.425  14.700  0.00  0.00    +0.000 OA
ENDBRANCH  25  26
ENDBRANCH  23  25
ENDBRANCH   4  21
TORSDOF 6
ENDMDL
MODEL 7
REMARK VINA RESULT:      -8.6      1.180     11.990
REMARK  Name = 
REMARK  6 active torsions:
REMARK  status: ('A' for Active; 'I' for Inactive)
REMARK    1  A    between atoms: C_2  and  C_14
REMARK    2  A    between atoms: N_3  and  C_4
REMARK    3  A    between atoms: C_4  and  C_5
REMARK    4  A    between atoms: C_17  and  C_18
REMARK    5  A    between atoms: N_20  and  C_21
REMARK    6  A    between atoms: C_21  and  C_22
REMARK                            x       y       z     vdW  Elec       q    Type
REMARK                         _______ _______ _______ _____ _____    ______ ____
ROOT
ATOM      1  C   UNL     1       0.911  10.172  20.578  0.00  0.00    +0.000 A 
ATOM      2  C   UNL     1       1.187  10.034  19.217  0.00  0.00    +0.000 A 
ATOM      3  C   UNL     1       1.696   8.824  18.745  0.00  0.00    +0.000 A 
ATOM      4  C   UNL     1       1.914   7.787  19.650  0.00  0.00    +0.000 A 
ATOM      5  N   UNL     1       1.677   7.894  20.987  0.00  0.00    +0.000 NA
ATOM      6  C   UNL     1       1.191   9.092  21.413  0.00  0.00    +0.000 A 
ENDROOT
BRANCH   1   8
ATOM      7  O   UNL     1       0.709  12.500  20.709  0.00  0.00    +0.000 OA
ATOM      8  C   UNL     1       0.361  11.419  21.162  0.00  0.00    +0.000 C 
ATOM      9  N   UNL     1      -0.505  11.270  22.225  0.00  0.00    +0.000 N 
ATOM     10  H   UNL     1      -0.657  10.362  22.638  0.00  0.00    +0.000 HD
BRANCH   9  11
ATOM     11  C   UNL     1      -1.071  12.407  22.920  0.00  0.00    +0.000 C 
BRANCH  11  12
ATOM     12  C   UNL     1      -2.557  12.508  22.678  0.00  0.00    +0.000 A 
ATOM     13  C   UNL     1      -3.040  12.721  21.365  0.00  0.00    +0.000 A 
ATOM     14  C   UNL     1      -4.410  12.846  21.111  0.00  0.00    +0.000 A 
ATOM     15  C   UNL     1      -5.272  12.744  22.179  0.00  0.00    +0.000 A 
ATOM     16  C   UNL     1      -4.815  12.519  23.457  0.00  0.00    +0.000 A 
ATOM     17  C   UNL     1      -3.470  12.390  23.739  0.00  0.00    +0.000 A 
ATOM     18  O   UNL     1      -5.827  12.455  24.364  0.00  0.00    +0.000 OA
ATOM     19  C   UNL     1      -6.969  12.704  23.516  0.00  0.00    +0.000 C 
ATOM     20  O   UNL     1      -6.627  12.852  22.123  0.00  0.00    +0.000 OA
ENDBRANCH  11  12
ENDBRANCH   9  11
ENDBRANCH   1   8
BRANCH   4  21
ATOM     21  C   UNL     1       2.439   6.478  19.141  0.00  0.00    +0.000 C 
ATOM     22  O   UNL     1       1.928   5.941  18.165  0.00  0.00    +0.000 OA
ATOM     23  N   UNL     1       3.505   5.945  19.835  0.00  0.00    +0.000 N 
ATOM     24  H   UNL     1       3.863   6.478  20.621  0.00  0.00    +0.000 HD
BRANCH  23  25
ATOM     25  C   UNL     1       4.157   4.724  19.426  0.00  0.00    +0.000 C 
BRANCH  25  26
ATOM     26  C   UNL     1       5.089   4.942  18.261  0.00  0.00    +0.000 A 
ATOM     27  C   UNL     1       6.271   5.701  18.435  0.00  0.00    +0.000 A 
ATOM     28  C   UNL     1       7.173   5.886  17.380  0.00  0.00    +0.000 A 
ATOM     29  C   UNL     1       6.865   5.314  16.166  0.00  0.00    +0.000 A 
ATOM     30  C   UNL     1       5.711   4.589  15.981  0.00  0.00    +0.000 A 
ATOM     31  C   UNL     1       4.804   4.388  17.002  0.00  0.00    +0.000 A 
ATOM     32  O   UNL     1       5.598   4.110  14.713  0.00  0.00    +0.000 OA
ATOM     33  C   UNL     1       6.806   4.630  14.118  0.00  0.00    +0.000 C 
ATOM     34  O   UNL     1       7.623   5.381  15.039  0.00  0.00    +0.000 OA
ENDBRANCH  25  26
ENDBRANCH  23  25
ENDBRANCH   4  21
TORSDOF 6
ENDMDL
MODEL 8
REMARK VINA RESULT:      -8.6      0.814     11.791
REMARK  Name = 
REMARK  6 active torsions:
REMARK  status: ('A' for Active; 'I' for Inactive)
REMARK    1  A    between atoms: C_2  and  C_14
REMARK    2  A    between atoms: N_3  and  C_4
REMARK    3  A    between atoms: C_4  and  C_5
REMARK    4  A    between atoms: C_17  and  C_18
REMARK    5  A    between atoms: N_20  and  C_21
REMARK    6  A    between atoms: C_21  and  C_22
REMARK                            x       y       z     vdW  Elec       q    Type
REMARK                         _______ _______ _______ _____ _____    ______ ____
ROOT
ATOM      1  C   UNL     1       0.866  10.377  20.035  0.00  0.00    +0.000 A 
ATOM      2  C   UNL     1       1.235  10.174  18.705  0.00  0.00    +0.000 A 
ATOM      3  C   UNL     1       1.774   8.943  18.328  0.00  0.00    +0.000 A 
ATOM      4  C   UNL     1       1.928   7.952  19.295  0.00  0.00    +0.000 A 
ATOM      5  N   UNL     1       1.601   8.123  20.605  0.00  0.00    +0.000 NA
ATOM      6  C   UNL     1       1.088   9.340  20.939  0.00  0.00    +0.000 A 
ENDROOT
BRANCH   1   8
ATOM      7  O   UNL     1       0.748  12.189  21.512  0.00  0.00    +0.000 OA
ATOM      8  C   UNL     1       0.279  11.649  20.519  0.00  0.00    +0.000 C 
ATOM      9  N   UNL     1      -0.804  12.134  19.817  0.00  0.00    +0.000 N 
ATOM     10  H   UNL     1      -1.227  11.582  19.085  0.00  0.00    +0.000 HD
BRANCH   9  11
ATOM     11  C   UNL     1      -1.503  13.337  20.215  0.00  0.00    +0.000 C 
BRANCH  11  12
ATOM     12  C   UNL     1      -2.912  13.026  20.657  0.00  0.00    +0.000 A 
ATOM     13  C   UNL     1      -3.298  13.277  21.995  0.00  0.00    +0.000 A 
ATOM     14  C   UNL     1      -4.588  12.976  22.443  0.00  0.00    +0.000 A 
ATOM     15  C   UNL     1      -5.473  12.438  21.535  0.00  0.00    +0.000 A 
ATOM     16  C   UNL     1      -5.114  12.206  20.228  0.00  0.00    +0.000 A 
ATOM     17  C   UNL     1      -3.850  12.495  19.756  0.00  0.00    +0.000 A 
ATOM     18  O   UNL     1      -6.131  11.669  19.501  0.00  0.00    +0.000 OA
ATOM     19  C   UNL     1      -7.156  11.553  20.511  0.00  0.00    +0.000 C 
ATOM     20  O   UNL     1      -6.757  12.073  21.795  0.00  0.00    +0.000 OA
ENDBRANCH  11  12
ENDBRANCH   9  11
ENDBRANCH   1   8
BRANCH   4  21
ATOM     21  C   UNL     1       2.486   6.621  18.887  0.00  0.00    +0.000 C 
ATOM     22  O   UNL     1       2.008   6.013  17.936  0.00  0.00    +0.000 OA
ATOM     23  N   UNL     1       3.540   6.152  19.642  0.00  0.00    +0.000 N 
ATOM     24  H   UNL     1       3.870   6.742  20.399  0.00  0.00    +0.000 HD
BRANCH  23  25
ATOM     25  C   UNL     1       4.220   4.917  19.331  0.00  0.00    +0.000 C 
BRANCH  25  26
ATOM     26  C   UNL     1       5.148   5.063  18.151  0.00  0.00    +0.000 A 
ATOM     27  C   UNL     1       6.332   5.829  18.274  0.00  0.00    +0.000 A 
ATOM     28  C   UNL     1       7.230   5.949  17.208  0.00  0.00    +0.000 A 
ATOM     29  C   UNL     1       6.917   5.305  16.032  0.00  0.00    +0.000 A 
ATOM     30  C   UNL     1       5.761   4.571  15.895  0.00  0.00    +0.000 A 
ATOM     31  C   UNL     1       4.858   4.434  16.930  0.00  0.00    +0.000 A 
ATOM     32  O   UNL     1       5.643   4.016  14.659  0.00  0.00    +0.000 OA
ATOM     33  C   UNL     1       6.849   4.498  14.029  0.00  0.00    +0.000 C 
ATOM     34  O   UNL     1       7.670   5.302  14.900  0.00  0.00    +0.000 OA
ENDBRANCH  25  26
ENDBRANCH  23  25
ENDBRANCH   4  21
TORSDOF 6
ENDMDL
MODEL 9
REMARK VINA RESULT:      -8.5      1.439     11.884
REMARK  Name = 
REMARK  6 active torsions:
REMARK  status: ('A' for Active; 'I' for Inactive)
REMARK    1  A    between atoms: C_2  and  C_14
REMARK    2  A    between atoms: N_3  and  C_4
REMARK    3  A    between atoms: C_4  and  C_5
REMARK    4  A    between atoms: C_17  and  C_18
REMARK    5  A    between atoms: N_20  and  C_21
REMARK    6  A    between atoms: C_21  and  C_22
REMARK                            x       y       z     vdW  Elec       q    Type
REMARK                         _______ _______ _______ _____ _____    ______ ____
ROOT
ATOM      1  C   UNL     1       0.821  10.209  20.023  0.00  0.00    +0.000 A 
ATOM      2  C   UNL     1       0.898   9.204  20.987  0.00  0.00    +0.000 A 
ATOM      3  C   UNL     1       1.464   7.976  20.646  0.00  0.00    +0.000 A 
ATOM      4  C   UNL     1       1.935   7.789  19.348  0.00  0.00    +0.000 A 
ATOM      5  N   UNL     1       1.854   8.739  18.376  0.00  0.00    +0.000 NA
ATOM      6  C   UNL     1       1.287   9.922  18.741  0.00  0.00    +0.000 A 
ENDROOT
BRANCH   1   8
ATOM      7  O   UNL     1      -0.096  12.262  19.371  0.00  0.00    +0.000 OA
ATOM      8  C   UNL     1       0.243  11.546  20.302  0.00  0.00    +0.000 C 
ATOM      9  N   UNL     1       0.154  11.913  21.629  0.00  0.00    +0.000 N 
ATOM     10  H   UNL     1       0.566  11.336  22.347  0.00  0.00    +0.000 HD
BRANCH   9  11
ATOM     11  C   UNL     1      -0.341  13.210  22.037  0.00  0.00    +0.000 C 
BRANCH  11  12
ATOM     12  C   UNL     1      -1.835  13.183  22.240  0.00  0.00    +0.000 A 
ATOM     13  C   UNL     1      -2.683  13.813  21.298  0.00  0.00    +0.000 A 
ATOM     14  C   UNL     1      -4.071  13.828  21.471  0.00  0.00    +0.000 A 
ATOM     15  C   UNL     1      -4.585  13.201  22.584  0.00  0.00    +0.000 A 
ATOM     16  C   UNL     1      -3.772  12.571  23.498  0.00  0.00    +0.000 A 
ATOM     17  C   UNL     1      -2.400  12.537  23.353  0.00  0.00    +0.000 A 
ATOM     18  O   UNL     1      -4.478  12.020  24.522  0.00  0.00    +0.000 OA
ATOM     19  C   UNL     1      -5.822  12.410  24.168  0.00  0.00    +0.000 C 
ATOM     20  O   UNL     1      -5.901  13.128  22.920  0.00  0.00    +0.000 OA
ENDBRANCH  11  12
ENDBRANCH   9  11
ENDBRANCH   1   8
BRANCH   4  21
ATOM     21  C   UNL     1       2.564   6.477  18.985  0.00  0.00    +0.000 C 
ATOM     22  O   UNL     1       2.091   5.789  18.088  0.00  0.00    +0.000 OA
ATOM     23  N   UNL     1       3.675   6.118  19.718  0.00  0.00    +0.000 N 
ATOM     24  H   UNL     1       3.995   6.768  20.429  0.00  0.00    +0.000 HD
BRANCH  23  25
ATOM     25  C   UNL     1       4.424   4.915  19.441  0.00  0.00    +0.000 C 
BRANCH  25  26
ATOM     26  C   UNL     1       5.288   5.055  18.214  0.00  0.00    +0.000 A 
ATOM     27  C   UNL     1       6.426   5.898  18.243  0.00  0.00    +0.000 A 
ATOM     28  C   UNL     1       7.267   6.015  17.131  0.00  0.00    +0.000 A 
ATOM     29  C   UNL     1       6.944   5.292  16.004  0.00  0.00    +0.000 A 
ATOM     30  C   UNL     1       5.833   4.482  15.959  0.00  0.00    +0.000 A 
ATOM     31  C   UNL     1       4.986   4.345  17.041  0.00  0.00    +0.000 A 
ATOM     32  O   UNL     1       5.696   3.857  14.759  0.00  0.00    +0.000 OA
ATOM     33  C   UNL     1       6.841   4.377  14.050  0.00  0.00    +0.000 C 
ATOM     34  O   UNL     1       7.646   5.275  14.840  0.00  0.00    +0.000 OA
ENDBRANCH  25  26
ENDBRANCH  23  25
ENDBRANCH   4  21
TORSDOF 6
ENDMDL
