MODEL 1
REMARK VINA RESULT:      -8.1      0.000      0.000
REMARK  Name = 
REMARK  2 active torsions:
REMARK  status: ('A' for Active; 'I' for Inactive)
REMARK    1  A    between atoms: S_2  and  C_4
REMARK    2  A    between atoms: S_2  and  C_11
REMARK                            x       y       z     vdW  Elec       q    Type
REMARK                         _______ _______ _______ _____ _____    ______ ____
ROOT
ATOM      1  C   UNL     1       1.459   8.454  19.616  0.00  0.00    +0.000 A 
ATOM      2  N   UNL     1       0.709   8.247  20.752  0.00  0.00    +0.000 NA
ATOM      3  N   UNL     1       0.970   7.026  21.202  0.00  0.00    +0.000 NA
ATOM      4  N   UNL     1       1.866   6.476  20.367  0.00  0.00    +0.000 N 
ATOM      5  C   UNL     1       2.242   7.349  19.351  0.00  0.00    +0.000 A 
ATOM      6  N   UNL     1       3.170   7.021  18.387  0.00  0.00    +0.000 NA
ATOM      7  C   UNL     1       3.707   5.811  18.386  0.00  0.00    +0.000 A 
ATOM      8  N   UNL     1       4.650   5.503  17.416  0.00  0.00    +0.000 N 
ATOM      9  C   UNL     1       4.379   4.438  16.432  0.00  0.00    +0.000 C 
ATOM     10  C   UNL     1       5.715   3.870  15.937  0.00  0.00    +0.000 C 
ATOM     11  O   UNL     1       6.519   4.902  15.341  0.00  0.00    +0.000 OA
ATOM     12  C   UNL     1       6.781   5.950  16.291  0.00  0.00    +0.000 C 
ATOM     13  C   UNL     1       5.479   6.570  16.826  0.00  0.00    +0.000 C 
ATOM     14  C   UNL     1       3.307   4.863  19.439  0.00  0.00    +0.000 A 
ATOM     15  S   UNL     1       3.930   3.299  19.676  0.00  0.00    +0.000 S 
ATOM     16  C   UNL     1       2.927   3.043  21.051  0.00  0.00    +0.000 A 
ATOM     17  C   UNL     1       2.162   4.150  21.357  0.00  0.00    +0.000 A 
ATOM     18  C   UNL     1       2.405   5.184  20.425  0.00  0.00    +0.000 A 
ENDROOT
BRANCH   1  20
ATOM     19  O   UNL     1       1.921   9.625  17.445  0.00  0.00    +0.000 OA
ATOM     20  S   UNL     1       1.364   9.932  18.749  0.00  0.00    +0.000 S 
ATOM     21  O   UNL     1       1.956  10.927  19.623  0.00  0.00    +0.000 OA
BRANCH  20  22
ATOM     22  C   UNL     1      -0.342  10.364  18.552  0.00  0.00    +0.000 A 
ATOM     23  C   UNL     1      -1.065   9.862  17.464  0.00  0.00    +0.000 A 
ATOM     24  C   UNL     1      -2.381  10.281  17.259  0.00  0.00    +0.000 A 
ATOM     25  C   UNL     1      -2.966  11.197  18.133  0.00  0.00    +0.000 A 
ATOM     26  C   UNL     1      -2.235  11.694  19.214  0.00  0.00    +0.000 A 
ATOM     27 BR   UNL     1      -3.030  12.950  20.381  0.00  0.00    +0.000 Br
ATOM     28  C   UNL     1      -0.920  11.288  19.429  0.00  0.00    +0.000 A 
ENDBRANCH  20  22
ENDBRANCH   1  20
TORSDOF 2
ENDMDL
MODEL 2
REMARK VINA RESULT:      -8.0      3.379      7.207
REMARK  Name = 
REMARK  2 active torsions:
REMARK  status: ('A' for Active; 'I' for Inactive)
REMARK    1  A    between atoms: S_2  and  C_4
REMARK    2  A    between atoms: S_2  and  C_11
REMARK                            x       y       z     vdW  Elec       q    Type
REMARK                         _______ _______ _______ _____ _____    ______ ____
ROOT
ATOM      1  C   UNL     1       5.143   4.553  16.557  0.00  0.00    +0.000 A 
ATOM      2  N   UNL     1       5.194   3.198  16.315  0.00  0.00    +0.000 NA
ATOM      3  N   UNL     1       4.223   2.618  17.009  0.00  0.00    +0.000 NA
ATOM      4  N   UNL     1       3.573   3.587  17.673  0.00  0.00    +0.000 N 
ATOM      5  C   UNL     1       4.094   4.849  17.402  0.00  0.00    +0.000 A 
ATOM      6  N   UNL     1       3.576   6.004  17.946  0.00  0.00    +0.000 NA
ATOM      7  C   UNL     1       2.567   5.927  18.799  0.00  0.00    +0.000 A 
ATOM      8  N   UNL     1       2.050   7.102  19.325  0.00  0.00    +0.000 N 
ATOM      9  C   UNL     1       2.123   7.358  20.776  0.00  0.00    +0.000 C 
ATOM     10  C   UNL     1       0.989   8.313  21.168  0.00  0.00    +0.000 C 
ATOM     11  O   UNL     1       1.088   9.550  20.441  0.00  0.00    +0.000 OA
ATOM     12  C   UNL     1       1.028   9.309  19.024  0.00  0.00    +0.000 C 
ATOM     13  C   UNL     1       2.145   8.359  18.561  0.00  0.00    +0.000 C 
ATOM     14  C   UNL     1       2.015   4.600  19.117  0.00  0.00    +0.000 A 
ATOM     15  S   UNL     1       0.675   4.278  20.113  0.00  0.00    +0.000 S 
ATOM     16  C   UNL     1       0.809   2.583  19.849  0.00  0.00    +0.000 A 
ATOM     17  C   UNL     1       1.831   2.267  18.975  0.00  0.00    +0.000 A 
ATOM     18  C   UNL     1       2.500   3.440  18.562  0.00  0.00    +0.000 A 
ENDROOT
BRANCH   1  20
ATOM     19  O   UNL     1       5.449   6.638  15.194  0.00  0.00    +0.000 OA
ATOM     20  S   UNL     1       6.270   5.625  15.832  0.00  0.00    +0.000 S 
ATOM     21  O   UNL     1       7.172   4.777  15.075  0.00  0.00    +0.000 OA
BRANCH  20  22
ATOM     22  C   UNL     1       7.227   6.390  17.110  0.00  0.00    +0.000 A 
ATOM     23  C   UNL     1       7.573   5.658  18.252  0.00  0.00    +0.000 A 
ATOM     24  C   UNL     1       8.244   6.291  19.300  0.00  0.00    +0.000 A 
ATOM     25  C   UNL     1       8.562   7.647  19.206  0.00  0.00    +0.000 A 
ATOM     26  C   UNL     1       8.210   8.368  18.065  0.00  0.00    +0.000 A 
ATOM     27 BR   UNL     1       8.627  10.208  17.957  0.00  0.00    +0.000 Br
ATOM     28  C   UNL     1       7.536   7.751  17.013  0.00  0.00    +0.000 A 
ENDBRANCH  20  22
ENDBRANCH   1  20
TORSDOF 2
ENDMDL
MODEL 3
REMARK VINA RESULT:      -7.9      1.092      1.422
REMARK  Name = 
REMARK  2 active torsions:
REMARK  status: ('A' for Active; 'I' for Inactive)
REMARK    1  A    between atoms: S_2  and  C_4
REMARK    2  A    between atoms: S_2  and  C_11
REMARK                            x       y       z     vdW  Elec       q    Type
REMARK                         _______ _______ _______ _____ _____    ______ ____
ROOT
ATOM      1  C   UNL     1       1.461   8.604  19.687  0.00  0.00    +0.000 A 
ATOM      2  N   UNL     1       0.638   8.369  20.766  0.00  0.00    +0.000 NA
ATOM      3  N   UNL     1       0.846   7.127  21.180  0.00  0.00    +0.000 NA
ATOM      4  N   UNL     1       1.780   6.589  20.380  0.00  0.00    +0.000 N 
ATOM      5  C   UNL     1       2.235   7.493  19.425  0.00  0.00    +0.000 A 
ATOM      6  N   UNL     1       3.214   7.182  18.507  0.00  0.00    +0.000 NA
ATOM      7  C   UNL     1       3.726   5.960  18.489  0.00  0.00    +0.000 A 
ATOM      8  N   UNL     1       4.720   5.670  17.566  0.00  0.00    +0.000 N 
ATOM      9  C   UNL     1       4.488   4.651  16.525  0.00  0.00    +0.000 C 
ATOM     10  C   UNL     1       5.840   4.072  16.090  0.00  0.00    +0.000 C 
ATOM     11  O   UNL     1       6.700   5.108  15.585  0.00  0.00    +0.000 OA
ATOM     12  C   UNL     1       6.924   6.112  16.591  0.00  0.00    +0.000 C 
ATOM     13  C   UNL     1       5.604   6.739  17.071  0.00  0.00    +0.000 C 
ATOM     14  C   UNL     1       3.242   4.982  19.477  0.00  0.00    +0.000 A 
ATOM     15  S   UNL     1       3.817   3.395  19.687  0.00  0.00    +0.000 S 
ATOM     16  C   UNL     1       2.727   3.108  20.987  0.00  0.00    +0.000 A 
ATOM     17  C   UNL     1       1.967   4.220  21.291  0.00  0.00    +0.000 A 
ATOM     18  C   UNL     1       2.288   5.284  20.418  0.00  0.00    +0.000 A 
ENDROOT
BRANCH   1  20
ATOM     19  O   UNL     1       2.094   9.852  17.604  0.00  0.00    +0.000 OA
ATOM     20  S   UNL     1       1.448  10.116  18.876  0.00  0.00    +0.000 S 
ATOM     21  O   UNL     1       1.990  11.066  19.830  0.00  0.00    +0.000 OA
BRANCH  20  22
ATOM     22  C   UNL     1      -0.233  10.584  18.576  0.00  0.00    +0.000 A 
ATOM     23  C   UNL     1      -0.933  11.317  19.541  0.00  0.00    +0.000 A 
ATOM     24  C   UNL     1      -2.285  11.601  19.343  0.00  0.00    +0.000 A 
ATOM     25  C   UNL     1      -2.932  11.152  18.191  0.00  0.00    +0.000 A 
ATOM     26  C   UNL     1      -2.225  10.419  17.236  0.00  0.00    +0.000 A 
ATOM     27 BR   UNL     1      -3.114   9.798  15.688  0.00  0.00    +0.000 Br
ATOM     28  C   UNL     1      -0.876  10.125  17.421  0.00  0.00    +0.000 A 
ENDBRANCH  20  22
ENDBRANCH   1  20
TORSDOF 2
ENDMDL
MODEL 4
REMARK VINA RESULT:      -7.9      3.764      7.813
REMARK  Name = 
REMARK  2 active torsions:
REMARK  status: ('A' for Active; 'I' for Inactive)
REMARK    1  A    between atoms: S_2  and  C_4
REMARK    2  A    between atoms: S_2  and  C_11
REMARK                            x       y       z     vdW  Elec       q    Type
REMARK                         _______ _______ _______ _____ _____    ______ ____
ROOT
ATOM      1  C   UNL     1       5.150   4.647  16.714  0.00  0.00    +0.000 A 
ATOM      2  N   UNL     1       5.275   3.276  16.675  0.00  0.00    +0.000 NA
ATOM      3  N   UNL     1       4.358   2.755  17.479  0.00  0.00    +0.000 NA
ATOM      4  N   UNL     1       3.669   3.775  18.013  0.00  0.00    +0.000 N 
ATOM      5  C   UNL     1       4.107   5.009  17.541  0.00  0.00    +0.000 A 
ATOM      6  N   UNL     1       3.535   6.203  17.924  0.00  0.00    +0.000 NA
ATOM      7  C   UNL     1       2.554   6.200  18.812  0.00  0.00    +0.000 A 
ATOM      8  N   UNL     1       1.982   7.410  19.175  0.00  0.00    +0.000 N 
ATOM      9  C   UNL     1       2.076   7.884  20.569  0.00  0.00    +0.000 C 
ATOM     10  C   UNL     1       0.897   8.824  20.852  0.00  0.00    +0.000 C 
ATOM     11  O   UNL     1       0.905   9.941  19.947  0.00  0.00    +0.000 OA
ATOM     12  C   UNL     1       0.824   9.488  18.585  0.00  0.00    +0.000 C 
ATOM     13  C   UNL     1       1.984   8.541  18.231  0.00  0.00    +0.000 C 
ATOM     14  C   UNL     1       2.090   4.907  19.342  0.00  0.00    +0.000 A 
ATOM     15  S   UNL     1       0.796   4.665  20.419  0.00  0.00    +0.000 S 
ATOM     16  C   UNL     1       1.023   2.960  20.404  0.00  0.00    +0.000 A 
ATOM     17  C   UNL     1       2.039   2.572  19.554  0.00  0.00    +0.000 A 
ATOM     18  C   UNL     1       2.628   3.705  18.949  0.00  0.00    +0.000 A 
ENDROOT
BRANCH   1  20
ATOM     19  O   UNL     1       7.440   5.662  16.545  0.00  0.00    +0.000 OA
ATOM     20  S   UNL     1       6.194   5.658  15.802  0.00  0.00    +0.000 S 
ATOM     21  O   UNL     1       5.437   6.874  15.565  0.00  0.00    +0.000 OA
BRANCH  20  22
ATOM     22  C   UNL     1       6.474   4.906  14.224  0.00  0.00    +0.000 A 
ATOM     23  C   UNL     1       7.706   5.075  13.582  0.00  0.00    +0.000 A 
ATOM     24  C   UNL     1       7.890   4.562  12.297  0.00  0.00    +0.000 A 
ATOM     25  C   UNL     1       6.847   3.890  11.658  0.00  0.00    +0.000 A 
ATOM     26  C   UNL     1       5.621   3.730  12.305  0.00  0.00    +0.000 A 
ATOM     27 BR   UNL     1       4.209   2.835  11.423  0.00  0.00    +0.000 Br
ATOM     28  C   UNL     1       5.422   4.240  13.586  0.00  0.00    +0.000 A 
ENDBRANCH  20  22
ENDBRANCH   1  20
TORSDOF 2
ENDMDL
MODEL 5
REMARK VINA RESULT:      -7.8      2.418      4.090
REMARK  Name = 
REMARK  2 active torsions:
REMARK  status: ('A' for Active; 'I' for Inactive)
REMARK    1  A    between atoms: S_2  and  C_4
REMARK    2  A    between atoms: S_2  and  C_11
REMARK                            x       y       z     vdW  Elec       q    Type
REMARK                         _______ _______ _______ _____ _____    ______ ____
ROOT
ATOM      1  C   UNL     1       1.540   9.355  19.017  0.00  0.00    +0.000 A 
ATOM      2  N   UNL     1       2.053  10.165  18.028  0.00  0.00    +0.000 NA
ATOM      3  N   UNL     1       2.904   9.448  17.307  0.00  0.00    +0.000 NA
ATOM      4  N   UNL     1       2.927   8.211  17.829  0.00  0.00    +0.000 N 
ATOM      5  C   UNL     1       2.054   8.080  18.904  0.00  0.00    +0.000 A 
ATOM      6  N   UNL     1       1.881   6.895  19.588  0.00  0.00    +0.000 NA
ATOM      7  C   UNL     1       2.601   5.837  19.249  0.00  0.00    +0.000 A 
ATOM      8  N   UNL     1       2.403   4.650  19.939  0.00  0.00    +0.000 N 
ATOM      9  C   UNL     1       3.502   4.063  20.729  0.00  0.00    +0.000 C 
ATOM     10  C   UNL     1       3.279   2.549  20.836  0.00  0.00    +0.000 C 
ATOM     11  O   UNL     1       2.014   2.261  21.456  0.00  0.00    +0.000 OA
ATOM     12  C   UNL     1       0.937   2.839  20.698  0.00  0.00    +0.000 C 
ATOM     13  C   UNL     1       1.096   4.362  20.555  0.00  0.00    +0.000 C 
ATOM     14  C   UNL     1       3.547   5.961  18.128  0.00  0.00    +0.000 A 
ATOM     15  S   UNL     1       4.502   4.715  17.474  0.00  0.00    +0.000 S 
ATOM     16  C   UNL     1       5.179   5.771  16.296  0.00  0.00    +0.000 A 
ATOM     17  C   UNL     1       4.651   7.044  16.366  0.00  0.00    +0.000 A 
ATOM     18  C   UNL     1       3.711   7.125  17.417  0.00  0.00    +0.000 A 
ENDROOT
BRANCH   1  20
ATOM     19  O   UNL     1       1.115  11.026  20.840  0.00  0.00    +0.000 OA
ATOM     20  S   UNL     1       0.409   9.957  20.158  0.00  0.00    +0.000 S 
ATOM     21  O   UNL     1      -0.082   8.788  20.864  0.00  0.00    +0.000 OA
BRANCH  20  22
ATOM     22  C   UNL     1      -0.965  10.650  19.283  0.00  0.00    +0.000 A 
ATOM     23  C   UNL     1      -1.761  11.623  19.897  0.00  0.00    +0.000 A 
ATOM     24  C   UNL     1      -2.900  12.097  19.242  0.00  0.00    +0.000 A 
ATOM     25  C   UNL     1      -3.240  11.596  17.984  0.00  0.00    +0.000 A 
ATOM     26  C   UNL     1      -2.441  10.623  17.382  0.00  0.00    +0.000 A 
ATOM     27 BR   UNL     1      -2.922   9.937  15.688  0.00  0.00    +0.000 Br
ATOM     28  C   UNL     1      -1.304  10.138  18.025  0.00  0.00    +0.000 A 
ENDBRANCH  20  22
ENDBRANCH   1  20
TORSDOF 2
ENDMDL
MODEL 6
REMARK VINA RESULT:      -7.6      4.258      9.629
REMARK  Name = 
REMARK  2 active torsions:
REMARK  status: ('A' for Active; 'I' for Inactive)
REMARK    1  A    between atoms: S_2  and  C_4
REMARK    2  A    between atoms: S_2  and  C_11
REMARK                            x       y       z     vdW  Elec       q    Type
REMARK                         _______ _______ _______ _____ _____    ______ ____
ROOT
ATOM      1  C   UNL     1      -0.769  10.654  18.972  0.00  0.00    +0.000 A 
ATOM      2  N   UNL     1      -0.940   9.997  17.774  0.00  0.00    +0.000 NA
ATOM      3  N   UNL     1      -2.167  10.248  17.338  0.00  0.00    +0.000 NA
ATOM      4  N   UNL     1      -2.757  11.047  18.241  0.00  0.00    +0.000 N 
ATOM      5  C   UNL     1      -1.905  11.367  19.293  0.00  0.00    +0.000 A 
ATOM      6  N   UNL     1      -2.275  12.196  20.330  0.00  0.00    +0.000 NA
ATOM      7  C   UNL     1      -3.505  12.684  20.367  0.00  0.00    +0.000 A 
ATOM      8  N   UNL     1      -3.855  13.527  21.411  0.00  0.00    +0.000 N 
ATOM      9  C   UNL     1      -4.914  13.131  22.359  0.00  0.00    +0.000 C 
ATOM     10  C   UNL     1      -5.537  14.396  22.961  0.00  0.00    +0.000 C 
ATOM     11  O   UNL     1      -4.541  15.186  23.634  0.00  0.00    +0.000 OA
ATOM     12  C   UNL     1      -3.499  15.569  22.719  0.00  0.00    +0.000 C 
ATOM     13  C   UNL     1      -2.826  14.342  22.079  0.00  0.00    +0.000 C 
ATOM     14  C   UNL     1      -4.431  12.339  19.275  0.00  0.00    +0.000 A 
ATOM     15  S   UNL     1      -6.017  12.918  19.079  0.00  0.00    +0.000 S 
ATOM     16  C   UNL     1      -6.226  12.028  17.621  0.00  0.00    +0.000 A 
ATOM     17  C   UNL     1      -5.088  11.335  17.260  0.00  0.00    +0.000 A 
ATOM     18  C   UNL     1      -4.069  11.538  18.218  0.00  0.00    +0.000 A 
ENDROOT
BRANCH   1  20
ATOM     19  O   UNL     1       0.303  10.337  21.219  0.00  0.00    +0.000 OA
ATOM     20  S   UNL     1       0.707  10.542  19.840  0.00  0.00    +0.000 S 
ATOM     21  O   UNL     1       1.481  11.699  19.430  0.00  0.00    +0.000 OA
BRANCH  20  22
ATOM     22  C   UNL     1       1.584   9.108  19.284  0.00  0.00    +0.000 A 
ATOM     23  C   UNL     1       2.191   9.110  18.023  0.00  0.00    +0.000 A 
ATOM     24  C   UNL     1       2.798   7.946  17.549  0.00  0.00    +0.000 A 
ATOM     25  C   UNL     1       2.794   6.789  18.329  0.00  0.00    +0.000 A 
ATOM     26  C   UNL     1       2.183   6.797  19.584  0.00  0.00    +0.000 A 
ATOM     27 BR   UNL     1       2.165   5.219  20.624  0.00  0.00    +0.000 Br
ATOM     28  C   UNL     1       1.570   7.950  20.069  0.00  0.00    +0.000 A 
ENDBRANCH  20  22
ENDBRANCH   1  20
TORSDOF 2
ENDMDL
MODEL 7
REMARK VINA RESULT:      -7.3      2.160      3.859
REMARK  Name = 
REMARK  2 active torsions:
REMARK  status: ('A' for Active; 'I' for Inactive)
REMARK    1  A    between atoms: S_2  and  C_4
REMARK    2  A    between atoms: S_2  and  C_11
REMARK                            x       y       z     vdW  Elec       q    Type
REMARK                         _______ _______ _______ _____ _____    ______ ____
ROOT
ATOM      1  C   UNL     1       1.626   9.309  18.853  0.00  0.00    +0.000 A 
ATOM      2  N   UNL     1       2.177  10.080  17.854  0.00  0.00    +0.000 NA
ATOM      3  N   UNL     1       3.030   9.325  17.174  0.00  0.00    +0.000 NA
ATOM      4  N   UNL     1       3.016   8.104  17.732  0.00  0.00    +0.000 N 
ATOM      5  C   UNL     1       2.117   8.021  18.790  0.00  0.00    +0.000 A 
ATOM      6  N   UNL     1       1.905   6.861  19.504  0.00  0.00    +0.000 NA
ATOM      7  C   UNL     1       2.611   5.780  19.213  0.00  0.00    +0.000 A 
ATOM      8  N   UNL     1       2.375   4.618  19.933  0.00  0.00    +0.000 N 
ATOM      9  C   UNL     1       3.443   4.034  20.765  0.00  0.00    +0.000 C 
ATOM     10  C   UNL     1       3.188   2.528  20.911  0.00  0.00    +0.000 C 
ATOM     11  O   UNL     1       1.904   2.283  21.510  0.00  0.00    +0.000 OA
ATOM     12  C   UNL     1       0.856   2.858  20.710  0.00  0.00    +0.000 C 
ATOM     13  C   UNL     1       1.048   4.374  20.526  0.00  0.00    +0.000 C 
ATOM     14  C   UNL     1       3.585   5.852  18.111  0.00  0.00    +0.000 A 
ATOM     15  S   UNL     1       4.530   4.569  17.517  0.00  0.00    +0.000 S 
ATOM     16  C   UNL     1       5.254   5.576  16.324  0.00  0.00    +0.000 A 
ATOM     17  C   UNL     1       4.750   6.861  16.344  0.00  0.00    +0.000 A 
ATOM     18  C   UNL     1       3.788   6.992  17.370  0.00  0.00    +0.000 A 
ENDROOT
BRANCH   1  20
ATOM     19  O   UNL     1       1.099  11.188  20.431  0.00  0.00    +0.000 OA
ATOM     20  S   UNL     1       0.481   9.966  19.950  0.00  0.00    +0.000 S 
ATOM     21  O   UNL     1       0.137   8.875  20.842  0.00  0.00    +0.000 OA
BRANCH  20  22
ATOM     22  C   UNL     1      -0.987  10.385  19.053  0.00  0.00    +0.000 A 
ATOM     23  C   UNL     1      -1.125   9.984  17.719  0.00  0.00    +0.000 A 
ATOM     24  C   UNL     1      -2.239  10.397  16.986  0.00  0.00    +0.000 A 
ATOM     25  C   UNL     1      -3.204  11.210  17.583  0.00  0.00    +0.000 A 
ATOM     26  C   UNL     1      -3.055  11.608  18.913  0.00  0.00    +0.000 A 
ATOM     27 BR   UNL     1      -4.357  12.725  19.705  0.00  0.00    +0.000 Br
ATOM     28  C   UNL     1      -1.946  11.206  19.655  0.00  0.00    +0.000 A 
ENDBRANCH  20  22
ENDBRANCH   1  20
TORSDOF 2
ENDMDL
MODEL 8
REMARK VINA RESULT:      -7.2      4.237      9.530
REMARK  Name = 
REMARK  2 active torsions:
REMARK  status: ('A' for Active; 'I' for Inactive)
REMARK    1  A    between atoms: S_2  and  C_4
REMARK    2  A    between atoms: S_2  and  C_11
REMARK                            x       y       z     vdW  Elec       q    Type
REMARK                         _______ _______ _______ _____ _____    ______ ____
ROOT
ATOM      1  C   UNL     1      -0.623  10.663  18.629  0.00  0.00    +0.000 A 
ATOM      2  N   UNL     1      -0.911   9.980  17.468  0.00  0.00    +0.000 NA
ATOM      3  N   UNL     1      -2.187  10.191  17.173  0.00  0.00    +0.000 NA
ATOM      4  N   UNL     1      -2.692  10.990  18.126  0.00  0.00    +0.000 N 
ATOM      5  C   UNL     1      -1.734  11.351  19.068  0.00  0.00    +0.000 A 
ATOM      6  N   UNL     1      -2.006  12.189  20.128  0.00  0.00    +0.000 NA
ATOM      7  C   UNL     1      -3.238  12.644  20.299  0.00  0.00    +0.000 A 
ATOM      8  N   UNL     1      -3.490  13.496  21.364  0.00  0.00    +0.000 N 
ATOM      9  C   UNL     1      -4.421  13.089  22.433  0.00  0.00    +0.000 C 
ATOM     10  C   UNL     1      -5.007  14.349  23.084  0.00  0.00    +0.000 C 
ATOM     11  O   UNL     1      -3.963  15.176  23.626  0.00  0.00    +0.000 OA
ATOM     12  C   UNL     1      -3.044  15.570  22.592  0.00  0.00    +0.000 C 
ATOM     13  C   UNL     1      -2.414  14.350  21.897  0.00  0.00    +0.000 C 
ATOM     14  C   UNL     1      -4.272  12.255  19.326  0.00  0.00    +0.000 A 
ATOM     15  S   UNL     1      -5.886  12.789  19.305  0.00  0.00    +0.000 S 
ATOM     16  C   UNL     1      -6.236  11.867  17.894  0.00  0.00    +0.000 A 
ATOM     17  C   UNL     1      -5.127  11.199  17.415  0.00  0.00    +0.000 A 
ATOM     18  C   UNL     1      -4.011  11.445  18.247  0.00  0.00    +0.000 A 
ENDROOT
BRANCH   1  20
ATOM     19  O   UNL     1       0.786  11.213  20.632  0.00  0.00    +0.000 OA
ATOM     20  S   UNL     1       0.945  10.605  19.324  0.00  0.00    +0.000 S 
ATOM     21  O   UNL     1       1.830  11.165  18.318  0.00  0.00    +0.000 OA
BRANCH  20  22
ATOM     22  C   UNL     1       1.409   8.910  19.536  0.00  0.00    +0.000 A 
ATOM     23  C   UNL     1       1.048   8.232  20.707  0.00  0.00    +0.000 A 
ATOM     24  C   UNL     1       1.497   6.926  20.914  0.00  0.00    +0.000 A 
ATOM     25  C   UNL     1       2.304   6.306  19.958  0.00  0.00    +0.000 A 
ATOM     26  C   UNL     1       2.659   6.992  18.795  0.00  0.00    +0.000 A 
ATOM     27 BR   UNL     1       3.768   6.150  17.517  0.00  0.00    +0.000 Br
ATOM     28  C   UNL     1       2.222   8.297  18.577  0.00  0.00    +0.000 A 
ENDBRANCH  20  22
ENDBRANCH   1  20
TORSDOF 2
ENDMDL
MODEL 9
REMARK VINA RESULT:      -7.2      5.790      9.117
REMARK  Name = 
REMARK  2 active torsions:
REMARK  status: ('A' for Active; 'I' for Inactive)
REMARK    1  A    between atoms: S_2  and  C_4
REMARK    2  A    between atoms: S_2  and  C_11
REMARK                            x       y       z     vdW  Elec       q    Type
REMARK                         _______ _______ _______ _____ _____    ______ ____
ROOT
ATOM      1  C   UNL     1      -0.459  10.608  20.060  0.00  0.00    +0.000 A 
ATOM      2  N   UNL     1       0.355   9.950  19.164  0.00  0.00    +0.000 NA
ATOM      3  N   UNL     1      -0.274   9.898  17.997  0.00  0.00    +0.000 NA
ATOM      4  N   UNL     1      -1.459  10.509  18.154  0.00  0.00    +0.000 N 
ATOM      5  C   UNL     1      -1.623  11.012  19.441  0.00  0.00    +0.000 A 
ATOM      6  N   UNL     1      -2.747  11.705  19.835  0.00  0.00    +0.000 NA
ATOM      7  C   UNL     1      -3.744  11.872  18.980  0.00  0.00    +0.000 A 
ATOM      8  N   UNL     1      -4.861  12.584  19.391  0.00  0.00    +0.000 N 
ATOM      9  C   UNL     1      -6.177  11.921  19.456  0.00  0.00    +0.000 C 
ATOM     10  C   UNL     1      -7.274  12.982  19.296  0.00  0.00    +0.000 C 
ATOM     11  O   UNL     1      -7.171  13.981  20.325  0.00  0.00    +0.000 OA
ATOM     12  C   UNL     1      -5.886  14.626  20.275  0.00  0.00    +0.000 C 
ATOM     13  C   UNL     1      -4.736  13.616  20.434  0.00  0.00    +0.000 C 
ATOM     14  C   UNL     1      -3.599  11.328  17.619  0.00  0.00    +0.000 A 
ATOM     15  S   UNL     1      -4.710  11.500  16.343  0.00  0.00    +0.000 S 
ATOM     16  C   UNL     1      -3.703  10.612  15.267  0.00  0.00    +0.000 A 
ATOM     17  C   UNL     1      -2.514  10.230  15.855  0.00  0.00    +0.000 A 
ATOM     18  C   UNL     1      -2.474  10.661  17.199  0.00  0.00    +0.000 A 
ENDROOT
BRANCH   1  20
ATOM     19  O   UNL     1       1.414  11.269  21.594  0.00  0.00    +0.000 OA
ATOM     20  S   UNL     1       0.028  10.849  21.687  0.00  0.00    +0.000 S 
ATOM     21  O   UNL     1      -0.362   9.638  22.386  0.00  0.00    +0.000 OA
BRANCH  20  22
ATOM     22  C   UNL     1      -0.924  12.174  22.374  0.00  0.00    +0.000 A 
ATOM     23  C   UNL     1      -0.433  13.483  22.321  0.00  0.00    +0.000 A 
ATOM     24  C   UNL     1      -1.141  14.511  22.947  0.00  0.00    +0.000 A 
ATOM     25  C   UNL     1      -2.328  14.228  23.625  0.00  0.00    +0.000 A 
ATOM     26  C   UNL     1      -2.807  12.918  23.674  0.00  0.00    +0.000 A 
ATOM     27 BR   UNL     1      -4.405  12.543  24.612  0.00  0.00    +0.000 Br
ATOM     28  C   UNL     1      -2.110  11.882  23.057  0.00  0.00    +0.000 A 
ENDBRANCH  20  22
ENDBRANCH   1  20
TORSDOF 2
ENDMDL
