MODEL 1
REMARK VINA RESULT:      -7.3      0.000      0.000
REMARK  Name = 
REMARK  12 active torsions:
REMARK  status: ('A' for Active; 'I' for Inactive)
REMARK    1  A    between atoms: C_1  and  C_2
REMARK    2  A    between atoms: C_2  and  C_3
REMARK    3  A    between atoms: C_3  and  O_4
REMARK    4  A    between atoms: O_4  and  C_5
REMARK    5  A    between atoms: C_9  and  N_10
REMARK    6  A    between atoms: C_13  and  O_14
REMARK    7  A    between atoms: O_14  and  C_15
REMARK    8  A    between atoms: C_18  and  C_19
REMARK    9  A    between atoms: C_19  and  C_20
REMARK   10  A    between atoms: C_19  and  N_21
REMARK   11  A    between atoms: C_22  and  C_23
REMARK   12  A    between atoms: C_28  and  C_29
REMARK                            x       y       z     vdW  Elec       q    Type
REMARK                         _______ _______ _______ _____ _____    ______ ____
ROOT
ATOM      1  N   UNL     1       2.112   8.393  19.615  0.00  0.00    +0.000 N 
ATOM      2  C   UNL     1       2.636   8.277  18.240  0.00  0.00    +0.000 C 
ATOM      3  C   UNL     1       2.159   6.911  17.757  0.00  0.00    +0.000 C 
ATOM      4  C   UNL     1       2.340   6.055  19.003  0.00  0.00    +0.000 C 
ATOM      5  C   UNL     1       1.902   7.011  20.132  0.00  0.00    +0.000 C 
ENDROOT
BRANCH   1  10
ATOM      6  C   UNL     1      -0.411  10.482  21.384  0.00  0.00    +0.000 A 
ATOM      7  N   UNL     1      -1.125  11.026  20.376  0.00  0.00    +0.000 NA
ATOM      8  C   UNL     1      -0.765  10.689  19.133  0.00  0.00    +0.000 A 
ATOM      9  C   UNL     1       0.271   9.819  18.846  0.00  0.00    +0.000 A 
ATOM     10  C   UNL     1       1.038   9.265  19.882  0.00  0.00    +0.000 A 
ATOM     11  C   UNL     1       0.680   9.614  21.206  0.00  0.00    +0.000 A 
ATOM     12  C   UNL     1       1.460   9.178  22.417  0.00  0.00    +0.000 C 
BRANCH   6  13
ATOM     13  O   UNL     1      -0.769  10.833  22.675  0.00  0.00    +0.000 OA
BRANCH  13  14
ATOM     14  C   UNL     1      -1.427  12.106  22.706  0.00  0.00    +0.000 C 
BRANCH  14  16
ATOM     15  C   UNL     1      -3.853  12.861  22.675  0.00  0.00    +0.000 C 
ATOM     16  C   UNL     1      -2.809  11.978  23.339  0.00  0.00    +0.000 C 
ENDBRANCH  14  16
ENDBRANCH  13  14
ENDBRANCH   6  13
ENDBRANCH   1  10
BRANCH   4  17
ATOM     17  O   UNL     1       3.721   5.680  19.173  0.00  0.00    +0.000 OA
BRANCH  17  18
ATOM     18  C   UNL     1       4.364   5.212  18.057  0.00  0.00    +0.000 A 
ATOM     19  C   UNL     1       5.380   6.018  17.531  0.00  0.00    +0.000 A 
ATOM     20  C   UNL     1       6.049   5.647  16.353  0.00  0.00    +0.000 A 
ATOM     21  C   UNL     1       5.715   4.456  15.697  0.00  0.00    +0.000 A 
ATOM     22  C   UNL     1       4.754   3.622  16.281  0.00  0.00    +0.000 A 
ATOM     23  C   UNL     1       4.086   3.991  17.448  0.00  0.00    +0.000 A 
BRANCH  21  24
ATOM     24  C   UNL     1       6.325   4.079  14.355  0.00  0.00    +0.000 C 
ATOM     25  C   UNL     1       7.372   5.139  13.972  0.00  0.00    +0.000 C 
BRANCH  24  26
ATOM     26  N   UNL     1       5.277   3.953  13.352  0.00  0.00    +0.000 N 
ATOM     27  C   UNL     1       5.450   3.219  12.202  0.00  0.00    +0.000 C 
ATOM     28  C   UNL     1       4.248   3.190  11.296  0.00  0.00    +0.000 C 
ATOM     29  O   UNL     1       6.498   2.659  11.899  0.00  0.00    +0.000 OA
ATOM     30  H   UNL     1       4.333   4.180  13.635  0.00  0.00    +0.000 HD
ENDBRANCH  24  26
ENDBRANCH  21  24
ENDBRANCH  17  18
ENDBRANCH   4  17
TORSDOF 8
ENDMDL
MODEL 2
REMARK VINA RESULT:      -7.3      3.817      6.186
REMARK  Name = 
REMARK  12 active torsions:
REMARK  status: ('A' for Active; 'I' for Inactive)
REMARK    1  A    between atoms: C_1  and  C_2
REMARK    2  A    between atoms: C_2  and  C_3
REMARK    3  A    between atoms: C_3  and  O_4
REMARK    4  A    between atoms: O_4  and  C_5
REMARK    5  A    between atoms: C_9  and  N_10
REMARK    6  A    between atoms: C_13  and  O_14
REMARK    7  A    between atoms: O_14  and  C_15
REMARK    8  A    between atoms: C_18  and  C_19
REMARK    9  A    between atoms: C_19  and  C_20
REMARK   10  A    between atoms: C_19  and  N_21
REMARK   11  A    between atoms: C_22  and  C_23
REMARK   12  A    between atoms: C_28  and  C_29
REMARK                            x       y       z     vdW  Elec       q    Type
REMARK                         _______ _______ _______ _____ _____    ______ ____
ROOT
ATOM      1  N   UNL     1      -1.843  11.373  19.218  0.00  0.00    +0.000 N 
ATOM      2  C   UNL     1      -1.023  12.503  19.698  0.00  0.00    +0.000 C 
ATOM      3  C   UNL     1       0.102  12.628  18.675  0.00  0.00    +0.000 C 
ATOM      4  C   UNL     1       0.428  11.169  18.385  0.00  0.00    +0.000 C 
ATOM      5  C   UNL     1      -0.967  10.510  18.376  0.00  0.00    +0.000 C 
ENDROOT
BRANCH   1  10
ATOM      6  C   UNL     1      -5.413  12.331  18.776  0.00  0.00    +0.000 A 
ATOM      7  N   UNL     1      -5.634  12.111  17.463  0.00  0.00    +0.000 NA
ATOM      8  C   UNL     1      -4.603  11.645  16.749  0.00  0.00    +0.000 A 
ATOM      9  C   UNL     1      -3.358  11.374  17.289  0.00  0.00    +0.000 A 
ATOM     10  C   UNL     1      -3.107  11.621  18.648  0.00  0.00    +0.000 A 
ATOM     11  C   UNL     1      -4.182  12.121  19.421  0.00  0.00    +0.000 A 
ATOM     12  C   UNL     1      -4.046  12.523  20.865  0.00  0.00    +0.000 C 
BRANCH   6  13
ATOM     13  O   UNL     1      -6.471  12.824  19.521  0.00  0.00    +0.000 OA
BRANCH  13  14
ATOM     14  C   UNL     1      -7.527  11.862  19.627  0.00  0.00    +0.000 C 
BRANCH  14  16
ATOM     15  C   UNL     1      -7.582  12.499  22.086  0.00  0.00    +0.000 C 
ATOM     16  C   UNL     1      -7.665  11.375  21.067  0.00  0.00    +0.000 C 
ENDBRANCH  14  16
ENDBRANCH  13  14
ENDBRANCH   6  13
ENDBRANCH   1  10
BRANCH   4  17
ATOM     17  O   UNL     1       1.241  10.606  19.433  0.00  0.00    +0.000 OA
BRANCH  17  18
ATOM     18  C   UNL     1       1.561   9.280  19.305  0.00  0.00    +0.000 A 
ATOM     19  C   UNL     1       1.318   8.464  20.416  0.00  0.00    +0.000 A 
ATOM     20  C   UNL     1       1.673   7.105  20.397  0.00  0.00    +0.000 A 
ATOM     21  C   UNL     1       2.264   6.546  19.257  0.00  0.00    +0.000 A 
ATOM     22  C   UNL     1       2.425   7.356  18.126  0.00  0.00    +0.000 A 
ATOM     23  C   UNL     1       2.077   8.706  18.146  0.00  0.00    +0.000 A 
BRANCH  21  24
ATOM     24  C   UNL     1       2.779   5.115  19.237  0.00  0.00    +0.000 C 
ATOM     25  C   UNL     1       2.747   4.597  17.789  0.00  0.00    +0.000 C 
BRANCH  24  26
ATOM     26  N   UNL     1       1.982   4.289  20.134  0.00  0.00    +0.000 N 
ATOM     27  C   UNL     1       2.516   3.214  20.807  0.00  0.00    +0.000 C 
ATOM     28  C   UNL     1       1.543   2.495  21.702  0.00  0.00    +0.000 C 
ATOM     29  O   UNL     1       3.674   2.832  20.675  0.00  0.00    +0.000 OA
ATOM     30  H   UNL     1       1.109   4.674  20.469  0.00  0.00    +0.000 HD
ENDBRANCH  24  26
ENDBRANCH  21  24
ENDBRANCH  17  18
ENDBRANCH   4  17
TORSDOF 8
ENDMDL
MODEL 3
REMARK VINA RESULT:      -7.1      1.542      2.401
REMARK  Name = 
REMARK  12 active torsions:
REMARK  status: ('A' for Active; 'I' for Inactive)
REMARK    1  A    between atoms: C_1  and  C_2
REMARK    2  A    between atoms: C_2  and  C_3
REMARK    3  A    between atoms: C_3  and  O_4
REMARK    4  A    between atoms: O_4  and  C_5
REMARK    5  A    between atoms: C_9  and  N_10
REMARK    6  A    between atoms: C_13  and  O_14
REMARK    7  A    between atoms: O_14  and  C_15
REMARK    8  A    between atoms: C_18  and  C_19
REMARK    9  A    between atoms: C_19  and  C_20
REMARK   10  A    between atoms: C_19  and  N_21
REMARK   11  A    between atoms: C_22  and  C_23
REMARK   12  A    between atoms: C_28  and  C_29
REMARK                            x       y       z     vdW  Elec       q    Type
REMARK                         _______ _______ _______ _____ _____    ______ ____
ROOT
ATOM      1  N   UNL     1       2.233   7.794  20.039  0.00  0.00    +0.000 N 
ATOM      2  C   UNL     1       2.696   7.672  18.642  0.00  0.00    +0.000 C 
ATOM      3  C   UNL     1       2.147   6.331  18.167  0.00  0.00    +0.000 C 
ATOM      4  C   UNL     1       2.344   5.455  19.398  0.00  0.00    +0.000 C 
ATOM      5  C   UNL     1       1.988   6.417  20.552  0.00  0.00    +0.000 C 
ENDROOT
BRANCH   1  10
ATOM      6  C   UNL     1      -0.248  10.563  19.832  0.00  0.00    +0.000 A 
ATOM      7  N   UNL     1      -0.868  10.515  21.030  0.00  0.00    +0.000 NA
ATOM      8  C   UNL     1      -0.453   9.574  21.885  0.00  0.00    +0.000 A 
ATOM      9  C   UNL     1       0.568   8.682  21.606  0.00  0.00    +0.000 A 
ATOM     10  C   UNL     1       1.205   8.705  20.356  0.00  0.00    +0.000 A 
ATOM     11  C   UNL     1       0.776   9.688  19.432  0.00  0.00    +0.000 A 
ATOM     12  C   UNL     1       1.294   9.780  18.022  0.00  0.00    +0.000 C 
BRANCH   6  13
ATOM     13  O   UNL     1      -0.678  11.526  18.935  0.00  0.00    +0.000 OA
BRANCH  13  14
ATOM     14  C   UNL     1      -2.087  11.424  18.696  0.00  0.00    +0.000 C 
BRANCH  14  16
ATOM     15  C   UNL     1      -2.299   9.945  16.641  0.00  0.00    +0.000 C 
ATOM     16  C   UNL     1      -2.372  11.357  17.199  0.00  0.00    +0.000 C 
ENDBRANCH  14  16
ENDBRANCH  13  14
ENDBRANCH   6  13
ENDBRANCH   1  10
BRANCH   4  17
ATOM     17  O   UNL     1       3.714   5.025  19.509  0.00  0.00    +0.000 OA
BRANCH  17  18
ATOM     18  C   UNL     1       4.340   4.687  18.338  0.00  0.00    +0.000 A 
ATOM     19  C   UNL     1       5.552   5.331  18.063  0.00  0.00    +0.000 A 
ATOM     20  C   UNL     1       6.230   5.092  16.856  0.00  0.00    +0.000 A 
ATOM     21  C   UNL     1       5.707   4.194  15.918  0.00  0.00    +0.000 A 
ATOM     22  C   UNL     1       4.538   3.497  16.245  0.00  0.00    +0.000 A 
ATOM     23  C   UNL     1       3.861   3.736  17.440  0.00  0.00    +0.000 A 
BRANCH  21  24
ATOM     24  C   UNL     1       6.342   4.000  14.549  0.00  0.00    +0.000 C 
ATOM     25  C   UNL     1       7.242   5.210  14.245  0.00  0.00    +0.000 C 
BRANCH  24  26
ATOM     26  N   UNL     1       5.305   3.821  13.542  0.00  0.00    +0.000 N 
ATOM     27  C   UNL     1       5.574   3.296  12.300  0.00  0.00    +0.000 C 
ATOM     28  C   UNL     1       4.372   3.169  11.404  0.00  0.00    +0.000 C 
ATOM     29  O   UNL     1       6.698   2.987  11.917  0.00  0.00    +0.000 OA
ATOM     30  H   UNL     1       4.344   3.827  13.858  0.00  0.00    +0.000 HD
ENDBRANCH  24  26
ENDBRANCH  21  24
ENDBRANCH  17  18
ENDBRANCH   4  17
TORSDOF 8
ENDMDL
MODEL 4
REMARK VINA RESULT:      -7.0      3.424      5.177
REMARK  Name = 
REMARK  12 active torsions:
REMARK  status: ('A' for Active; 'I' for Inactive)
REMARK    1  A    between atoms: C_1  and  C_2
REMARK    2  A    between atoms: C_2  and  C_3
REMARK    3  A    between atoms: C_3  and  O_4
REMARK    4  A    between atoms: O_4  and  C_5
REMARK    5  A    between atoms: C_9  and  N_10
REMARK    6  A    between atoms: C_13  and  O_14
REMARK    7  A    between atoms: O_14  and  C_15
REMARK    8  A    between atoms: C_18  and  C_19
REMARK    9  A    between atoms: C_19  and  C_20
REMARK   10  A    between atoms: C_19  and  N_21
REMARK   11  A    between atoms: C_22  and  C_23
REMARK   12  A    between atoms: C_28  and  C_29
REMARK                            x       y       z     vdW  Elec       q    Type
REMARK                         _______ _______ _______ _____ _____    ______ ____
ROOT
ATOM      1  N   UNL     1      -1.106  10.140  18.560  0.00  0.00    +0.000 N 
ATOM      2  C   UNL     1      -0.365  11.130  19.365  0.00  0.00    +0.000 C 
ATOM      3  C   UNL     1       0.972  11.290  18.649  0.00  0.00    +0.000 C 
ATOM      4  C   UNL     1       1.283   9.858  18.237  0.00  0.00    +0.000 C 
ATOM      5  C   UNL     1      -0.104   9.321  17.823  0.00  0.00    +0.000 C 
ENDROOT
BRANCH   1  10
ATOM      6  C   UNL     1      -4.298  11.691  17.436  0.00  0.00    +0.000 A 
ATOM      7  N   UNL     1      -4.346  11.387  16.122  0.00  0.00    +0.000 NA
ATOM      8  C   UNL     1      -3.327  10.671  15.633  0.00  0.00    +0.000 A 
ATOM      9  C   UNL     1      -2.264  10.230  16.400  0.00  0.00    +0.000 A 
ATOM     10  C   UNL     1      -2.189  10.559  17.762  0.00  0.00    +0.000 A 
ATOM     11  C   UNL     1      -3.253  11.323  18.299  0.00  0.00    +0.000 A 
ATOM     12  C   UNL     1      -3.272  11.833  19.714  0.00  0.00    +0.000 C 
BRANCH   6  13
ATOM     13  O   UNL     1      -5.343  12.441  17.950  0.00  0.00    +0.000 OA
BRANCH  13  14
ATOM     14  C   UNL     1      -6.560  11.687  17.984  0.00  0.00    +0.000 C 
BRANCH  14  16
ATOM     15  C   UNL     1      -7.215  10.906  20.311  0.00  0.00    +0.000 C 
ATOM     16  C   UNL     1      -7.344  11.993  19.257  0.00  0.00    +0.000 C 
ENDBRANCH  14  16
ENDBRANCH  13  14
ENDBRANCH   6  13
ENDBRANCH   1  10
BRANCH   4  17
ATOM     17  O   UNL     1       1.799   9.104  19.351  0.00  0.00    +0.000 OA
BRANCH  17  18
ATOM     18  C   UNL     1       2.271   7.849  19.067  0.00  0.00    +0.000 A 
ATOM     19  C   UNL     1       2.062   6.863  20.038  0.00  0.00    +0.000 A 
ATOM     20  C   UNL     1       2.567   5.565  19.859  0.00  0.00    +0.000 A 
ATOM     21  C   UNL     1       3.276   5.238  18.696  0.00  0.00    +0.000 A 
ATOM     22  C   UNL     1       3.405   6.212  17.699  0.00  0.00    +0.000 A 
ATOM     23  C   UNL     1       2.908   7.503  17.878  0.00  0.00    +0.000 A 
BRANCH  21  24
ATOM     24  C   UNL     1       3.947   3.884  18.518  0.00  0.00    +0.000 C 
ATOM     25  C   UNL     1       4.063   3.204  19.893  0.00  0.00    +0.000 C 
BRANCH  24  26
ATOM     26  N   UNL     1       5.244   4.053  17.877  0.00  0.00    +0.000 N 
ATOM     27  C   UNL     1       6.318   4.606  18.534  0.00  0.00    +0.000 C 
ATOM     28  C   UNL     1       7.578   4.680  17.715  0.00  0.00    +0.000 C 
ATOM     29  O   UNL     1       6.267   5.046  19.678  0.00  0.00    +0.000 OA
ATOM     30  H   UNL     1       5.424   3.512  17.042  0.00  0.00    +0.000 HD
ENDBRANCH  24  26
ENDBRANCH  21  24
ENDBRANCH  17  18
ENDBRANCH   4  17
TORSDOF 8
ENDMDL
MODEL 5
REMARK VINA RESULT:      -7.0      1.949     10.803
REMARK  Name = 
REMARK  12 active torsions:
REMARK  status: ('A' for Active; 'I' for Inactive)
REMARK    1  A    between atoms: C_1  and  C_2
REMARK    2  A    between atoms: C_2  and  C_3
REMARK    3  A    between atoms: C_3  and  O_4
REMARK    4  A    between atoms: O_4  and  C_5
REMARK    5  A    between atoms: C_9  and  N_10
REMARK    6  A    between atoms: C_13  and  O_14
REMARK    7  A    between atoms: O_14  and  C_15
REMARK    8  A    between atoms: C_18  and  C_19
REMARK    9  A    between atoms: C_19  and  C_20
REMARK   10  A    between atoms: C_19  and  N_21
REMARK   11  A    between atoms: C_22  and  C_23
REMARK   12  A    between atoms: C_28  and  C_29
REMARK                            x       y       z     vdW  Elec       q    Type
REMARK                         _______ _______ _______ _____ _____    ______ ____
ROOT
ATOM      1  N   UNL     1       3.394   5.702  19.616  0.00  0.00    +0.000 N 
ATOM      2  C   UNL     1       2.753   5.050  20.775  0.00  0.00    +0.000 C 
ATOM      3  C   UNL     1       1.282   5.437  20.673  0.00  0.00    +0.000 C 
ATOM      4  C   UNL     1       1.367   6.890  20.226  0.00  0.00    +0.000 C 
ATOM      5  C   UNL     1       2.546   6.864  19.230  0.00  0.00    +0.000 C 
ENDROOT
BRANCH   1  10
ATOM      6  C   UNL     1       4.948   4.630  16.408  0.00  0.00    +0.000 A 
ATOM      7  N   UNL     1       4.644   3.316  16.338  0.00  0.00    +0.000 NA
ATOM      8  C   UNL     1       3.927   2.811  17.348  0.00  0.00    +0.000 A 
ATOM      9  C   UNL     1       3.485   3.560  18.424  0.00  0.00    +0.000 A 
ATOM     10  C   UNL     1       3.814   4.921  18.521  0.00  0.00    +0.000 A 
ATOM     11  C   UNL     1       4.579   5.476  17.467  0.00  0.00    +0.000 A 
ATOM     12  C   UNL     1       5.089   6.891  17.471  0.00  0.00    +0.000 C 
BRANCH   6  13
ATOM     13  O   UNL     1       5.699   5.160  15.372  0.00  0.00    +0.000 OA
BRANCH  13  14
ATOM     14  C   UNL     1       6.346   4.130  14.616  0.00  0.00    +0.000 C 
BRANCH  14  16
ATOM     15  C   UNL     1       6.549   3.375  12.198  0.00  0.00    +0.000 C 
ATOM     16  C   UNL     1       5.633   3.915  13.284  0.00  0.00    +0.000 C 
ENDBRANCH  14  16
ENDBRANCH  13  14
ENDBRANCH   6  13
ENDBRANCH   1  10
BRANCH   4  17
ATOM     17  O   UNL     1       1.672   7.753  21.339  0.00  0.00    +0.000 OA
BRANCH  17  18
ATOM     18  C   UNL     1       0.847   8.833  21.513  0.00  0.00    +0.000 A 
ATOM     19  C   UNL     1       0.393   9.471  20.352  0.00  0.00    +0.000 A 
ATOM     20  C   UNL     1      -0.406  10.623  20.436  0.00  0.00    +0.000 A 
ATOM     21  C   UNL     1      -0.769  11.141  21.685  0.00  0.00    +0.000 A 
ATOM     22  C   UNL     1      -0.375  10.444  22.834  0.00  0.00    +0.000 A 
ATOM     23  C   UNL     1       0.421   9.303  22.752  0.00  0.00    +0.000 A 
BRANCH  21  24
ATOM     24  C   UNL     1      -1.525  12.454  21.822  0.00  0.00    +0.000 C 
ATOM     25  C   UNL     1      -0.527  13.616  21.681  0.00  0.00    +0.000 C 
BRANCH  24  26
ATOM     26  N   UNL     1      -2.233  12.489  23.094  0.00  0.00    +0.000 N 
ATOM     27  C   UNL     1      -3.605  12.420  23.169  0.00  0.00    +0.000 C 
ATOM     28  C   UNL     1      -4.153  12.451  24.571  0.00  0.00    +0.000 C 
ATOM     29  O   UNL     1      -4.342  12.378  22.190  0.00  0.00    +0.000 OA
ATOM     30  H   UNL     1      -1.700  12.286  23.929  0.00  0.00    +0.000 HD
ENDBRANCH  24  26
ENDBRANCH  21  24
ENDBRANCH  17  18
ENDBRANCH   4  17
TORSDOF 8
ENDMDL
MODEL 6
REMARK VINA RESULT:      -6.9      3.250      5.835
REMARK  Name = 
REMARK  12 active torsions:
REMARK  status: ('A' for Active; 'I' for Inactive)
REMARK    1  A    between atoms: C_1  and  C_2
REMARK    2  A    between atoms: C_2  and  C_3
REMARK    3  A    between atoms: C_3  and  O_4
REMARK    4  A    between atoms: O_4  and  C_5
REMARK    5  A    between atoms: C_9  and  N_10
REMARK    6  A    between atoms: C_13  and  O_14
REMARK    7  A    between atoms: O_14  and  C_15
REMARK    8  A    between atoms: C_18  and  C_19
REMARK    9  A    between atoms: C_19  and  C_20
REMARK   10  A    between atoms: C_19  and  N_21
REMARK   11  A    between atoms: C_22  and  C_23
REMARK   12  A    between atoms: C_28  and  C_29
REMARK                            x       y       z     vdW  Elec       q    Type
REMARK                         _______ _______ _______ _____ _____    ______ ____
ROOT
ATOM      1  N   UNL     1      -1.960  11.926  19.694  0.00  0.00    +0.000 N 
ATOM      2  C   UNL     1      -1.009  12.977  19.280  0.00  0.00    +0.000 C 
ATOM      3  C   UNL     1      -0.412  12.467  17.973  0.00  0.00    +0.000 C 
ATOM      4  C   UNL     1      -0.243  10.981  18.261  0.00  0.00    +0.000 C 
ATOM      5  C   UNL     1      -1.519  10.650  19.063  0.00  0.00    +0.000 C 
ENDROOT
BRANCH   1  10
ATOM      6  C   UNL     1      -5.489  12.786  20.510  0.00  0.00    +0.000 A 
ATOM      7  N   UNL     1      -6.130  12.619  19.334  0.00  0.00    +0.000 NA
ATOM      8  C   UNL     1      -5.387  12.221  18.295  0.00  0.00    +0.000 A 
ATOM      9  C   UNL     1      -4.029  11.966  18.378  0.00  0.00    +0.000 A 
ATOM     10  C   UNL     1      -3.346  12.158  19.588  0.00  0.00    +0.000 A 
ATOM     11  C   UNL     1      -4.111  12.587  20.699  0.00  0.00    +0.000 A 
ATOM     12  C   UNL     1      -3.510  12.927  22.036  0.00  0.00    +0.000 C 
BRANCH   6  13
ATOM     13  O   UNL     1      -6.247  13.209  21.589  0.00  0.00    +0.000 OA
BRANCH  13  14
ATOM     14  C   UNL     1      -7.510  12.534  21.636  0.00  0.00    +0.000 C 
BRANCH  14  16
ATOM     15  C   UNL     1      -7.172  13.129  24.083  0.00  0.00    +0.000 C 
ATOM     16  C   UNL     1      -7.916  12.261  23.081  0.00  0.00    +0.000 C 
ENDBRANCH  14  16
ENDBRANCH  13  14
ENDBRANCH   6  13
ENDBRANCH   1  10
BRANCH   4  17
ATOM     17  O   UNL     1       0.929  10.743  19.064  0.00  0.00    +0.000 OA
BRANCH  17  18
ATOM     18  C   UNL     1       1.400   9.457  19.083  0.00  0.00    +0.000 A 
ATOM     19  C   UNL     1       1.268   8.756  20.287  0.00  0.00    +0.000 A 
ATOM     20  C   UNL     1       1.779   7.454  20.416  0.00  0.00    +0.000 A 
ATOM     21  C   UNL     1       2.416   6.835  19.333  0.00  0.00    +0.000 A 
ATOM     22  C   UNL     1       2.467   7.519  18.112  0.00  0.00    +0.000 A 
ATOM     23  C   UNL     1       1.964   8.813  17.984  0.00  0.00    +0.000 A 
BRANCH  21  24
ATOM     24  C   UNL     1       3.093   5.479  19.466  0.00  0.00    +0.000 C 
ATOM     25  C   UNL     1       2.592   4.800  20.752  0.00  0.00    +0.000 C 
BRANCH  24  26
ATOM     26  N   UNL     1       4.540   5.644  19.460  0.00  0.00    +0.000 N 
ATOM     27  C   UNL     1       5.297   5.419  18.334  0.00  0.00    +0.000 C 
ATOM     28  C   UNL     1       6.771   5.661  18.516  0.00  0.00    +0.000 C 
ATOM     29  O   UNL     1       4.838   5.016  17.270  0.00  0.00    +0.000 OA
ATOM     30  H   UNL     1       4.950   6.189  20.207  0.00  0.00    +0.000 HD
ENDBRANCH  24  26
ENDBRANCH  21  24
ENDBRANCH  17  18
ENDBRANCH   4  17
TORSDOF 8
ENDMDL
MODEL 7
REMARK VINA RESULT:      -6.9      2.468     11.541
REMARK  Name = 
REMARK  12 active torsions:
REMARK  status: ('A' for Active; 'I' for Inactive)
REMARK    1  A    between atoms: C_1  and  C_2
REMARK    2  A    between atoms: C_2  and  C_3
REMARK    3  A    between atoms: C_3  and  O_4
REMARK    4  A    between atoms: O_4  and  C_5
REMARK    5  A    between atoms: C_9  and  N_10
REMARK    6  A    between atoms: C_13  and  O_14
REMARK    7  A    between atoms: O_14  and  C_15
REMARK    8  A    between atoms: C_18  and  C_19
REMARK    9  A    between atoms: C_19  and  C_20
REMARK   10  A    between atoms: C_19  and  N_21
REMARK   11  A    between atoms: C_22  and  C_23
REMARK   12  A    between atoms: C_28  and  C_29
REMARK                            x       y       z     vdW  Elec       q    Type
REMARK                         _______ _______ _______ _____ _____    ______ ____
ROOT
ATOM      1  N   UNL     1       1.678   8.488  20.308  0.00  0.00    +0.000 N 
ATOM      2  C   UNL     1       1.261   8.735  21.702  0.00  0.00    +0.000 C 
ATOM      3  C   UNL     1      -0.242   8.978  21.621  0.00  0.00    +0.000 C 
ATOM      4  C   UNL     1      -0.360   9.807  20.349  0.00  0.00    +0.000 C 
ATOM      5  C   UNL     1       0.676   9.140  19.419  0.00  0.00    +0.000 C 
ENDROOT
BRANCH   1  10
ATOM      6  C   UNL     1       2.998   5.611  18.349  0.00  0.00    +0.000 A 
ATOM      7  N   UNL     1       2.715   4.547  19.130  0.00  0.00    +0.000 NA
ATOM      8  C   UNL     1       2.089   4.798  20.285  0.00  0.00    +0.000 A 
ATOM      9  C   UNL     1       1.717   6.066  20.694  0.00  0.00    +0.000 A 
ATOM     10  C   UNL     1       2.027   7.184  19.904  0.00  0.00    +0.000 A 
ATOM     11  C   UNL     1       2.696   6.943  18.680  0.00  0.00    +0.000 A 
ATOM     12  C   UNL     1       3.178   8.040  17.770  0.00  0.00    +0.000 C 
BRANCH   6  13
ATOM     13  O   UNL     1       3.656   5.362  17.156  0.00  0.00    +0.000 OA
BRANCH  13  14
ATOM     14  C   UNL     1       4.177   4.028  17.115  0.00  0.00    +0.000 C 
BRANCH  14  16
ATOM     15  C   UNL     1       5.568   5.191  15.335  0.00  0.00    +0.000 C 
ATOM     16  C   UNL     1       5.406   3.961  16.213  0.00  0.00    +0.000 C 
ENDBRANCH  14  16
ENDBRANCH  13  14
ENDBRANCH   6  13
ENDBRANCH   1  10
BRANCH   4  17
ATOM     17  O   UNL     1       0.001  11.180  20.596  0.00  0.00    +0.000 OA
BRANCH  17  18
ATOM     18  C   UNL     1      -0.943  11.951  21.222  0.00  0.00    +0.000 A 
ATOM     19  C   UNL     1      -0.607  12.456  22.484  0.00  0.00    +0.000 A 
ATOM     20  C   UNL     1      -1.536  13.203  23.226  0.00  0.00    +0.000 A 
ATOM     21  C   UNL     1      -2.809  13.464  22.704  0.00  0.00    +0.000 A 
ATOM     22  C   UNL     1      -3.101  13.021  21.408  0.00  0.00    +0.000 A 
ATOM     23  C   UNL     1      -2.180  12.276  20.672  0.00  0.00    +0.000 A 
BRANCH  21  24
ATOM     24  C   UNL     1      -3.887  14.159  23.523  0.00  0.00    +0.000 C 
ATOM     25  C   UNL     1      -3.256  14.691  24.821  0.00  0.00    +0.000 C 
BRANCH  24  26
ATOM     26  N   UNL     1      -4.984  13.238  23.783  0.00  0.00    +0.000 N 
ATOM     27  C   UNL     1      -6.285  13.538  23.452  0.00  0.00    +0.000 C 
ATOM     28  C   UNL     1      -7.276  12.454  23.781  0.00  0.00    +0.000 C 
ATOM     29  O   UNL     1      -6.638  14.607  22.967  0.00  0.00    +0.000 OA
ATOM     30  H   UNL     1      -4.748  12.269  23.954  0.00  0.00    +0.000 HD
ENDBRANCH  24  26
ENDBRANCH  21  24
ENDBRANCH  17  18
ENDBRANCH   4  17
TORSDOF 8
ENDMDL
MODEL 8
REMARK VINA RESULT:      -6.8      5.662      8.815
REMARK  Name = 
REMARK  12 active torsions:
REMARK  status: ('A' for Active; 'I' for Inactive)
REMARK    1  A    between atoms: C_1  and  C_2
REMARK    2  A    between atoms: C_2  and  C_3
REMARK    3  A    between atoms: C_3  and  O_4
REMARK    4  A    between atoms: O_4  and  C_5
REMARK    5  A    between atoms: C_9  and  N_10
REMARK    6  A    between atoms: C_13  and  O_14
REMARK    7  A    between atoms: O_14  and  C_15
REMARK    8  A    between atoms: C_18  and  C_19
REMARK    9  A    between atoms: C_19  and  C_20
REMARK   10  A    between atoms: C_19  and  N_21
REMARK   11  A    between atoms: C_22  and  C_23
REMARK   12  A    between atoms: C_28  and  C_29
REMARK                            x       y       z     vdW  Elec       q    Type
REMARK                         _______ _______ _______ _____ _____    ______ ____
ROOT
ATOM      1  N   UNL     1       5.270   5.804  16.941  0.00  0.00    +0.000 N 
ATOM      2  C   UNL     1       6.537   5.425  16.285  0.00  0.00    +0.000 C 
ATOM      3  C   UNL     1       7.607   5.655  17.346  0.00  0.00    +0.000 C 
ATOM      4  C   UNL     1       7.132   6.946  18.000  0.00  0.00    +0.000 C 
ATOM      5  C   UNL     1       5.600   6.757  18.038  0.00  0.00    +0.000 C 
ENDROOT
BRANCH   1  10
ATOM      6  C   UNL     1       2.276   4.062  18.305  0.00  0.00    +0.000 A 
ATOM      7  N   UNL     1       2.536   2.760  18.064  0.00  0.00    +0.000 NA
ATOM      8  C   UNL     1       3.697   2.481  17.461  0.00  0.00    +0.000 A 
ATOM      9  C   UNL     1       4.622   3.443  17.098  0.00  0.00    +0.000 A 
ATOM     10  C   UNL     1       4.353   4.803  17.321  0.00  0.00    +0.000 A 
ATOM     11  C   UNL     1       3.127   5.122  17.951  0.00  0.00    +0.000 A 
ATOM     12  C   UNL     1       2.654   6.533  18.172  0.00  0.00    +0.000 C 
BRANCH   6  13
ATOM     13  O   UNL     1       1.071   4.363  18.919  0.00  0.00    +0.000 OA
BRANCH  13  14
ATOM     14  C   UNL     1       1.216   4.445  20.342  0.00  0.00    +0.000 C 
BRANCH  14  16
ATOM     15  C   UNL     1       2.397   2.698  21.759  0.00  0.00    +0.000 C 
ATOM     16  C   UNL     1       1.150   3.055  20.967  0.00  0.00    +0.000 C 
ENDBRANCH  14  16
ENDBRANCH  13  14
ENDBRANCH   6  13
ENDBRANCH   1  10
BRANCH   4  17
ATOM     17  O   UNL     1       7.475   8.088  17.191  0.00  0.00    +0.000 OA
BRANCH  17  18
ATOM     18  C   UNL     1       8.093   9.125  17.838  0.00  0.00    +0.000 A 
ATOM     19  C   UNL     1       7.867  10.409  17.329  0.00  0.00    +0.000 A 
ATOM     20  C   UNL     1       8.510  11.525  17.891  0.00  0.00    +0.000 A 
ATOM     21  C   UNL     1       9.376  11.366  18.979  0.00  0.00    +0.000 A 
ATOM     22  C   UNL     1       9.527  10.087  19.528  0.00  0.00    +0.000 A 
ATOM     23  C   UNL     1       8.893   8.978  18.968  0.00  0.00    +0.000 A 
BRANCH  21  24
ATOM     24  C   UNL     1      10.188  12.525  19.536  0.00  0.00    +0.000 C 
ATOM     25  C   UNL     1      10.019  12.558  21.065  0.00  0.00    +0.000 C 
BRANCH  24  26
ATOM     26  N   UNL     1       9.768  13.771  18.910  0.00  0.00    +0.000 N 
ATOM     27  C   UNL     1      10.664  14.759  18.573  0.00  0.00    +0.000 C 
ATOM     28  C   UNL     1      10.045  15.964  17.918  0.00  0.00    +0.000 C 
ATOM     29  O   UNL     1      11.866  14.703  18.813  0.00  0.00    +0.000 OA
ATOM     30  H   UNL     1       8.855  13.789  18.476  0.00  0.00    +0.000 HD
ENDBRANCH  24  26
ENDBRANCH  21  24
ENDBRANCH  17  18
ENDBRANCH   4  17
TORSDOF 8
ENDMDL
MODEL 9
REMARK VINA RESULT:      -6.8      2.408     10.071
REMARK  Name = 
REMARK  12 active torsions:
REMARK  status: ('A' for Active; 'I' for Inactive)
REMARK    1  A    between atoms: C_1  and  C_2
REMARK    2  A    between atoms: C_2  and  C_3
REMARK    3  A    between atoms: C_3  and  O_4
REMARK    4  A    between atoms: O_4  and  C_5
REMARK    5  A    between atoms: C_9  and  N_10
REMARK    6  A    between atoms: C_13  and  O_14
REMARK    7  A    between atoms: O_14  and  C_15
REMARK    8  A    between atoms: C_18  and  C_19
REMARK    9  A    between atoms: C_19  and  C_20
REMARK   10  A    between atoms: C_19  and  N_21
REMARK   11  A    between atoms: C_22  and  C_23
REMARK   12  A    between atoms: C_28  and  C_29
REMARK                            x       y       z     vdW  Elec       q    Type
REMARK                         _______ _______ _______ _____ _____    ______ ____
ROOT
ATOM      1  N   UNL     1       4.772   6.313  18.765  0.00  0.00    +0.000 N 
ATOM      2  C   UNL     1       3.803   5.460  19.480  0.00  0.00    +0.000 C 
ATOM      3  C   UNL     1       2.488   5.657  18.734  0.00  0.00    +0.000 C 
ATOM      4  C   UNL     1       2.518   7.148  18.430  0.00  0.00    +0.000 C 
ATOM      5  C   UNL     1       4.001   7.388  18.079  0.00  0.00    +0.000 C 
ENDROOT
BRANCH   1  10
ATOM      6  C   UNL     1       6.716   5.165  15.806  0.00  0.00    +0.000 A 
ATOM      7  N   UNL     1       7.765   4.517  16.355  0.00  0.00    +0.000 NA
ATOM      8  C   UNL     1       7.809   4.466  17.691  0.00  0.00    +0.000 A 
ATOM      9  C   UNL     1       6.842   5.022  18.509  0.00  0.00    +0.000 A 
ATOM     10  C   UNL     1       5.759   5.720  17.953  0.00  0.00    +0.000 A 
ATOM     11  C   UNL     1       5.697   5.793  16.541  0.00  0.00    +0.000 A 
ATOM     12  C   UNL     1       4.653   6.582  15.798  0.00  0.00    +0.000 C 
BRANCH   6  13
ATOM     13  O   UNL     1       6.668   5.233  14.423  0.00  0.00    +0.000 OA
BRANCH  13  14
ATOM     14  C   UNL     1       5.980   4.105  13.869  0.00  0.00    +0.000 C 
BRANCH  14  16
ATOM     15  C   UNL     1       5.729   2.726  11.750  0.00  0.00    +0.000 C 
ATOM     16  C   UNL     1       6.579   3.724  12.518  0.00  0.00    +0.000 C 
ENDBRANCH  14  16
ENDBRANCH  13  14
ENDBRANCH   6  13
ENDBRANCH   1  10
BRANCH   4  17
ATOM     17  O   UNL     1       2.148   7.917  19.591  0.00  0.00    +0.000 OA
BRANCH  17  18
ATOM     18  C   UNL     1       1.230   8.915  19.390  0.00  0.00    +0.000 A 
ATOM     19  C   UNL     1       1.016   9.315  18.066  0.00  0.00    +0.000 A 
ATOM     20  C   UNL     1       0.140  10.373  17.771  0.00  0.00    +0.000 A 
ATOM     21  C   UNL     1      -0.540  11.033  18.802  0.00  0.00    +0.000 A 
ATOM     22  C   UNL     1      -0.377  10.568  20.112  0.00  0.00    +0.000 A 
ATOM     23  C   UNL     1       0.495   9.520  20.406  0.00  0.00    +0.000 A 
BRANCH  21  24
ATOM     24  C   UNL     1      -1.398  12.263  18.540  0.00  0.00    +0.000 C 
ATOM     25  C   UNL     1      -0.998  13.366  19.535  0.00  0.00    +0.000 C 
BRANCH  24  26
ATOM     26  N   UNL     1      -2.808  11.915  18.643  0.00  0.00    +0.000 N 
ATOM     27  C   UNL     1      -3.513  11.398  17.581  0.00  0.00    +0.000 C 
ATOM     28  C   UNL     1      -4.953  11.082  17.885  0.00  0.00    +0.000 C 
ATOM     29  O   UNL     1      -3.042  11.237  16.461  0.00  0.00    +0.000 OA
ATOM     30  H   UNL     1      -3.192  11.797  19.572  0.00  0.00    +0.000 HD
ENDBRANCH  24  26
ENDBRANCH  21  24
ENDBRANCH  17  18
ENDBRANCH   4  17
TORSDOF 8
ENDMDL
