MODEL 1
REMARK VINA RESULT:      -7.3      0.000      0.000
REMARK  Name = 
REMARK  10 active torsions:
REMARK  status: ('A' for Active; 'I' for Inactive)
REMARK    1  A    between atoms: C_1  and  O_2
REMARK    2  A    between atoms: O_2  and  C_3
REMARK    3  A    between atoms: N_8  and  C_9
REMARK    4  A    between atoms: C_12  and  C_13
REMARK    5  A    between atoms: N_19  and  C_20
REMARK    6  A    between atoms: C_21  and  C_22
REMARK    7  A    between atoms: C_24  and  C_25
REMARK    8  A    between atoms: C_26  and  C_27
REMARK    9  A    between atoms: C_34  and  O_35
REMARK   10  A    between atoms: O_35  and  C_36
REMARK                            x       y       z     vdW  Elec       q    Type
REMARK                         _______ _______ _______ _____ _____    ______ ____
ROOT
ATOM      1  C   UNL     1      -3.536  10.433  16.269  0.00  0.00    +0.000 A 
ATOM      2  C   UNL     1      -2.276  10.069  16.763  0.00  0.00    +0.000 A 
ATOM      3  C   UNL     1      -1.754  10.609  17.924  0.00  0.00    +0.000 A 
ATOM      4  N   UNL     1      -0.612  10.119  18.379  0.00  0.00    +0.000 NA
ATOM      5  C   UNL     1      -0.131  10.583  19.538  0.00  0.00    +0.000 A 
ATOM      6  N   UNL     1       1.066  10.055  20.023  0.00  0.00    +0.000 N 
ATOM      7  N   UNL     1      -0.732  11.529  20.259  0.00  0.00    +0.000 NA
ATOM      8  C   UNL     1      -1.898  12.027  19.796  0.00  0.00    +0.000 A 
ATOM      9  N   UNL     1      -2.581  13.020  20.557  0.00  0.00    +0.000 N 
ATOM     10  C   UNL     1      -2.462  11.600  18.587  0.00  0.00    +0.000 A 
ATOM     11  C   UNL     1      -3.650  12.094  18.009  0.00  0.00    +0.000 A 
ATOM     12  C   UNL     1      -4.206  11.506  16.868  0.00  0.00    +0.000 A 
ATOM     13  H   UNL     1       1.388  10.538  20.846  0.00  0.00    +0.000 HD
ATOM     14  H   UNL     1      -3.518  12.683  20.772  0.00  0.00    +0.000 HD
ENDROOT
BRANCH   9  15
ATOM     15  C   UNL     1      -2.024  13.691  21.674  0.00  0.00    +0.000 A 
ATOM     16  C   UNL     1      -2.334  13.334  22.997  0.00  0.00    +0.000 A 
ATOM     17  C   UNL     1      -3.178  12.140  23.357  0.00  0.00    +0.000 C 
ATOM     18  C   UNL     1      -1.856  14.133  24.051  0.00  0.00    +0.000 A 
ATOM     19  C   UNL     1      -1.016  15.236  23.829  0.00  0.00    +0.000 A 
ATOM     20  C   UNL     1      -0.647  15.532  22.517  0.00  0.00    +0.000 A 
ATOM     21  C   UNL     1      -1.146  14.766  21.463  0.00  0.00    +0.000 A 
ATOM     22  F   UNL     1      -0.796  15.088  20.206  0.00  0.00    +0.000 F 
BRANCH  19  23
ATOM     23  C   UNL     1      -0.559  16.104  24.930  0.00  0.00    +0.000 C 
ATOM     24  C   UNL     1      -0.939  15.935  26.205  0.00  0.00    +0.000 C 
BRANCH  24  25
ATOM     25  C   UNL     1      -0.428  16.796  27.349  0.00  0.00    +0.000 C 
ATOM     26  N   UNL     1      -0.003  17.510  28.298  0.00  0.00    +0.000 NA
ENDBRANCH  24  25
ENDBRANCH  19  23
ENDBRANCH   9  15
BRANCH   6  27
ATOM     27  C   UNL     1       1.611   8.796  19.735  0.00  0.00    +0.000 A 
ATOM     28  C   UNL     1       2.181   8.548  18.481  0.00  0.00    +0.000 A 
ATOM     29  C   UNL     1       2.600   7.258  18.132  0.00  0.00    +0.000 A 
ATOM     30  C   UNL     1       2.466   6.202  19.041  0.00  0.00    +0.000 A 
ATOM     31  C   UNL     1       1.934   6.445  20.304  0.00  0.00    +0.000 A 
ATOM     32  C   UNL     1       1.509   7.729  20.640  0.00  0.00    +0.000 A 
BRANCH  30  33
ATOM     33  C   UNL     1       2.850   4.877  18.674  0.00  0.00    +0.000 C 
ATOM     34  N   UNL     1       3.162   3.801  18.355  0.00  0.00    +0.000 NA
ENDBRANCH  30  33
ENDBRANCH   6  27
BRANCH   1  36
ATOM     35  C   UNL     1      -3.458   9.973  13.948  0.00  0.00    +0.000 C 
ATOM     36  O   UNL     1      -4.098   9.766  15.213  0.00  0.00    +0.000 OA
ENDBRANCH   1  36
BRANCH  12  37
ATOM     37  O   UNL     1      -5.383  12.103  16.524  0.00  0.00    +0.000 OA
ATOM     38  C   UNL     1      -6.172  12.717  17.527  0.00  0.00    +0.000 C 
ENDBRANCH  12  37
TORSDOF 7
ENDMDL
MODEL 2
REMARK VINA RESULT:      -7.0      0.992      1.486
REMARK  Name = 
REMARK  10 active torsions:
REMARK  status: ('A' for Active; 'I' for Inactive)
REMARK    1  A    between atoms: C_1  and  O_2
REMARK    2  A    between atoms: O_2  and  C_3
REMARK    3  A    between atoms: N_8  and  C_9
REMARK    4  A    between atoms: C_12  and  C_13
REMARK    5  A    between atoms: N_19  and  C_20
REMARK    6  A    between atoms: C_21  and  C_22
REMARK    7  A    between atoms: C_24  and  C_25
REMARK    8  A    between atoms: C_26  and  C_27
REMARK    9  A    between atoms: C_34  and  O_35
REMARK   10  A    between atoms: O_35  and  C_36
REMARK                            x       y       z     vdW  Elec       q    Type
REMARK                         _______ _______ _______ _____ _____    ______ ____
ROOT
ATOM      1  C   UNL     1      -3.642  10.479  16.198  0.00  0.00    +0.000 A 
ATOM      2  C   UNL     1      -2.390  10.179  16.753  0.00  0.00    +0.000 A 
ATOM      3  C   UNL     1      -1.964  10.720  17.952  0.00  0.00    +0.000 A 
ATOM      4  N   UNL     1      -0.821  10.288  18.459  0.00  0.00    +0.000 NA
ATOM      5  C   UNL     1      -0.432  10.751  19.652  0.00  0.00    +0.000 A 
ATOM      6  N   UNL     1       0.767  10.282  20.191  0.00  0.00    +0.000 N 
ATOM      7  N   UNL     1      -1.127  11.641  20.359  0.00  0.00    +0.000 NA
ATOM      8  C   UNL     1      -2.295  12.080  19.844  0.00  0.00    +0.000 A 
ATOM      9  N   UNL     1      -3.076  13.011  20.587  0.00  0.00    +0.000 N 
ATOM     10  C   UNL     1      -2.766  11.650  18.596  0.00  0.00    +0.000 A 
ATOM     11  C   UNL     1      -3.949  12.087  17.965  0.00  0.00    +0.000 A 
ATOM     12  C   UNL     1      -4.407  11.495  16.782  0.00  0.00    +0.000 A 
ATOM     13  H   UNL     1       1.015  10.764  21.040  0.00  0.00    +0.000 HD
ATOM     14  H   UNL     1      -4.001  12.614  20.742  0.00  0.00    +0.000 HD
ENDROOT
BRANCH   9  15
ATOM     15  C   UNL     1      -2.622  13.687  21.747  0.00  0.00    +0.000 A 
ATOM     16  C   UNL     1      -1.883  14.880  21.682  0.00  0.00    +0.000 A 
ATOM     17  C   UNL     1      -1.612  15.617  20.397  0.00  0.00    +0.000 C 
ATOM     18  C   UNL     1      -1.345  15.417  22.866  0.00  0.00    +0.000 A 
ATOM     19  C   UNL     1      -1.585  14.839  24.123  0.00  0.00    +0.000 A 
ATOM     20  C   UNL     1      -2.388  13.700  24.184  0.00  0.00    +0.000 A 
ATOM     21  C   UNL     1      -2.895  13.141  23.011  0.00  0.00    +0.000 A 
ATOM     22  F   UNL     1      -3.646  12.030  23.096  0.00  0.00    +0.000 F 
BRANCH  19  23
ATOM     23  C   UNL     1      -0.977  15.372  25.356  0.00  0.00    +0.000 C 
ATOM     24  C   UNL     1      -1.220  16.606  25.822  0.00  0.00    +0.000 C 
BRANCH  24  25
ATOM     25  C   UNL     1      -0.637  17.138  27.120  0.00  0.00    +0.000 C 
ATOM     26  N   UNL     1      -0.153  17.579  28.198  0.00  0.00    +0.000 NA
ENDBRANCH  24  25
ENDBRANCH  19  23
ENDBRANCH   9  15
BRANCH   6  27
ATOM     27  C   UNL     1       1.402   9.066  19.906  0.00  0.00    +0.000 A 
ATOM     28  C   UNL     1       1.986   8.855  18.651  0.00  0.00    +0.000 A 
ATOM     29  C   UNL     1       2.498   7.598  18.307  0.00  0.00    +0.000 A 
ATOM     30  C   UNL     1       2.444   6.539  19.220  0.00  0.00    +0.000 A 
ATOM     31  C   UNL     1       1.898   6.747  20.484  0.00  0.00    +0.000 A 
ATOM     32  C   UNL     1       1.381   7.999  20.815  0.00  0.00    +0.000 A 
BRANCH  30  33
ATOM     33  C   UNL     1       2.923   5.244  18.857  0.00  0.00    +0.000 C 
ATOM     34  N   UNL     1       3.322   4.185  18.581  0.00  0.00    +0.000 NA
ENDBRANCH  30  33
ENDBRANCH   6  27
BRANCH   1  36
ATOM     35  C   UNL     1      -3.376  10.039  13.888  0.00  0.00    +0.000 C 
ATOM     36  O   UNL     1      -4.104   9.806  15.099  0.00  0.00    +0.000 OA
ENDBRANCH   1  36
BRANCH  12  37
ATOM     37  O   UNL     1      -5.598  12.030  16.388  0.00  0.00    +0.000 OA
ATOM     38  C   UNL     1      -6.365  12.781  17.311  0.00  0.00    +0.000 C 
ENDBRANCH  12  37
TORSDOF 7
ENDMDL
MODEL 3
REMARK VINA RESULT:      -6.5      4.334      9.512
REMARK  Name = 
REMARK  10 active torsions:
REMARK  status: ('A' for Active; 'I' for Inactive)
REMARK    1  A    between atoms: C_1  and  O_2
REMARK    2  A    between atoms: O_2  and  C_3
REMARK    3  A    between atoms: N_8  and  C_9
REMARK    4  A    between atoms: C_12  and  C_13
REMARK    5  A    between atoms: N_19  and  C_20
REMARK    6  A    between atoms: C_21  and  C_22
REMARK    7  A    between atoms: C_24  and  C_25
REMARK    8  A    between atoms: C_26  and  C_27
REMARK    9  A    between atoms: C_34  and  O_35
REMARK   10  A    between atoms: O_35  and  C_36
REMARK                            x       y       z     vdW  Elec       q    Type
REMARK                         _______ _______ _______ _____ _____    ______ ____
ROOT
ATOM      1  C   UNL     1       1.712  14.947  18.757  0.00  0.00    +0.000 A 
ATOM      2  C   UNL     1       0.533  14.309  18.347  0.00  0.00    +0.000 A 
ATOM      3  C   UNL     1       0.372  12.938  18.416  0.00  0.00    +0.000 A 
ATOM      4  N   UNL     1      -0.816  12.435  18.121  0.00  0.00    +0.000 NA
ATOM      5  C   UNL     1      -1.005  11.117  18.252  0.00  0.00    +0.000 A 
ATOM      6  N   UNL     1      -2.263  10.591  17.953  0.00  0.00    +0.000 N 
ATOM      7  N   UNL     1      -0.056  10.272  18.650  0.00  0.00    +0.000 NA
ATOM      8  C   UNL     1       1.156  10.785  18.954  0.00  0.00    +0.000 A 
ATOM      9  N   UNL     1       2.186   9.913  19.410  0.00  0.00    +0.000 N 
ATOM     10  C   UNL     1       1.436  12.153  18.834  0.00  0.00    +0.000 A 
ATOM     11  C   UNL     1       2.680  12.767  19.088  0.00  0.00    +0.000 A 
ATOM     12  C   UNL     1       2.824  14.158  19.075  0.00  0.00    +0.000 A 
ATOM     13  H   UNL     1      -2.272   9.585  17.989  0.00  0.00    +0.000 HD
ATOM     14  H   UNL     1       2.504  10.230  20.324  0.00  0.00    +0.000 HD
ENDROOT
BRANCH   9  15
ATOM     15  C   UNL     1       2.108   8.498  19.371  0.00  0.00    +0.000 A 
ATOM     16  C   UNL     1       1.691   7.738  20.477  0.00  0.00    +0.000 A 
ATOM     17  C   UNL     1       1.172   8.346  21.753  0.00  0.00    +0.000 C 
ATOM     18  C   UNL     1       1.773   6.335  20.411  0.00  0.00    +0.000 A 
ATOM     19  C   UNL     1       2.190   5.665  19.250  0.00  0.00    +0.000 A 
ATOM     20  C   UNL     1       2.523   6.428  18.131  0.00  0.00    +0.000 A 
ATOM     21  C   UNL     1       2.479   7.821  18.199  0.00  0.00    +0.000 A 
ATOM     22  F   UNL     1       2.829   8.533  17.115  0.00  0.00    +0.000 F 
BRANCH  19  23
ATOM     23  C   UNL     1       2.326   4.198  19.201  0.00  0.00    +0.000 C 
ATOM     24  C   UNL     1       3.345   3.575  18.591  0.00  0.00    +0.000 C 
BRANCH  24  25
ATOM     25  C   UNL     1       3.516   2.065  18.585  0.00  0.00    +0.000 C 
ATOM     26  N   UNL     1       3.659   0.812  18.580  0.00  0.00    +0.000 NA
ENDBRANCH  24  25
ENDBRANCH  19  23
ENDBRANCH   9  15
BRANCH   6  27
ATOM     27  C   UNL     1      -3.490  11.269  17.983  0.00  0.00    +0.000 A 
ATOM     28  C   UNL     1      -4.248  11.401  16.814  0.00  0.00    +0.000 A 
ATOM     29  C   UNL     1      -5.402  12.194  16.801  0.00  0.00    +0.000 A 
ATOM     30  C   UNL     1      -5.820  12.854  17.963  0.00  0.00    +0.000 A 
ATOM     31  C   UNL     1      -5.093  12.699  19.140  0.00  0.00    +0.000 A 
ATOM     32  C   UNL     1      -3.939  11.917  19.142  0.00  0.00    +0.000 A 
BRANCH  30  33
ATOM     33  C   UNL     1      -6.970  13.699  17.943  0.00  0.00    +0.000 C 
ATOM     34  N   UNL     1      -7.916  14.377  17.911  0.00  0.00    +0.000 NA
ENDBRANCH  30  33
ENDBRANCH   6  27
BRANCH   1  36
ATOM     35  C   UNL     1       1.048  16.905  19.909  0.00  0.00    +0.000 C 
ATOM     36  O   UNL     1       1.784  16.312  18.833  0.00  0.00    +0.000 OA
ENDBRANCH   1  36
BRANCH  12  37
ATOM     37  O   UNL     1       4.092  14.530  19.410  0.00  0.00    +0.000 OA
ATOM     38  C   UNL     1       4.348  15.045  20.704  0.00  0.00    +0.000 C 
ENDBRANCH  12  37
TORSDOF 7
ENDMDL
MODEL 4
REMARK VINA RESULT:      -6.3      4.144      9.043
REMARK  Name = 
REMARK  10 active torsions:
REMARK  status: ('A' for Active; 'I' for Inactive)
REMARK    1  A    between atoms: C_1  and  O_2
REMARK    2  A    between atoms: O_2  and  C_3
REMARK    3  A    between atoms: N_8  and  C_9
REMARK    4  A    between atoms: C_12  and  C_13
REMARK    5  A    between atoms: N_19  and  C_20
REMARK    6  A    between atoms: C_21  and  C_22
REMARK    7  A    between atoms: C_24  and  C_25
REMARK    8  A    between atoms: C_26  and  C_27
REMARK    9  A    between atoms: C_34  and  O_35
REMARK   10  A    between atoms: O_35  and  C_36
REMARK                            x       y       z     vdW  Elec       q    Type
REMARK                         _______ _______ _______ _____ _____    ______ ____
ROOT
ATOM      1  C   UNL     1      -1.887  14.470  24.187  0.00  0.00    +0.000 A 
ATOM      2  C   UNL     1      -0.764  14.438  23.349  0.00  0.00    +0.000 A 
ATOM      3  C   UNL     1      -0.806  13.891  22.080  0.00  0.00    +0.000 A 
ATOM      4  N   UNL     1       0.267  14.012  21.315  0.00  0.00    +0.000 NA
ATOM      5  C   UNL     1       0.216  13.551  20.060  0.00  0.00    +0.000 A 
ATOM      6  N   UNL     1       1.345  13.693  19.251  0.00  0.00    +0.000 N 
ATOM      7  N   UNL     1      -0.855  12.957  19.536  0.00  0.00    +0.000 NA
ATOM      8  C   UNL     1      -1.951  12.836  20.315  0.00  0.00    +0.000 A 
ATOM      9  N   UNL     1      -3.123  12.231  19.777  0.00  0.00    +0.000 N 
ATOM     10  C   UNL     1      -1.974  13.286  21.642  0.00  0.00    +0.000 A 
ATOM     11  C   UNL     1      -3.057  13.162  22.537  0.00  0.00    +0.000 A 
ATOM     12  C   UNL     1      -3.034  13.767  23.799  0.00  0.00    +0.000 A 
ATOM     13  H   UNL     1       1.236  13.228  18.364  0.00  0.00    +0.000 HD
ATOM     14  H   UNL     1      -3.897  12.890  19.851  0.00  0.00    +0.000 HD
ENDROOT
BRANCH   9  15
ATOM     15  C   UNL     1      -3.169  11.546  18.537  0.00  0.00    +0.000 A 
ATOM     16  C   UNL     1      -2.207  10.589  18.171  0.00  0.00    +0.000 A 
ATOM     17  C   UNL     1      -1.120  10.112  19.096  0.00  0.00    +0.000 C 
ATOM     18  C   UNL     1      -2.237  10.054  16.870  0.00  0.00    +0.000 A 
ATOM     19  C   UNL     1      -3.241  10.389  15.948  0.00  0.00    +0.000 A 
ATOM     20  C   UNL     1      -4.238  11.278  16.350  0.00  0.00    +0.000 A 
ATOM     21  C   UNL     1      -4.196  11.841  17.626  0.00  0.00    +0.000 A 
ATOM     22  F   UNL     1      -5.154  12.713  17.981  0.00  0.00    +0.000 F 
BRANCH  19  23
ATOM     23  C   UNL     1      -3.239   9.869  14.568  0.00  0.00    +0.000 C 
ATOM     24  C   UNL     1      -4.155  10.215  13.651  0.00  0.00    +0.000 C 
BRANCH  24  25
ATOM     25  C   UNL     1      -4.125   9.722  12.214  0.00  0.00    +0.000 C 
ATOM     26  N   UNL     1      -4.101   9.312  11.022  0.00  0.00    +0.000 NA
ENDBRANCH  24  25
ENDBRANCH  19  23
ENDBRANCH   9  15
BRANCH   6  27
ATOM     27  C   UNL     1       2.363  14.648  19.382  0.00  0.00    +0.000 A 
ATOM     28  C   UNL     1       2.378  15.776  18.553  0.00  0.00    +0.000 A 
ATOM     29  C   UNL     1       3.462  16.662  18.579  0.00  0.00    +0.000 A 
ATOM     30  C   UNL     1       4.538  16.437  19.445  0.00  0.00    +0.000 A 
ATOM     31  C   UNL     1       4.516  15.338  20.299  0.00  0.00    +0.000 A 
ATOM     32  C   UNL     1       3.439  14.455  20.260  0.00  0.00    +0.000 A 
BRANCH  30  33
ATOM     33  C   UNL     1       5.666  17.312  19.442  0.00  0.00    +0.000 C 
ATOM     34  N   UNL     1       6.592  18.019  19.460  0.00  0.00    +0.000 NA
ENDBRANCH  30  33
ENDBRANCH   6  27
BRANCH   1  36
ATOM     35  C   UNL     1      -0.713  15.991  25.569  0.00  0.00    +0.000 C 
ATOM     36  O   UNL     1      -1.863  15.161  25.369  0.00  0.00    +0.000 OA
ENDBRANCH   1  36
BRANCH  12  37
ATOM     37  O   UNL     1      -4.207  13.571  24.466  0.00  0.00    +0.000 OA
ATOM     38  C   UNL     1      -4.698  12.255  24.638  0.00  0.00    +0.000 C 
ENDBRANCH  12  37
TORSDOF 7
ENDMDL
MODEL 5
REMARK VINA RESULT:      -6.1      1.249      1.674
REMARK  Name = 
REMARK  10 active torsions:
REMARK  status: ('A' for Active; 'I' for Inactive)
REMARK    1  A    between atoms: C_1  and  O_2
REMARK    2  A    between atoms: O_2  and  C_3
REMARK    3  A    between atoms: N_8  and  C_9
REMARK    4  A    between atoms: C_12  and  C_13
REMARK    5  A    between atoms: N_19  and  C_20
REMARK    6  A    between atoms: C_21  and  C_22
REMARK    7  A    between atoms: C_24  and  C_25
REMARK    8  A    between atoms: C_26  and  C_27
REMARK    9  A    between atoms: C_34  and  O_35
REMARK   10  A    between atoms: O_35  and  C_36
REMARK                            x       y       z     vdW  Elec       q    Type
REMARK                         _______ _______ _______ _____ _____    ______ ____
ROOT
ATOM      1  C   UNL     1      -4.439  11.404  17.220  0.00  0.00    +0.000 A 
ATOM      2  C   UNL     1      -3.147  11.043  17.629  0.00  0.00    +0.000 A 
ATOM      3  C   UNL     1      -2.612  11.457  18.834  0.00  0.00    +0.000 A 
ATOM      4  N   UNL     1      -1.434  10.971  19.191  0.00  0.00    +0.000 NA
ATOM      5  C   UNL     1      -0.936  11.308  20.387  0.00  0.00    +0.000 A 
ATOM      6  N   UNL     1       0.300  10.782  20.767  0.00  0.00    +0.000 N 
ATOM      7  N   UNL     1      -1.554  12.124  21.239  0.00  0.00    +0.000 NA
ATOM      8  C   UNL     1      -2.757  12.618  20.876  0.00  0.00    +0.000 A 
ATOM      9  N   UNL     1      -3.458  13.472  21.775  0.00  0.00    +0.000 N 
ATOM     10  C   UNL     1      -3.341  12.320  19.638  0.00  0.00    +0.000 A 
ATOM     11  C   UNL     1      -4.570  12.824  19.161  0.00  0.00    +0.000 A 
ATOM     12  C   UNL     1      -5.137  12.358  17.970  0.00  0.00    +0.000 A 
ATOM     13  H   UNL     1       0.628  11.173  21.635  0.00  0.00    +0.000 HD
ATOM     14  H   UNL     1      -4.371  13.065  21.972  0.00  0.00    +0.000 HD
ENDROOT
BRANCH   9  15
ATOM     15  C   UNL     1      -2.895  14.023  22.954  0.00  0.00    +0.000 A 
ATOM     16  C   UNL     1      -3.323  13.649  24.238  0.00  0.00    +0.000 A 
ATOM     17  C   UNL     1      -4.319  12.548  24.491  0.00  0.00    +0.000 C 
ATOM     18  C   UNL     1      -2.819  14.339  25.355  0.00  0.00    +0.000 A 
ATOM     19  C   UNL     1      -1.845  15.343  25.235  0.00  0.00    +0.000 A 
ATOM     20  C   UNL     1      -1.368  15.651  23.961  0.00  0.00    +0.000 A 
ATOM     21  C   UNL     1      -1.888  14.995  22.845  0.00  0.00    +0.000 A 
ATOM     22  F   UNL     1      -1.429  15.327  21.626  0.00  0.00    +0.000 F 
BRANCH  19  23
ATOM     23  C   UNL     1      -1.358  16.103  26.401  0.00  0.00    +0.000 C 
ATOM     24  C   UNL     1      -0.248  16.854  26.376  0.00  0.00    +0.000 C 
BRANCH  24  25
ATOM     25  C   UNL     1       0.228  17.680  27.561  0.00  0.00    +0.000 C 
ATOM     26  N   UNL     1       0.623  18.365  28.543  0.00  0.00    +0.000 NA
ENDBRANCH  24  25
ENDBRANCH  19  23
ENDBRANCH   9  15
BRANCH   6  27
ATOM     27  C   UNL     1       0.892   9.598  20.304  0.00  0.00    +0.000 A 
ATOM     28  C   UNL     1       1.052   8.509  21.169  0.00  0.00    +0.000 A 
ATOM     29  C   UNL     1       1.765   7.376  20.760  0.00  0.00    +0.000 A 
ATOM     30  C   UNL     1       2.316   7.314  19.474  0.00  0.00    +0.000 A 
ATOM     31  C   UNL     1       2.132   8.376  18.594  0.00  0.00    +0.000 A 
ATOM     32  C   UNL     1       1.429   9.505  19.013  0.00  0.00    +0.000 A 
BRANCH  30  33
ATOM     33  C   UNL     1       3.083   6.180  19.069  0.00  0.00    +0.000 C 
ATOM     34  N   UNL     1       3.694   5.250  18.723  0.00  0.00    +0.000 NA
ENDBRANCH  30  33
ENDBRANCH   6  27
BRANCH   1  36
ATOM     35  C   UNL     1      -4.081  10.452  15.083  0.00  0.00    +0.000 C 
ATOM     36  O   UNL     1      -5.005  10.848  16.104  0.00  0.00    +0.000 OA
ENDBRANCH   1  36
BRANCH  12  37
ATOM     37  O   UNL     1      -6.351  12.934  17.738  0.00  0.00    +0.000 OA
ATOM     38  C   UNL     1      -6.527  13.753  16.597  0.00  0.00    +0.000 C 
ENDBRANCH  12  37
TORSDOF 7
ENDMDL
MODEL 6
REMARK VINA RESULT:      -6.0      4.503      8.670
REMARK  Name = 
REMARK  10 active torsions:
REMARK  status: ('A' for Active; 'I' for Inactive)
REMARK    1  A    between atoms: C_1  and  O_2
REMARK    2  A    between atoms: O_2  and  C_3
REMARK    3  A    between atoms: N_8  and  C_9
REMARK    4  A    between atoms: C_12  and  C_13
REMARK    5  A    between atoms: N_19  and  C_20
REMARK    6  A    between atoms: C_21  and  C_22
REMARK    7  A    between atoms: C_24  and  C_25
REMARK    8  A    between atoms: C_26  and  C_27
REMARK    9  A    between atoms: C_34  and  O_35
REMARK   10  A    between atoms: O_35  and  C_36
REMARK                            x       y       z     vdW  Elec       q    Type
REMARK                         _______ _______ _______ _____ _____    ______ ____
ROOT
ATOM      1  C   UNL     1      -1.563  16.301  21.356  0.00  0.00    +0.000 A 
ATOM      2  C   UNL     1      -0.169  16.163  21.423  0.00  0.00    +0.000 A 
ATOM      3  C   UNL     1       0.462  14.949  21.226  0.00  0.00    +0.000 A 
ATOM      4  N   UNL     1       1.785  14.935  21.189  0.00  0.00    +0.000 NA
ATOM      5  C   UNL     1       2.408  13.780  20.929  0.00  0.00    +0.000 A 
ATOM      6  N   UNL     1       3.803  13.771  20.876  0.00  0.00    +0.000 N 
ATOM      7  N   UNL     1       1.769  12.629  20.719  0.00  0.00    +0.000 NA
ATOM      8  C   UNL     1       0.420  12.644  20.754  0.00  0.00    +0.000 A 
ATOM      9  N   UNL     1      -0.295  11.437  20.506  0.00  0.00    +0.000 N 
ATOM     10  C   UNL     1      -0.305  13.811  21.029  0.00  0.00    +0.000 A 
ATOM     11  C   UNL     1      -1.709  13.908  21.127  0.00  0.00    +0.000 A 
ATOM     12  C   UNL     1      -2.347  15.146  21.267  0.00  0.00    +0.000 A 
ATOM     13  H   UNL     1       4.172  12.839  20.772  0.00  0.00    +0.000 HD
ATOM     14  H   UNL     1      -0.926  11.584  19.720  0.00  0.00    +0.000 HD
ENDROOT
BRANCH   9  15
ATOM     15  C   UNL     1       0.306  10.156  20.431  0.00  0.00    +0.000 A 
ATOM     16  C   UNL     1       0.380   9.293  21.538  0.00  0.00    +0.000 A 
ATOM     17  C   UNL     1      -0.274   9.587  22.862  0.00  0.00    +0.000 C 
ATOM     18  C   UNL     1       1.114   8.098  21.425  0.00  0.00    +0.000 A 
ATOM     19  C   UNL     1       1.715   7.703  20.220  0.00  0.00    +0.000 A 
ATOM     20  C   UNL     1       1.566   8.528  19.105  0.00  0.00    +0.000 A 
ATOM     21  C   UNL     1       0.870   9.731  19.217  0.00  0.00    +0.000 A 
ATOM     22  F   UNL     1       0.761  10.519  18.135  0.00  0.00    +0.000 F 
BRANCH  19  23
ATOM     23  C   UNL     1       2.529   6.477  20.119  0.00  0.00    +0.000 C 
ATOM     24  C   UNL     1       2.030   5.246  20.301  0.00  0.00    +0.000 C 
BRANCH  24  25
ATOM     25  C   UNL     1       2.855   3.979  20.145  0.00  0.00    +0.000 C 
ATOM     26  N   UNL     1       3.539   2.928  20.014  0.00  0.00    +0.000 NA
ENDBRANCH  24  25
ENDBRANCH  19  23
ENDBRANCH   9  15
BRANCH   6  27
ATOM     27  C   UNL     1       4.643  14.856  20.593  0.00  0.00    +0.000 A 
ATOM     28  C   UNL     1       4.666  15.410  19.308  0.00  0.00    +0.000 A 
ATOM     29  C   UNL     1       5.601  16.400  18.977  0.00  0.00    +0.000 A 
ATOM     30  C   UNL     1       6.515  16.856  19.933  0.00  0.00    +0.000 A 
ATOM     31  C   UNL     1       6.477  16.338  21.225  0.00  0.00    +0.000 A 
ATOM     32  C   UNL     1       5.551  15.345  21.543  0.00  0.00    +0.000 A 
BRANCH  30  33
ATOM     33  C   UNL     1       7.498  17.832  19.588  0.00  0.00    +0.000 C 
ATOM     34  N   UNL     1       8.291  18.631  19.288  0.00  0.00    +0.000 NA
ENDBRANCH  30  33
ENDBRANCH   6  27
BRANCH   1  36
ATOM     35  C   UNL     1      -2.255  18.128  22.692  0.00  0.00    +0.000 C 
ATOM     36  O   UNL     1      -2.150  17.538  21.391  0.00  0.00    +0.000 OA
ENDBRANCH   1  36
BRANCH  12  37
ATOM     37  O   UNL     1      -3.704  15.007  21.276  0.00  0.00    +0.000 OA
ATOM     38  C   UNL     1      -4.273  13.718  21.135  0.00  0.00    +0.000 C 
ENDBRANCH  12  37
TORSDOF 7
ENDMDL
MODEL 7
REMARK VINA RESULT:      -5.9      1.515      1.994
REMARK  Name = 
REMARK  10 active torsions:
REMARK  status: ('A' for Active; 'I' for Inactive)
REMARK    1  A    between atoms: C_1  and  O_2
REMARK    2  A    between atoms: O_2  and  C_3
REMARK    3  A    between atoms: N_8  and  C_9
REMARK    4  A    between atoms: C_12  and  C_13
REMARK    5  A    between atoms: N_19  and  C_20
REMARK    6  A    between atoms: C_21  and  C_22
REMARK    7  A    between atoms: C_24  and  C_25
REMARK    8  A    between atoms: C_26  and  C_27
REMARK    9  A    between atoms: C_34  and  O_35
REMARK   10  A    between atoms: O_35  and  C_36
REMARK                            x       y       z     vdW  Elec       q    Type
REMARK                         _______ _______ _______ _____ _____    ______ ____
ROOT
ATOM      1  C   UNL     1      -4.177  11.274  17.168  0.00  0.00    +0.000 A 
ATOM      2  C   UNL     1      -2.896  10.965  17.646  0.00  0.00    +0.000 A 
ATOM      3  C   UNL     1      -2.413  11.467  18.840  0.00  0.00    +0.000 A 
ATOM      4  N   UNL     1      -1.241  11.027  19.270  0.00  0.00    +0.000 NA
ATOM      5  C   UNL     1      -0.794  11.450  20.459  0.00  0.00    +0.000 A 
ATOM      6  N   UNL     1       0.436  10.974  20.916  0.00  0.00    +0.000 N 
ATOM      7  N   UNL     1      -1.457  12.307  21.233  0.00  0.00    +0.000 NA
ATOM      8  C   UNL     1      -2.654  12.753  20.795  0.00  0.00    +0.000 A 
ATOM      9  N   UNL     1      -3.403  13.649  21.612  0.00  0.00    +0.000 N 
ATOM     10  C   UNL     1      -3.186  12.365  19.559  0.00  0.00    +0.000 A 
ATOM     11  C   UNL     1      -4.404  12.813  19.006  0.00  0.00    +0.000 A 
ATOM     12  C   UNL     1      -4.919  12.260  17.828  0.00  0.00    +0.000 A 
ATOM     13  H   UNL     1       0.724  11.426  21.769  0.00  0.00    +0.000 HD
ATOM     14  H   UNL     1      -4.315  13.238  21.801  0.00  0.00    +0.000 HD
ENDROOT
BRANCH   9  15
ATOM     15  C   UNL     1      -2.893  14.286  22.771  0.00  0.00    +0.000 A 
ATOM     16  C   UNL     1      -2.056  15.412  22.704  0.00  0.00    +0.000 A 
ATOM     17  C   UNL     1      -1.723  16.121  21.418  0.00  0.00    +0.000 C 
ATOM     18  C   UNL     1      -1.476  15.904  23.887  0.00  0.00    +0.000 A 
ATOM     19  C   UNL     1      -1.764  15.352  25.145  0.00  0.00    +0.000 A 
ATOM     20  C   UNL     1      -2.661  14.285  25.209  0.00  0.00    +0.000 A 
ATOM     21  C   UNL     1      -3.213  13.769  24.037  0.00  0.00    +0.000 A 
ATOM     22  F   UNL     1      -4.055  12.725  24.123  0.00  0.00    +0.000 F 
BRANCH  19  23
ATOM     23  C   UNL     1      -1.114  15.834  26.378  0.00  0.00    +0.000 C 
ATOM     24  C   UNL     1      -0.062  16.666  26.377  0.00  0.00    +0.000 C 
BRANCH  24  25
ATOM     25  C   UNL     1       0.576  17.206  27.646  0.00  0.00    +0.000 C 
ATOM     26  N   UNL     1       1.105  17.654  28.700  0.00  0.00    +0.000 NA
ENDBRANCH  24  25
ENDBRANCH  19  23
ENDBRANCH   9  15
BRANCH   6  27
ATOM     27  C   UNL     1       1.064   9.774  20.554  0.00  0.00    +0.000 A 
ATOM     28  C   UNL     1       1.558   9.605  19.255  0.00  0.00    +0.000 A 
ATOM     29  C   UNL     1       2.060   8.364  18.841  0.00  0.00    +0.000 A 
ATOM     30  C   UNL     1       2.086   7.282  19.728  0.00  0.00    +0.000 A 
ATOM     31  C   UNL     1       1.632   7.450  21.033  0.00  0.00    +0.000 A 
ATOM     32  C   UNL     1       1.124   8.684  21.434  0.00  0.00    +0.000 A 
BRANCH  30  33
ATOM     33  C   UNL     1       2.555   6.004  19.298  0.00  0.00    +0.000 C 
ATOM     34  N   UNL     1       2.945   4.958  18.966  0.00  0.00    +0.000 NA
ENDBRANCH  30  33
ENDBRANCH   6  27
BRANCH   1  36
ATOM     35  C   UNL     1      -3.746  10.343  15.035  0.00  0.00    +0.000 C 
ATOM     36  O   UNL     1      -4.691  10.636  16.071  0.00  0.00    +0.000 OA
ENDBRANCH   1  36
BRANCH  12  37
ATOM     37  O   UNL     1      -6.133  12.797  17.516  0.00  0.00    +0.000 OA
ATOM     38  C   UNL     1      -7.314  12.121  17.904  0.00  0.00    +0.000 C 
ENDBRANCH  12  37
TORSDOF 7
ENDMDL
MODEL 8
REMARK VINA RESULT:      -5.9      4.251      9.435
REMARK  Name = 
REMARK  10 active torsions:
REMARK  status: ('A' for Active; 'I' for Inactive)
REMARK    1  A    between atoms: C_1  and  O_2
REMARK    2  A    between atoms: O_2  and  C_3
REMARK    3  A    between atoms: N_8  and  C_9
REMARK    4  A    between atoms: C_12  and  C_13
REMARK    5  A    between atoms: N_19  and  C_20
REMARK    6  A    between atoms: C_21  and  C_22
REMARK    7  A    between atoms: C_24  and  C_25
REMARK    8  A    between atoms: C_26  and  C_27
REMARK    9  A    between atoms: C_34  and  O_35
REMARK   10  A    between atoms: O_35  and  C_36
REMARK                            x       y       z     vdW  Elec       q    Type
REMARK                         _______ _______ _______ _____ _____    ______ ____
ROOT
ATOM      1  C   UNL     1       1.456  15.764  18.842  0.00  0.00    +0.000 A 
ATOM      2  C   UNL     1       0.195  15.151  18.836  0.00  0.00    +0.000 A 
ATOM      3  C   UNL     1       0.038  13.784  18.965  0.00  0.00    +0.000 A 
ATOM      4  N   UNL     1      -1.192  13.306  19.070  0.00  0.00    +0.000 NA
ATOM      5  C   UNL     1      -1.355  11.993  19.266  0.00  0.00    +0.000 A 
ATOM      6  N   UNL     1      -2.653  11.493  19.391  0.00  0.00    +0.000 N 
ATOM      7  N   UNL     1      -0.345  11.128  19.348  0.00  0.00    +0.000 NA
ATOM      8  C   UNL     1       0.910  11.616  19.243  0.00  0.00    +0.000 A 
ATOM      9  N   UNL     1       2.014  10.723  19.354  0.00  0.00    +0.000 N 
ATOM     10  C   UNL     1       1.164  12.977  19.028  0.00  0.00    +0.000 A 
ATOM     11  C   UNL     1       2.436  13.564  18.865  0.00  0.00    +0.000 A 
ATOM     12  C   UNL     1       2.595  14.953  18.795  0.00  0.00    +0.000 A 
ATOM     13  H   UNL     1      -2.669  10.487  19.436  0.00  0.00    +0.000 HD
ATOM     14  H   UNL     1       2.614  11.034  20.115  0.00  0.00    +0.000 HD
ENDROOT
BRANCH   9  15
ATOM     15  C   UNL     1       1.900   9.310  19.355  0.00  0.00    +0.000 A 
ATOM     16  C   UNL     1       1.637   8.578  20.525  0.00  0.00    +0.000 A 
ATOM     17  C   UNL     1       1.329   9.219  21.852  0.00  0.00    +0.000 C 
ATOM     18  C   UNL     1       1.677   7.172  20.475  0.00  0.00    +0.000 A 
ATOM     19  C   UNL     1       1.900   6.474  19.278  0.00  0.00    +0.000 A 
ATOM     20  C   UNL     1       2.079   7.211  18.107  0.00  0.00    +0.000 A 
ATOM     21  C   UNL     1       2.075   8.605  18.154  0.00  0.00    +0.000 A 
ATOM     22  F   UNL     1       2.274   9.291  17.015  0.00  0.00    +0.000 F 
BRANCH  19  23
ATOM     23  C   UNL     1       1.995   5.003  19.238  0.00  0.00    +0.000 C 
ATOM     24  C   UNL     1       2.928   4.346  18.532  0.00  0.00    +0.000 C 
BRANCH  24  25
ATOM     25  C   UNL     1       3.061   2.832  18.532  0.00  0.00    +0.000 C 
ATOM     26  N   UNL     1       3.171   1.576  18.532  0.00  0.00    +0.000 NA
ENDBRANCH  24  25
ENDBRANCH  19  23
ENDBRANCH   9  15
BRANCH   6  27
ATOM     27  C   UNL     1      -3.792  12.198  19.805  0.00  0.00    +0.000 A 
ATOM     28  C   UNL     1      -4.869  12.370  18.928  0.00  0.00    +0.000 A 
ATOM     29  C   UNL     1      -5.950  13.188  19.281  0.00  0.00    +0.000 A 
ATOM     30  C   UNL     1      -5.971  13.834  20.523  0.00  0.00    +0.000 A 
ATOM     31  C   UNL     1      -4.922  13.641  21.417  0.00  0.00    +0.000 A 
ATOM     32  C   UNL     1      -3.845  12.833  21.054  0.00  0.00    +0.000 A 
BRANCH  30  33
ATOM     33  C   UNL     1      -7.048  14.705  20.868  0.00  0.00    +0.000 C 
ATOM     34  N   UNL     1      -7.917  15.431  21.140  0.00  0.00    +0.000 NA
ENDBRANCH  30  33
ENDBRANCH   6  27
BRANCH   1  36
ATOM     35  C   UNL     1       1.496  17.783  17.607  0.00  0.00    +0.000 C 
ATOM     36  O   UNL     1       1.575  17.128  18.878  0.00  0.00    +0.000 OA
ENDBRANCH   1  36
BRANCH  12  37
ATOM     37  O   UNL     1       3.911  15.298  18.703  0.00  0.00    +0.000 OA
ATOM     38  C   UNL     1       4.804  14.459  17.994  0.00  0.00    +0.000 C 
ENDBRANCH  12  37
TORSDOF 7
ENDMDL
MODEL 9
REMARK VINA RESULT:      -5.7      3.350      4.780
REMARK  Name = 
REMARK  10 active torsions:
REMARK  status: ('A' for Active; 'I' for Inactive)
REMARK    1  A    between atoms: C_1  and  O_2
REMARK    2  A    between atoms: O_2  and  C_3
REMARK    3  A    between atoms: N_8  and  C_9
REMARK    4  A    between atoms: C_12  and  C_13
REMARK    5  A    between atoms: N_19  and  C_20
REMARK    6  A    between atoms: C_21  and  C_22
REMARK    7  A    between atoms: C_24  and  C_25
REMARK    8  A    between atoms: C_26  and  C_27
REMARK    9  A    between atoms: C_34  and  O_35
REMARK   10  A    between atoms: O_35  and  C_36
REMARK                            x       y       z     vdW  Elec       q    Type
REMARK                         _______ _______ _______ _____ _____    ______ ____
ROOT
ATOM      1  C   UNL     1      -6.264  12.812  20.810  0.00  0.00    +0.000 A 
ATOM      2  C   UNL     1      -4.920  12.419  20.734  0.00  0.00    +0.000 A 
ATOM      3  C   UNL     1      -3.933  13.014  21.497  0.00  0.00    +0.000 A 
ATOM      4  N   UNL     1      -2.714  12.499  21.449  0.00  0.00    +0.000 NA
ATOM      5  C   UNL     1      -1.766  13.020  22.235  0.00  0.00    +0.000 A 
ATOM      6  N   UNL     1      -0.485  12.465  22.193  0.00  0.00    +0.000 N 
ATOM      7  N   UNL     1      -1.973  14.046  23.059  0.00  0.00    +0.000 NA
ATOM      8  C   UNL     1      -3.216  14.570  23.110  0.00  0.00    +0.000 A 
ATOM      9  N   UNL     1      -3.480  15.650  24.001  0.00  0.00    +0.000 N 
ATOM     10  C   UNL     1      -4.261  14.086  22.312  0.00  0.00    +0.000 A 
ATOM     11  C   UNL     1      -5.575  14.599  22.270  0.00  0.00    +0.000 A 
ATOM     12  C   UNL     1      -6.585  13.960  21.544  0.00  0.00    +0.000 A 
ATOM     13  H   UNL     1       0.173  12.990  22.746  0.00  0.00    +0.000 HD
ATOM     14  H   UNL     1      -4.231  15.380  24.633  0.00  0.00    +0.000 HD
ENDROOT
BRANCH   9  15
ATOM     15  C   UNL     1      -2.478  16.371  24.698  0.00  0.00    +0.000 A 
ATOM     16  C   UNL     1      -1.964  17.592  24.228  0.00  0.00    +0.000 A 
ATOM     17  C   UNL     1      -2.508  18.309  23.021  0.00  0.00    +0.000 C 
ATOM     18  C   UNL     1      -0.875  18.178  24.897  0.00  0.00    +0.000 A 
ATOM     19  C   UNL     1      -0.328  17.621  26.064  0.00  0.00    +0.000 A 
ATOM     20  C   UNL     1      -0.898  16.451  26.568  0.00  0.00    +0.000 A 
ATOM     21  C   UNL     1      -1.956  15.845  25.891  0.00  0.00    +0.000 A 
ATOM     22  F   UNL     1      -2.472  14.706  26.383  0.00  0.00    +0.000 F 
BRANCH  19  23
ATOM     23  C   UNL     1       0.848  18.207  26.732  0.00  0.00    +0.000 C 
ATOM     24  C   UNL     1       1.955  17.506  27.021  0.00  0.00    +0.000 C 
BRANCH  24  25
ATOM     25  C   UNL     1       3.188  18.121  27.662  0.00  0.00    +0.000 C 
ATOM     26  N   UNL     1       4.211  18.631  28.195  0.00  0.00    +0.000 NA
ENDBRANCH  24  25
ENDBRANCH  19  23
ENDBRANCH   9  15
BRANCH   6  27
ATOM     27  C   UNL     1      -0.143  11.162  21.808  0.00  0.00    +0.000 A 
ATOM     28  C   UNL     1      -0.310  10.098  22.703  0.00  0.00    +0.000 A 
ATOM     29  C   UNL     1       0.158   8.818  22.382  0.00  0.00    +0.000 A 
ATOM     30  C   UNL     1       0.787   8.584  21.154  0.00  0.00    +0.000 A 
ATOM     31  C   UNL     1       0.926   9.626  20.242  0.00  0.00    +0.000 A 
ATOM     32  C   UNL     1       0.467  10.900  20.573  0.00  0.00    +0.000 A 
BRANCH  30  33
ATOM     33  C   UNL     1       1.307   7.291  20.840  0.00  0.00    +0.000 C 
ATOM     34  N   UNL     1       1.710   6.231  20.579  0.00  0.00    +0.000 NA
ENDBRANCH  30  33
ENDBRANCH   6  27
BRANCH   1  36
ATOM     35  C   UNL     1      -7.706  10.936  20.865  0.00  0.00    +0.000 C 
ATOM     36  O   UNL     1      -7.243  12.100  20.170  0.00  0.00    +0.000 OA
ENDBRANCH   1  36
BRANCH  12  37
ATOM     37  O   UNL     1      -7.784  14.592  21.698  0.00  0.00    +0.000 OA
ATOM     38  C   UNL     1      -7.913  15.615  22.668  0.00  0.00    +0.000 C 
ENDBRANCH  12  37
TORSDOF 7
ENDMDL
