MODEL 1
REMARK VINA RESULT:      -9.0      0.000      0.000
REMARK  Name = 
REMARK  5 active torsions:
REMARK  status: ('A' for Active; 'I' for Inactive)
REMARK    1  A    between atoms: C_2  and  C_3
REMARK    2  A    between atoms: C_3  and  N_4
REMARK    3  A    between atoms: N_7  and  C_8
REMARK    4  A    between atoms: N_17  and  C_18
REMARK    5  A    between atoms: C_22  and  C_23
REMARK                            x       y       z     vdW  Elec       q    Type
REMARK                         _______ _______ _______ _____ _____    ______ ____
ROOT
ATOM      1  O   UNL     1       2.494   8.100  18.842  0.00  0.00    +0.000 OA
ATOM      2  C   UNL     1       2.070   7.742  19.939  0.00  0.00    +0.000 C 
ATOM      3  N   UNL     1       2.065   6.447  20.416  0.00  0.00    +0.000 N 
ATOM      4  H   UNL     1       1.526   6.279  21.259  0.00  0.00    +0.000 HD
ENDROOT
BRANCH   3   5
ATOM      5  C   UNL     1       2.672   5.340  19.800  0.00  0.00    +0.000 A 
ATOM      6  C   UNL     1       2.326   4.021  20.092  0.00  0.00    +0.000 A 
ATOM      7  C   UNL     1       2.939   2.970  19.412  0.00  0.00    +0.000 A 
ATOM      8  C   UNL     1       3.884   3.237  18.421  0.00  0.00    +0.000 A 
ATOM      9  C   UNL     1       4.209   4.559  18.060  0.00  0.00    +0.000 A 
ATOM     10  C   UNL     1       3.611   5.598  18.797  0.00  0.00    +0.000 A 
BRANCH   9  11
ATOM     11  C   UNL     1       5.047   4.872  16.887  0.00  0.00    +0.000 A 
ATOM     12  C   UNL     1       6.193   5.655  16.985  0.00  0.00    +0.000 A 
ATOM     13  N   UNL     1       7.049   5.863  15.961  0.00  0.00    +0.000 NA
ATOM     14  C   UNL     1       6.777   5.203  14.830  0.00  0.00    +0.000 A 
ATOM     15  C   UNL     1       7.672   5.308  13.779  0.00  0.00    +0.000 A 
ATOM     16  C   UNL     1       7.501   4.565  12.606  0.00  0.00    +0.000 A 
ATOM     17  C   UNL     1       6.395   3.729  12.484  0.00  0.00    +0.000 A 
ATOM     18  C   UNL     1       5.461   3.660  13.521  0.00  0.00    +0.000 A 
ATOM     19  C   UNL     1       5.634   4.377  14.701  0.00  0.00    +0.000 A 
ATOM     20  N   UNL     1       4.756   4.239  15.719  0.00  0.00    +0.000 NA
ENDBRANCH   9  11
ENDBRANCH   3   5
BRANCH   2  21
ATOM     21  C   UNL     1       1.431   8.754  20.897  0.00  0.00    +0.000 C 
BRANCH  21  22
ATOM     22  N   UNL     1      -0.049   8.780  20.801  0.00  0.00    +0.000 NA
ATOM     23  C   UNL     1      -0.705   8.840  22.136  0.00  0.00    +0.000 C 
ATOM     24  C   UNL     1      -0.402  10.122  22.938  0.00  0.00    +0.000 C 
ATOM     25  N   UNL     1      -0.842  11.289  22.158  0.00  0.00    +0.000 N 
ATOM     26  C   UNL     1      -0.315  11.363  20.786  0.00  0.00    +0.000 C 
ATOM     27  C   UNL     1      -0.480   9.996  20.052  0.00  0.00    +0.000 C 
BRANCH  25  28
ATOM     28  C   UNL     1      -1.490  12.349  22.761  0.00  0.00    +0.000 A 
ATOM     29  C   UNL     1      -2.716  12.203  23.430  0.00  0.00    +0.000 A 
ATOM     30  C   UNL     1      -3.321  13.270  24.107  0.00  0.00    +0.000 A 
ATOM     31  C   UNL     1      -2.705  14.515  24.127  0.00  0.00    +0.000 A 
ATOM     32 CL   UNL     1      -3.417  15.819  24.993  0.00  0.00    +0.000 Cl
ATOM     33  C   UNL     1      -1.504  14.704  23.459  0.00  0.00    +0.000 A 
ATOM     34  C   UNL     1      -0.911  13.631  22.786  0.00  0.00    +0.000 A 
ENDBRANCH  25  28
ENDBRANCH  21  22
ENDBRANCH   2  21
TORSDOF 5
ENDMDL
MODEL 2
REMARK VINA RESULT:      -8.9      3.770     11.055
REMARK  Name = 
REMARK  5 active torsions:
REMARK  status: ('A' for Active; 'I' for Inactive)
REMARK    1  A    between atoms: C_2  and  C_3
REMARK    2  A    between atoms: C_3  and  N_4
REMARK    3  A    between atoms: N_7  and  C_8
REMARK    4  A    between atoms: N_17  and  C_18
REMARK    5  A    between atoms: C_22  and  C_23
REMARK                            x       y       z     vdW  Elec       q    Type
REMARK                         _______ _______ _______ _____ _____    ______ ____
ROOT
ATOM      1  O   UNL     1       0.679   4.797  20.110  0.00  0.00    +0.000 OA
ATOM      2  C   UNL     1       1.865   4.915  20.412  0.00  0.00    +0.000 C 
ATOM      3  N   UNL     1       2.649   6.026  20.173  0.00  0.00    +0.000 N 
ATOM      4  H   UNL     1       3.647   5.912  20.315  0.00  0.00    +0.000 HD
ENDROOT
BRANCH   3   5
ATOM      5  C   UNL     1       2.198   7.263  19.683  0.00  0.00    +0.000 A 
ATOM      6  C   UNL     1       2.362   7.663  18.357  0.00  0.00    +0.000 A 
ATOM      7  C   UNL     1       1.852   8.886  17.926  0.00  0.00    +0.000 A 
ATOM      8  C   UNL     1       1.155   9.703  18.817  0.00  0.00    +0.000 A 
ATOM      9  C   UNL     1       0.918   9.299  20.145  0.00  0.00    +0.000 A 
ATOM     10  C   UNL     1       1.487   8.082  20.564  0.00  0.00    +0.000 A 
BRANCH   9  11
ATOM     11  C   UNL     1       0.018  10.043  21.046  0.00  0.00    +0.000 A 
ATOM     12  C   UNL     1       0.123   9.960  22.430  0.00  0.00    +0.000 A 
ATOM     13  N   UNL     1      -0.601  10.716  23.285  0.00  0.00    +0.000 NA
ATOM     14  C   UNL     1      -1.399  11.631  22.723  0.00  0.00    +0.000 A 
ATOM     15  C   UNL     1      -2.093  12.493  23.553  0.00  0.00    +0.000 A 
ATOM     16  C   UNL     1      -2.865  13.536  23.030  0.00  0.00    +0.000 A 
ATOM     17  C   UNL     1      -2.959  13.689  21.650  0.00  0.00    +0.000 A 
ATOM     18  C   UNL     1      -2.302  12.788  20.807  0.00  0.00    +0.000 A 
ATOM     19  C   UNL     1      -1.513  11.761  21.317  0.00  0.00    +0.000 A 
ATOM     20  N   UNL     1      -0.829  10.947  20.484  0.00  0.00    +0.000 NA
ENDBRANCH   9  11
ENDBRANCH   3   5
BRANCH   2  21
ATOM     21  C   UNL     1       2.623   3.755  21.065  0.00  0.00    +0.000 C 
BRANCH  21  22
ATOM     22  N   UNL     1       2.925   2.658  20.113  0.00  0.00    +0.000 NA
ATOM     23  C   UNL     1       2.449   2.954  18.734  0.00  0.00    +0.000 C 
ATOM     24  C   UNL     1       3.131   4.166  18.069  0.00  0.00    +0.000 C 
ATOM     25  N   UNL     1       4.581   3.926  18.011  0.00  0.00    +0.000 N 
ATOM     26  C   UNL     1       5.212   3.577  19.294  0.00  0.00    +0.000 C 
ATOM     27  C   UNL     1       4.402   2.463  20.027  0.00  0.00    +0.000 C 
BRANCH  25  28
ATOM     28  C   UNL     1       5.316   4.255  16.889  0.00  0.00    +0.000 A 
ATOM     29  C   UNL     1       6.665   4.639  16.957  0.00  0.00    +0.000 A 
ATOM     30  C   UNL     1       7.421   4.891  15.805  0.00  0.00    +0.000 A 
ATOM     31  C   UNL     1       6.836   4.763  14.551  0.00  0.00    +0.000 A 
ATOM     32 CL   UNL     1       7.767   5.026  13.130  0.00  0.00    +0.000 Cl
ATOM     33  C   UNL     1       5.499   4.407  14.445  0.00  0.00    +0.000 A 
ATOM     34  C   UNL     1       4.756   4.160  15.603  0.00  0.00    +0.000 A 
ENDBRANCH  25  28
ENDBRANCH  21  22
ENDBRANCH   2  21
TORSDOF 5
ENDMDL
MODEL 3
REMARK VINA RESULT:      -8.8      1.085      1.270
REMARK  Name = 
REMARK  5 active torsions:
REMARK  status: ('A' for Active; 'I' for Inactive)
REMARK    1  A    between atoms: C_2  and  C_3
REMARK    2  A    between atoms: C_3  and  N_4
REMARK    3  A    between atoms: N_7  and  C_8
REMARK    4  A    between atoms: N_17  and  C_18
REMARK    5  A    between atoms: C_22  and  C_23
REMARK                            x       y       z     vdW  Elec       q    Type
REMARK                         _______ _______ _______ _____ _____    ______ ____
ROOT
ATOM      1  O   UNL     1       2.342   8.611  17.422  0.00  0.00    +0.000 OA
ATOM      2  C   UNL     1       1.994   8.596  18.601  0.00  0.00    +0.000 C 
ATOM      3  N   UNL     1       2.179   7.550  19.481  0.00  0.00    +0.000 N 
ATOM      4  H   UNL     1       1.685   7.610  20.365  0.00  0.00    +0.000 HD
ENDROOT
BRANCH   3   5
ATOM      5  C   UNL     1       2.923   6.384  19.230  0.00  0.00    +0.000 A 
ATOM      6  C   UNL     1       2.760   5.205  19.957  0.00  0.00    +0.000 A 
ATOM      7  C   UNL     1       3.501   4.072  19.628  0.00  0.00    +0.000 A 
ATOM      8  C   UNL     1       4.392   4.109  18.554  0.00  0.00    +0.000 A 
ATOM      9  C   UNL     1       4.532   5.265  17.762  0.00  0.00    +0.000 A 
ATOM     10  C   UNL     1       3.808   6.407  18.149  0.00  0.00    +0.000 A 
BRANCH   9  11
ATOM     11  C   UNL     1       5.309   5.271  16.508  0.00  0.00    +0.000 A 
ATOM     12  C   UNL     1       6.590   5.807  16.434  0.00  0.00    +0.000 A 
ATOM     13  N   UNL     1       7.376   5.723  15.339  0.00  0.00    +0.000 NA
ATOM     14  C   UNL     1       6.881   5.015  14.317  0.00  0.00    +0.000 A 
ATOM     15  C   UNL     1       7.682   4.821  13.206  0.00  0.00    +0.000 A 
ATOM     16  C   UNL     1       7.265   4.007  12.146  0.00  0.00    +0.000 A 
ATOM     17  C   UNL     1       6.010   3.409  12.200  0.00  0.00    +0.000 A 
ATOM     18  C   UNL     1       5.176   3.645  13.297  0.00  0.00    +0.000 A 
ATOM     19  C   UNL     1       5.590   4.434  14.365  0.00  0.00    +0.000 A 
ATOM     20  N   UNL     1       4.796   4.590  15.447  0.00  0.00    +0.000 NA
ENDBRANCH   9  11
ENDBRANCH   3   5
BRANCH   2  21
ATOM     21  C   UNL     1       1.239   9.784  19.207  0.00  0.00    +0.000 C 
BRANCH  21  22
ATOM     22  N   UNL     1      -0.139   9.432  19.632  0.00  0.00    +0.000 NA
ATOM     23  C   UNL     1      -0.297   9.444  21.113  0.00  0.00    +0.000 C 
ATOM     24  C   UNL     1      -0.090  10.825  21.766  0.00  0.00    +0.000 C 
ATOM     25  N   UNL     1      -1.059  11.773  21.194  0.00  0.00    +0.000 N 
ATOM     26  C   UNL     1      -1.064  11.857  19.725  0.00  0.00    +0.000 C 
ATOM     27  C   UNL     1      -1.101  10.433  19.087  0.00  0.00    +0.000 C 
BRANCH  25  28
ATOM     28  C   UNL     1      -1.720  12.687  21.991  0.00  0.00    +0.000 A 
ATOM     29  C   UNL     1      -1.125  13.276  23.118  0.00  0.00    +0.000 A 
ATOM     30  C   UNL     1      -1.778  14.262  23.869  0.00  0.00    +0.000 A 
ATOM     31  C   UNL     1      -3.051  14.681  23.503  0.00  0.00    +0.000 A 
ATOM     32 CL   UNL     1      -3.842  15.923  24.391  0.00  0.00    +0.000 Cl
ATOM     33  C   UNL     1      -3.681  14.107  22.409  0.00  0.00    +0.000 A 
ATOM     34  C   UNL     1      -3.018  13.122  21.669  0.00  0.00    +0.000 A 
ENDBRANCH  25  28
ENDBRANCH  21  22
ENDBRANCH   2  21
TORSDOF 5
ENDMDL
MODEL 4
REMARK VINA RESULT:      -8.7      1.772      2.126
REMARK  Name = 
REMARK  5 active torsions:
REMARK  status: ('A' for Active; 'I' for Inactive)
REMARK    1  A    between atoms: C_2  and  C_3
REMARK    2  A    between atoms: C_3  and  N_4
REMARK    3  A    between atoms: N_7  and  C_8
REMARK    4  A    between atoms: N_17  and  C_18
REMARK    5  A    between atoms: C_22  and  C_23
REMARK                            x       y       z     vdW  Elec       q    Type
REMARK                         _______ _______ _______ _____ _____    ______ ____
ROOT
ATOM      1  O   UNL     1       2.066   8.064  17.762  0.00  0.00    +0.000 OA
ATOM      2  C   UNL     1       1.975   8.086  18.989  0.00  0.00    +0.000 C 
ATOM      3  N   UNL     1       2.401   7.091  19.844  0.00  0.00    +0.000 N 
ATOM      4  H   UNL     1       2.101   7.168  20.810  0.00  0.00    +0.000 HD
ENDROOT
BRANCH   3   5
ATOM      5  C   UNL     1       3.141   5.953  19.481  0.00  0.00    +0.000 A 
ATOM      6  C   UNL     1       3.011   4.723  20.124  0.00  0.00    +0.000 A 
ATOM      7  C   UNL     1       3.745   3.623  19.686  0.00  0.00    +0.000 A 
ATOM      8  C   UNL     1       4.596   3.746  18.586  0.00  0.00    +0.000 A 
ATOM      9  C   UNL     1       4.701   4.958  17.877  0.00  0.00    +0.000 A 
ATOM     10  C   UNL     1       3.986   6.063  18.373  0.00  0.00    +0.000 A 
BRANCH   9  11
ATOM     11  C   UNL     1       5.431   5.062  16.599  0.00  0.00    +0.000 A 
ATOM     12  C   UNL     1       6.690   5.647  16.512  0.00  0.00    +0.000 A 
ATOM     13  N   UNL     1       7.438   5.653  15.388  0.00  0.00    +0.000 NA
ATOM     14  C   UNL     1       6.930   4.987  14.344  0.00  0.00    +0.000 A 
ATOM     15  C   UNL     1       7.696   4.884  13.197  0.00  0.00    +0.000 A 
ATOM     16  C   UNL     1       7.268   4.118  12.107  0.00  0.00    +0.000 A 
ATOM     17  C   UNL     1       6.037   3.474  12.169  0.00  0.00    +0.000 A 
ATOM     18  C   UNL     1       5.235   3.618  13.306  0.00  0.00    +0.000 A 
ATOM     19  C   UNL     1       5.662   4.359  14.403  0.00  0.00    +0.000 A 
ATOM     20  N   UNL     1       4.903   4.425  15.519  0.00  0.00    +0.000 NA
ENDBRANCH   9  11
ENDBRANCH   3   5
BRANCH   2  21
ATOM     21  C   UNL     1       1.297   9.262  19.700  0.00  0.00    +0.000 C 
BRANCH  21  22
ATOM     22  N   UNL     1       1.022  10.402  18.790  0.00  0.00    +0.000 NA
ATOM     23  C   UNL     1      -0.396  10.439  18.338  0.00  0.00    +0.000 C 
ATOM     24  C   UNL     1      -1.421  10.662  19.468  0.00  0.00    +0.000 C 
ATOM     25  N   UNL     1      -1.121  11.935  20.141  0.00  0.00    +0.000 N 
ATOM     26  C   UNL     1       0.263  12.083  20.619  0.00  0.00    +0.000 C 
ATOM     27  C   UNL     1       1.281  11.686  19.506  0.00  0.00    +0.000 C 
BRANCH  25  28
ATOM     28  C   UNL     1      -2.130  12.802  20.512  0.00  0.00    +0.000 A 
ATOM     29  C   UNL     1      -1.882  13.985  21.227  0.00  0.00    +0.000 A 
ATOM     30  C   UNL     1      -2.904  14.896  21.526  0.00  0.00    +0.000 A 
ATOM     31  C   UNL     1      -4.205  14.637  21.112  0.00  0.00    +0.000 A 
ATOM     32 CL   UNL     1      -5.458  15.770  21.434  0.00  0.00    +0.000 Cl
ATOM     33  C   UNL     1      -4.492  13.468  20.423  0.00  0.00    +0.000 A 
ATOM     34  C   UNL     1      -3.463  12.567  20.133  0.00  0.00    +0.000 A 
ENDBRANCH  25  28
ENDBRANCH  21  22
ENDBRANCH   2  21
TORSDOF 5
ENDMDL
MODEL 5
REMARK VINA RESULT:      -8.6      1.548      1.683
REMARK  Name = 
REMARK  5 active torsions:
REMARK  status: ('A' for Active; 'I' for Inactive)
REMARK    1  A    between atoms: C_2  and  C_3
REMARK    2  A    between atoms: C_3  and  N_4
REMARK    3  A    between atoms: N_7  and  C_8
REMARK    4  A    between atoms: N_17  and  C_18
REMARK    5  A    between atoms: C_22  and  C_23
REMARK                            x       y       z     vdW  Elec       q    Type
REMARK                         _______ _______ _______ _____ _____    ______ ____
ROOT
ATOM      1  O   UNL     1       1.739   7.930  17.837  0.00  0.00    +0.000 OA
ATOM      2  C   UNL     1       1.877   8.049  19.053  0.00  0.00    +0.000 C 
ATOM      3  N   UNL     1       2.471   7.125  19.889  0.00  0.00    +0.000 N 
ATOM      4  H   UNL     1       2.355   7.278  20.885  0.00  0.00    +0.000 HD
ENDROOT
BRANCH   3   5
ATOM      5  C   UNL     1       3.149   5.964  19.483  0.00  0.00    +0.000 A 
ATOM      6  C   UNL     1       2.949   4.718  20.077  0.00  0.00    +0.000 A 
ATOM      7  C   UNL     1       3.624   3.597  19.597  0.00  0.00    +0.000 A 
ATOM      8  C   UNL     1       4.485   3.716  18.505  0.00  0.00    +0.000 A 
ATOM      9  C   UNL     1       4.660   4.947  17.845  0.00  0.00    +0.000 A 
ATOM     10  C   UNL     1       4.004   6.070  18.382  0.00  0.00    +0.000 A 
BRANCH   9  11
ATOM     11  C   UNL     1       5.400   5.061  16.574  0.00  0.00    +0.000 A 
ATOM     12  C   UNL     1       6.644   5.678  16.495  0.00  0.00    +0.000 A 
ATOM     13  N   UNL     1       7.404   5.696  15.379  0.00  0.00    +0.000 NA
ATOM     14  C   UNL     1       6.925   5.009  14.336  0.00  0.00    +0.000 A 
ATOM     15  C   UNL     1       7.706   4.918  13.197  0.00  0.00    +0.000 A 
ATOM     16  C   UNL     1       7.311   4.131  12.110  0.00  0.00    +0.000 A 
ATOM     17  C   UNL     1       6.096   3.454  12.164  0.00  0.00    +0.000 A 
ATOM     18  C   UNL     1       5.279   3.586  13.290  0.00  0.00    +0.000 A 
ATOM     19  C   UNL     1       5.674   4.347  14.387  0.00  0.00    +0.000 A 
ATOM     20  N   UNL     1       4.901   4.401  15.494  0.00  0.00    +0.000 NA
ENDBRANCH   9  11
ENDBRANCH   3   5
BRANCH   2  21
ATOM     21  C   UNL     1       1.324   9.276  19.785  0.00  0.00    +0.000 C 
BRANCH  21  22
ATOM     22  N   UNL     1       0.697  10.259  18.866  0.00  0.00    +0.000 NA
ATOM     23  C   UNL     1      -0.720  10.545  19.221  0.00  0.00    +0.000 C 
ATOM     24  C   UNL     1      -0.911  11.211  20.599  0.00  0.00    +0.000 C 
ATOM     25  N   UNL     1      -0.167  12.479  20.624  0.00  0.00    +0.000 N 
ATOM     26  C   UNL     1       1.254  12.382  20.255  0.00  0.00    +0.000 C 
ATOM     27  C   UNL     1       1.432  11.555  18.944  0.00  0.00    +0.000 C 
BRANCH  25  28
ATOM     28  C   UNL     1      -0.708  13.614  21.196  0.00  0.00    +0.000 A 
ATOM     29  C   UNL     1      -1.925  14.168  20.768  0.00  0.00    +0.000 A 
ATOM     30  C   UNL     1      -2.502  15.271  21.410  0.00  0.00    +0.000 A 
ATOM     31  C   UNL     1      -1.866  15.846  22.504  0.00  0.00    +0.000 A 
ATOM     32 CL   UNL     1      -2.588  17.172  23.327  0.00  0.00    +0.000 Cl
ATOM     33  C   UNL     1      -0.651  15.340  22.943  0.00  0.00    +0.000 A 
ATOM     34  C   UNL     1      -0.085  14.239  22.291  0.00  0.00    +0.000 A 
ENDBRANCH  25  28
ENDBRANCH  21  22
ENDBRANCH   2  21
TORSDOF 5
ENDMDL
MODEL 6
REMARK VINA RESULT:      -8.6      0.895      1.268
REMARK  Name = 
REMARK  5 active torsions:
REMARK  status: ('A' for Active; 'I' for Inactive)
REMARK    1  A    between atoms: C_2  and  C_3
REMARK    2  A    between atoms: C_3  and  N_4
REMARK    3  A    between atoms: N_7  and  C_8
REMARK    4  A    between atoms: N_17  and  C_18
REMARK    5  A    between atoms: C_22  and  C_23
REMARK                            x       y       z     vdW  Elec       q    Type
REMARK                         _______ _______ _______ _____ _____    ______ ____
ROOT
ATOM      1  O   UNL     1       2.277   7.760  19.381  0.00  0.00    +0.000 OA
ATOM      2  C   UNL     1       1.627   7.332  20.333  0.00  0.00    +0.000 C 
ATOM      3  N   UNL     1       1.662   6.040  20.815  0.00  0.00    +0.000 N 
ATOM      4  H   UNL     1       0.945   5.790  21.487  0.00  0.00    +0.000 HD
ENDROOT
BRANCH   3   5
ATOM      5  C   UNL     1       2.550   5.031  20.404  0.00  0.00    +0.000 A 
ATOM      6  C   UNL     1       2.513   3.731  20.909  0.00  0.00    +0.000 A 
ATOM      7  C   UNL     1       3.395   2.768  20.426  0.00  0.00    +0.000 A 
ATOM      8  C   UNL     1       4.304   3.096  19.418  0.00  0.00    +0.000 A 
ATOM      9  C   UNL     1       4.323   4.382  18.845  0.00  0.00    +0.000 A 
ATOM     10  C   UNL     1       3.454   5.347  19.387  0.00  0.00    +0.000 A 
BRANCH   9  11
ATOM     11  C   UNL     1       5.127   4.699  17.649  0.00  0.00    +0.000 A 
ATOM     12  C   UNL     1       6.378   5.300  17.737  0.00  0.00    +0.000 A 
ATOM     13  N   UNL     1       7.193   5.495  16.678  0.00  0.00    +0.000 NA
ATOM     14  C   UNL     1       6.761   5.004  15.511  0.00  0.00    +0.000 A 
ATOM     15  C   UNL     1       7.598   5.096  14.412  0.00  0.00    +0.000 A 
ATOM     16  C   UNL     1       7.251   4.514  13.188  0.00  0.00    +0.000 A 
ATOM     17  C   UNL     1       6.029   3.858  13.067  0.00  0.00    +0.000 A 
ATOM     18  C   UNL     1       5.158   3.809  14.159  0.00  0.00    +0.000 A 
ATOM     19  C   UNL     1       5.504   4.365  15.387  0.00  0.00    +0.000 A 
ATOM     20  N   UNL     1       4.677   4.242  16.449  0.00  0.00    +0.000 NA
ENDBRANCH   9  11
ENDBRANCH   3   5
BRANCH   2  21
ATOM     21  C   UNL     1       0.631   8.237  21.066  0.00  0.00    +0.000 C 
BRANCH  21  22
ATOM     22  N   UNL     1       1.283   9.399  21.719  0.00  0.00    +0.000 NA
ATOM     23  C   UNL     1       1.015  10.677  21.004  0.00  0.00    +0.000 C 
ATOM     24  C   UNL     1      -0.469  11.098  20.983  0.00  0.00    +0.000 C 
ATOM     25  N   UNL     1      -0.945  11.238  22.368  0.00  0.00    +0.000 N 
ATOM     26  C   UNL     1      -0.719  10.069  23.232  0.00  0.00    +0.000 C 
ATOM     27  C   UNL     1       0.750   9.558  23.103  0.00  0.00    +0.000 C 
BRANCH  25  28
ATOM     28  C   UNL     1      -1.763  12.287  22.740  0.00  0.00    +0.000 A 
ATOM     29  C   UNL     1      -3.153  12.265  22.545  0.00  0.00    +0.000 A 
ATOM     30  C   UNL     1      -3.980  13.301  23.001  0.00  0.00    +0.000 A 
ATOM     31  C   UNL     1      -3.426  14.388  23.666  0.00  0.00    +0.000 A 
ATOM     32 CL   UNL     1      -4.436  15.641  24.269  0.00  0.00    +0.000 Cl
ATOM     33  C   UNL     1      -2.053  14.455  23.858  0.00  0.00    +0.000 A 
ATOM     34  C   UNL     1      -1.239  13.415  23.396  0.00  0.00    +0.000 A 
ENDBRANCH  25  28
ENDBRANCH  21  22
ENDBRANCH   2  21
TORSDOF 5
ENDMDL
MODEL 7
REMARK VINA RESULT:      -8.5      6.373      8.931
REMARK  Name = 
REMARK  5 active torsions:
REMARK  status: ('A' for Active; 'I' for Inactive)
REMARK    1  A    between atoms: C_2  and  C_3
REMARK    2  A    between atoms: C_3  and  N_4
REMARK    3  A    between atoms: N_7  and  C_8
REMARK    4  A    between atoms: N_17  and  C_18
REMARK    5  A    between atoms: C_22  and  C_23
REMARK                            x       y       z     vdW  Elec       q    Type
REMARK                         _______ _______ _______ _____ _____    ______ ____
ROOT
ATOM      1  O   UNL     1       8.458   7.453  18.836  0.00  0.00    +0.000 OA
ATOM      2  C   UNL     1       7.982   8.242  18.022  0.00  0.00    +0.000 C 
ATOM      3  N   UNL     1       7.270   7.899  16.891  0.00  0.00    +0.000 N 
ATOM      4  H   UNL     1       7.094   8.643  16.225  0.00  0.00    +0.000 HD
ENDROOT
BRANCH   3   5
ATOM      5  C   UNL     1       6.838   6.606  16.551  0.00  0.00    +0.000 A 
ATOM      6  C   UNL     1       7.322   5.907  15.444  0.00  0.00    +0.000 A 
ATOM      7  C   UNL     1       6.882   4.611  15.188  0.00  0.00    +0.000 A 
ATOM      8  C   UNL     1       5.973   3.999  16.053  0.00  0.00    +0.000 A 
ATOM      9  C   UNL     1       5.514   4.654  17.212  0.00  0.00    +0.000 A 
ATOM     10  C   UNL     1       5.938   5.980  17.417  0.00  0.00    +0.000 A 
BRANCH   9  11
ATOM     11  C   UNL     1       4.717   3.964  18.243  0.00  0.00    +0.000 A 
ATOM     12  C   UNL     1       5.308   3.267  19.292  0.00  0.00    +0.000 A 
ATOM     13  N   UNL     1       4.617   2.727  20.318  0.00  0.00    +0.000 NA
ATOM     14  C   UNL     1       3.300   2.959  20.321  0.00  0.00    +0.000 A 
ATOM     15  C   UNL     1       2.557   2.506  21.398  0.00  0.00    +0.000 A 
ATOM     16  C   UNL     1       1.195   2.802  21.513  0.00  0.00    +0.000 A 
ATOM     17  C   UNL     1       0.571   3.541  20.512  0.00  0.00    +0.000 A 
ATOM     18  C   UNL     1       1.305   3.956  19.396  0.00  0.00    +0.000 A 
ATOM     19  C   UNL     1       2.666   3.685  19.284  0.00  0.00    +0.000 A 
ATOM     20  N   UNL     1       3.370   4.158  18.233  0.00  0.00    +0.000 NA
ENDBRANCH   9  11
ENDBRANCH   3   5
BRANCH   2  21
ATOM     21  C   UNL     1       8.198   9.751  18.179  0.00  0.00    +0.000 C 
BRANCH  21  22
ATOM     22  N   UNL     1       9.558  10.089  18.666  0.00  0.00    +0.000 NA
ATOM     23  C   UNL     1      10.182  11.195  17.889  0.00  0.00    +0.000 C 
ATOM     24  C   UNL     1       9.446  12.546  17.998  0.00  0.00    +0.000 C 
ATOM     25  N   UNL     1       9.396  12.950  19.411  0.00  0.00    +0.000 N 
ATOM     26  C   UNL     1       8.840  11.947  20.333  0.00  0.00    +0.000 C 
ATOM     27  C   UNL     1       9.482  10.547  20.084  0.00  0.00    +0.000 C 
BRANCH  25  28
ATOM     28  C   UNL     1       9.619  14.260  19.788  0.00  0.00    +0.000 A 
ATOM     29  C   UNL     1       9.121  15.350  19.057  0.00  0.00    +0.000 A 
ATOM     30  C   UNL     1       9.284  16.671  19.496  0.00  0.00    +0.000 A 
ATOM     31  C   UNL     1       9.955  16.928  20.685  0.00  0.00    +0.000 A 
ATOM     32 CL   UNL     1      10.121  18.541  21.255  0.00  0.00    +0.000 Cl
ATOM     33  C   UNL     1      10.480  15.877  21.424  0.00  0.00    +0.000 A 
ATOM     34  C   UNL     1      10.311  14.564  20.974  0.00  0.00    +0.000 A 
ENDBRANCH  25  28
ENDBRANCH  21  22
ENDBRANCH   2  21
TORSDOF 5
ENDMDL
MODEL 8
REMARK VINA RESULT:      -8.5      6.392      8.866
REMARK  Name = 
REMARK  5 active torsions:
REMARK  status: ('A' for Active; 'I' for Inactive)
REMARK    1  A    between atoms: C_2  and  C_3
REMARK    2  A    between atoms: C_3  and  N_4
REMARK    3  A    between atoms: N_7  and  C_8
REMARK    4  A    between atoms: N_17  and  C_18
REMARK    5  A    between atoms: C_22  and  C_23
REMARK                            x       y       z     vdW  Elec       q    Type
REMARK                         _______ _______ _______ _____ _____    ______ ____
ROOT
ATOM      1  O   UNL     1       8.540   7.642  18.679  0.00  0.00    +0.000 OA
ATOM      2  C   UNL     1       7.912   8.427  17.971  0.00  0.00    +0.000 C 
ATOM      3  N   UNL     1       7.064   8.078  16.940  0.00  0.00    +0.000 N 
ATOM      4  H   UNL     1       6.757   8.832  16.334  0.00  0.00    +0.000 HD
ENDROOT
BRANCH   3   5
ATOM      5  C   UNL     1       6.656   6.774  16.615  0.00  0.00    +0.000 A 
ATOM      6  C   UNL     1       7.427   5.903  15.846  0.00  0.00    +0.000 A 
ATOM      7  C   UNL     1       6.981   4.607  15.596  0.00  0.00    +0.000 A 
ATOM      8  C   UNL     1       5.770   4.170  16.136  0.00  0.00    +0.000 A 
ATOM      9  C   UNL     1       4.999   5.005  16.968  0.00  0.00    +0.000 A 
ATOM     10  C   UNL     1       5.451   6.323  17.161  0.00  0.00    +0.000 A 
BRANCH   9  11
ATOM     11  C   UNL     1       3.826   4.508  17.712  0.00  0.00    +0.000 A 
ATOM     12  C   UNL     1       2.797   3.809  17.089  0.00  0.00    +0.000 A 
ATOM     13  N   UNL     1       1.770   3.236  17.753  0.00  0.00    +0.000 NA
ATOM     14  C   UNL     1       1.824   3.310  19.087  0.00  0.00    +0.000 A 
ATOM     15  C   UNL     1       0.845   2.661  19.819  0.00  0.00    +0.000 A 
ATOM     16  C   UNL     1       0.898   2.613  21.216  0.00  0.00    +0.000 A 
ATOM     17  C   UNL     1       1.938   3.256  21.881  0.00  0.00    +0.000 A 
ATOM     18  C   UNL     1       2.900   3.958  21.149  0.00  0.00    +0.000 A 
ATOM     19  C   UNL     1       2.868   3.992  19.758  0.00  0.00    +0.000 A 
ATOM     20  N   UNL     1       3.849   4.615  19.068  0.00  0.00    +0.000 NA
ENDBRANCH   9  11
ENDBRANCH   3   5
BRANCH   2  21
ATOM     21  C   UNL     1       8.071   9.940  18.154  0.00  0.00    +0.000 C 
BRANCH  21  22
ATOM     22  N   UNL     1       9.486  10.354  18.313  0.00  0.00    +0.000 NA
ATOM     23  C   UNL     1       9.716  11.766  17.898  0.00  0.00    +0.000 C 
ATOM     24  C   UNL     1       8.967  12.811  18.749  0.00  0.00    +0.000 C 
ATOM     25  N   UNL     1       9.384  12.672  20.153  0.00  0.00    +0.000 N 
ATOM     26  C   UNL     1       9.260  11.318  20.714  0.00  0.00    +0.000 C 
ATOM     27  C   UNL     1       9.877  10.258  19.750  0.00  0.00    +0.000 C 
BRANCH  25  28
ATOM     28  C   UNL     1       9.627  13.781  20.939  0.00  0.00    +0.000 A 
ATOM     29  C   UNL     1       9.030  13.958  22.198  0.00  0.00    +0.000 A 
ATOM     30  C   UNL     1       9.348  15.047  23.020  0.00  0.00    +0.000 A 
ATOM     31  C   UNL     1      10.277  15.989  22.595  0.00  0.00    +0.000 A 
ATOM     32 CL   UNL     1      10.708  17.303  23.615  0.00  0.00    +0.000 Cl
ATOM     33  C   UNL     1      10.872  15.859  21.348  0.00  0.00    +0.000 A 
ATOM     34  C   UNL     1      10.544  14.768  20.536  0.00  0.00    +0.000 A 
ENDBRANCH  25  28
ENDBRANCH  21  22
ENDBRANCH   2  21
TORSDOF 5
ENDMDL
MODEL 9
REMARK VINA RESULT:      -8.5      1.482      1.849
REMARK  Name = 
REMARK  5 active torsions:
REMARK  status: ('A' for Active; 'I' for Inactive)
REMARK    1  A    between atoms: C_2  and  C_3
REMARK    2  A    between atoms: C_3  and  N_4
REMARK    3  A    between atoms: N_7  and  C_8
REMARK    4  A    between atoms: N_17  and  C_18
REMARK    5  A    between atoms: C_22  and  C_23
REMARK                            x       y       z     vdW  Elec       q    Type
REMARK                         _______ _______ _______ _____ _____    ______ ____
ROOT
ATOM      1  O   UNL     1       2.789   8.998  17.666  0.00  0.00    +0.000 OA
ATOM      2  C   UNL     1       1.922   8.593  18.439  0.00  0.00    +0.000 C 
ATOM      3  N   UNL     1       1.887   7.346  19.028  0.00  0.00    +0.000 N 
ATOM      4  H   UNL     1       1.025   7.092  19.497  0.00  0.00    +0.000 HD
ENDROOT
BRANCH   3   5
ATOM      5  C   UNL     1       2.905   6.378  18.968  0.00  0.00    +0.000 A 
ATOM      6  C   UNL     1       3.069   5.384  19.932  0.00  0.00    +0.000 A 
ATOM      7  C   UNL     1       4.073   4.430  19.789  0.00  0.00    +0.000 A 
ATOM      8  C   UNL     1       4.902   4.452  18.667  0.00  0.00    +0.000 A 
ATOM      9  C   UNL     1       4.721   5.404  17.645  0.00  0.00    +0.000 A 
ATOM     10  C   UNL     1       3.731   6.385  17.841  0.00  0.00    +0.000 A 
BRANCH   9  11
ATOM     11  C   UNL     1       5.444   5.329  16.361  0.00  0.00    +0.000 A 
ATOM     12  C   UNL     1       6.747   5.794  16.219  0.00  0.00    +0.000 A 
ATOM     13  N   UNL     1       7.483   5.634  15.097  0.00  0.00    +0.000 NA
ATOM     14  C   UNL     1       6.910   4.922  14.120  0.00  0.00    +0.000 A 
ATOM     15  C   UNL     1       7.654   4.651  12.985  0.00  0.00    +0.000 A 
ATOM     16  C   UNL     1       7.152   3.827  11.971  0.00  0.00    +0.000 A 
ATOM     17  C   UNL     1       5.871   3.298  12.094  0.00  0.00    +0.000 A 
ATOM     18  C   UNL     1       5.096   3.613  13.214  0.00  0.00    +0.000 A 
ATOM     19  C   UNL     1       5.594   4.412  14.239  0.00  0.00    +0.000 A 
ATOM     20  N   UNL     1       4.854   4.644  15.345  0.00  0.00    +0.000 NA
ENDBRANCH   9  11
ENDBRANCH   3   5
BRANCH   2  21
ATOM     21  C   UNL     1       0.716   9.472  18.787  0.00  0.00    +0.000 C 
BRANCH  21  22
ATOM     22  N   UNL     1       1.108  10.807  19.305  0.00  0.00    +0.000 NA
ATOM     23  C   UNL     1       0.209  11.891  18.821  0.00  0.00    +0.000 C 
ATOM     24  C   UNL     1      -1.253  11.767  19.297  0.00  0.00    +0.000 C 
ATOM     25  N   UNL     1      -1.279  11.772  20.767  0.00  0.00    +0.000 N 
ATOM     26  C   UNL     1      -0.406  10.779  21.415  0.00  0.00    +0.000 C 
ATOM     27  C   UNL     1       1.025  10.809  20.794  0.00  0.00    +0.000 C 
BRANCH  25  28
ATOM     28  C   UNL     1      -2.239  12.480  21.463  0.00  0.00    +0.000 A 
ATOM     29  C   UNL     1      -2.640  12.130  22.762  0.00  0.00    +0.000 A 
ATOM     30  C   UNL     1      -3.555  12.905  23.487  0.00  0.00    +0.000 A 
ATOM     31  C   UNL     1      -4.091  14.055  22.920  0.00  0.00    +0.000 A 
ATOM     32 CL   UNL     1      -5.180  15.037  23.818  0.00  0.00    +0.000 Cl
ATOM     33  C   UNL     1      -3.735  14.421  21.630  0.00  0.00    +0.000 A 
ATOM     34  C   UNL     1      -2.822  13.637  20.917  0.00  0.00    +0.000 A 
ENDBRANCH  25  28
ENDBRANCH  21  22
ENDBRANCH   2  21
TORSDOF 5
ENDMDL
