MODEL 1
REMARK VINA RESULT:      -6.1      0.000      0.000
REMARK  Name = 
REMARK  10 active torsions:
REMARK  status: ('A' for Active; 'I' for Inactive)
REMARK    1  A    between atoms: C_2  and  C_3
REMARK    2  A    between atoms: C_8  and  C_9
REMARK    3  A    between atoms: C_9  and  C_10
REMARK    4  A    between atoms: C_10  and  C_11
REMARK    5  A    between atoms: C_11  and  C_12
REMARK    6  A    between atoms: C_12  and  C_13
REMARK    7  A    between atoms: C_13  and  C_14
REMARK    8  A    between atoms: C_14  and  C_15
REMARK    9  A    between atoms: C_15  and  C_16
REMARK   10  A    between atoms: C_16  and  C_17
REMARK                            x       y       z     vdW  Elec       q    Type
REMARK                         _______ _______ _______ _____ _____    ______ ____
ROOT
ATOM      1  C   UNL     1       4.631   6.585  17.152  0.00  0.00    +0.000 C 
ENDROOT
BRANCH   1   7
ATOM      2  C   UNL     1       6.405   4.829  16.684  0.00  0.00    +0.000 C 
ATOM      3  C   UNL     1       7.685   4.516  17.440  0.00  0.00    +0.000 C 
ATOM      4  C   UNL     1       7.577   5.398  18.645  0.00  0.00    +0.000 C 
ATOM      5  O   UNL     1       8.236   5.278  19.665  0.00  0.00    +0.000 OA
ATOM      6  O   UNL     1       6.667   6.383  18.431  0.00  0.00    +0.000 OA
ATOM      7  C   UNL     1       6.128   6.269  17.106  0.00  0.00    +0.000 C 
BRANCH   2   9
ATOM      8  C   UNL     1       5.549   4.298  14.326  0.00  0.00    +0.000 C 
ATOM      9  C   UNL     1       6.527   4.487  15.219  0.00  0.00    +0.000 C 
ENDBRANCH   2   9
ENDBRANCH   1   7
BRANCH   1  10
ATOM     10  C   UNL     1       3.862   5.535  17.952  0.00  0.00    +0.000 C 
BRANCH  10  11
ATOM     11  C   UNL     1       2.357   5.766  17.864  0.00  0.00    +0.000 C 
BRANCH  11  12
ATOM     12  C   UNL     1       1.639   4.450  17.580  0.00  0.00    +0.000 C 
BRANCH  12  13
ATOM     13  C   UNL     1       2.498   3.261  17.988  0.00  0.00    +0.000 C 
BRANCH  13  14
ATOM     14  C   UNL     1       1.695   2.285  18.844  0.00  0.00    +0.000 C 
BRANCH  14  15
ATOM     15  C   UNL     1       0.748   3.036  19.771  0.00  0.00    +0.000 C 
BRANCH  15  16
ATOM     16  C   UNL     1       1.494   3.615  20.969  0.00  0.00    +0.000 C 
ATOM     17  C   UNL     1       2.096   2.509  21.818  0.00  0.00    +0.000 C 
ENDBRANCH  15  16
ENDBRANCH  14  15
ENDBRANCH  13  14
ENDBRANCH  12  13
ENDBRANCH  11  12
ENDBRANCH  10  11
ENDBRANCH   1  10
TORSDOF 9
ENDMDL
MODEL 2
REMARK VINA RESULT:      -6.1      2.607      5.900
REMARK  Name = 
REMARK  10 active torsions:
REMARK  status: ('A' for Active; 'I' for Inactive)
REMARK    1  A    between atoms: C_2  and  C_3
REMARK    2  A    between atoms: C_8  and  C_9
REMARK    3  A    between atoms: C_9  and  C_10
REMARK    4  A    between atoms: C_10  and  C_11
REMARK    5  A    between atoms: C_11  and  C_12
REMARK    6  A    between atoms: C_12  and  C_13
REMARK    7  A    between atoms: C_13  and  C_14
REMARK    8  A    between atoms: C_14  and  C_15
REMARK    9  A    between atoms: C_15  and  C_16
REMARK   10  A    between atoms: C_16  and  C_17
REMARK                            x       y       z     vdW  Elec       q    Type
REMARK                         _______ _______ _______ _____ _____    ______ ____
ROOT
ATOM      1  C   UNL     1       4.222   3.793  18.333  0.00  0.00    +0.000 C 
ENDROOT
BRANCH   1   7
ATOM      2  C   UNL     1       2.959   5.403  19.838  0.00  0.00    +0.000 C 
ATOM      3  C   UNL     1       2.067   5.117  21.035  0.00  0.00    +0.000 C 
ATOM      4  C   UNL     1       2.238   3.641  21.224  0.00  0.00    +0.000 C 
ATOM      5  O   UNL     1       1.935   3.022  22.231  0.00  0.00    +0.000 OA
ATOM      6  O   UNL     1       2.742   3.074  20.098  0.00  0.00    +0.000 OA
ATOM      7  C   UNL     1       2.919   4.075  19.086  0.00  0.00    +0.000 C 
BRANCH   2   9
ATOM      8  C   UNL     1       3.092   7.228  18.042  0.00  0.00    +0.000 C 
ATOM      9  C   UNL     1       2.554   6.675  19.136  0.00  0.00    +0.000 C 
ENDBRANCH   2   9
ENDBRANCH   1   7
BRANCH   1  10
ATOM     10  C   UNL     1       3.960   3.473  16.862  0.00  0.00    +0.000 C 
BRANCH  10  11
ATOM     11  C   UNL     1       4.770   4.383  15.945  0.00  0.00    +0.000 C 
BRANCH  11  12
ATOM     12  C   UNL     1       6.172   3.816  15.745  0.00  0.00    +0.000 C 
BRANCH  12  13
ATOM     13  C   UNL     1       7.234   4.839  16.127  0.00  0.00    +0.000 C 
BRANCH  13  14
ATOM     14  C   UNL     1       7.651   4.664  17.584  0.00  0.00    +0.000 C 
BRANCH  14  15
ATOM     15  C   UNL     1       7.493   5.972  18.350  0.00  0.00    +0.000 C 
BRANCH  15  16
ATOM     16  C   UNL     1       7.323   7.151  17.397  0.00  0.00    +0.000 C 
ATOM     17  C   UNL     1       8.088   8.365  17.895  0.00  0.00    +0.000 C 
ENDBRANCH  15  16
ENDBRANCH  14  15
ENDBRANCH  13  14
ENDBRANCH  12  13
ENDBRANCH  11  12
ENDBRANCH  10  11
ENDBRANCH   1  10
TORSDOF 9
ENDMDL
MODEL 3
REMARK VINA RESULT:      -6.1      0.987      1.760
REMARK  Name = 
REMARK  10 active torsions:
REMARK  status: ('A' for Active; 'I' for Inactive)
REMARK    1  A    between atoms: C_2  and  C_3
REMARK    2  A    between atoms: C_8  and  C_9
REMARK    3  A    between atoms: C_9  and  C_10
REMARK    4  A    between atoms: C_10  and  C_11
REMARK    5  A    between atoms: C_11  and  C_12
REMARK    6  A    between atoms: C_12  and  C_13
REMARK    7  A    between atoms: C_13  and  C_14
REMARK    8  A    between atoms: C_14  and  C_15
REMARK    9  A    between atoms: C_15  and  C_16
REMARK   10  A    between atoms: C_16  and  C_17
REMARK                            x       y       z     vdW  Elec       q    Type
REMARK                         _______ _______ _______ _____ _____    ______ ____
ROOT
ATOM      1  C   UNL     1       4.758   6.691  16.793  0.00  0.00    +0.000 C 
ENDROOT
BRANCH   1   7
ATOM      2  C   UNL     1       6.385   4.745  16.661  0.00  0.00    +0.000 C 
ATOM      3  C   UNL     1       7.609   4.442  17.511  0.00  0.00    +0.000 C 
ATOM      4  C   UNL     1       7.539   5.498  18.572  0.00  0.00    +0.000 C 
ATOM      5  O   UNL     1       8.152   5.475  19.626  0.00  0.00    +0.000 OA
ATOM      6  O   UNL     1       6.727   6.512  18.178  0.00  0.00    +0.000 OA
ATOM      7  C   UNL     1       6.223   6.249  16.860  0.00  0.00    +0.000 C 
BRANCH   2   9
ATOM      8  C   UNL     1       6.805   4.834  14.134  0.00  0.00    +0.000 C 
ATOM      9  C   UNL     1       6.524   4.183  15.268  0.00  0.00    +0.000 C 
ENDBRANCH   2   9
ENDBRANCH   1   7
BRANCH   1  10
ATOM     10  C   UNL     1       3.831   5.646  17.413  0.00  0.00    +0.000 C 
BRANCH  10  11
ATOM     11  C   UNL     1       3.280   6.121  18.753  0.00  0.00    +0.000 C 
BRANCH  11  12
ATOM     12  C   UNL     1       3.554   5.079  19.833  0.00  0.00    +0.000 C 
BRANCH  12  13
ATOM     13  C   UNL     1       2.370   4.956  20.784  0.00  0.00    +0.000 C 
BRANCH  13  14
ATOM     14  C   UNL     1       1.136   4.446  20.045  0.00  0.00    +0.000 C 
BRANCH  14  15
ATOM     15  C   UNL     1       1.037   2.929  20.146  0.00  0.00    +0.000 C 
BRANCH  15  16
ATOM     16  C   UNL     1       0.876   2.295  18.768  0.00  0.00    +0.000 C 
ATOM     17  C   UNL     1       2.179   2.353  17.989  0.00  0.00    +0.000 C 
ENDBRANCH  15  16
ENDBRANCH  14  15
ENDBRANCH  13  14
ENDBRANCH  12  13
ENDBRANCH  11  12
ENDBRANCH  10  11
ENDBRANCH   1  10
TORSDOF 9
ENDMDL
MODEL 4
REMARK VINA RESULT:      -6.0      1.297      2.264
REMARK  Name = 
REMARK  10 active torsions:
REMARK  status: ('A' for Active; 'I' for Inactive)
REMARK    1  A    between atoms: C_2  and  C_3
REMARK    2  A    between atoms: C_8  and  C_9
REMARK    3  A    between atoms: C_9  and  C_10
REMARK    4  A    between atoms: C_10  and  C_11
REMARK    5  A    between atoms: C_11  and  C_12
REMARK    6  A    between atoms: C_12  and  C_13
REMARK    7  A    between atoms: C_13  and  C_14
REMARK    8  A    between atoms: C_14  and  C_15
REMARK    9  A    between atoms: C_15  and  C_16
REMARK   10  A    between atoms: C_16  and  C_17
REMARK                            x       y       z     vdW  Elec       q    Type
REMARK                         _______ _______ _______ _____ _____    ______ ____
ROOT
ATOM      1  C   UNL     1       3.820   5.049  19.038  0.00  0.00    +0.000 C 
ENDROOT
BRANCH   1   7
ATOM      2  C   UNL     1       5.789   4.589  17.501  0.00  0.00    +0.000 C 
ATOM      3  C   UNL     1       7.272   4.830  17.725  0.00  0.00    +0.000 C 
ATOM      4  C   UNL     1       7.320   5.262  19.158  0.00  0.00    +0.000 C 
ATOM      5  O   UNL     1       8.325   5.291  19.849  0.00  0.00    +0.000 OA
ATOM      6  O   UNL     1       6.091   5.661  19.574  0.00  0.00    +0.000 OA
ATOM      7  C   UNL     1       5.154   5.562  18.492  0.00  0.00    +0.000 C 
BRANCH   2   9
ATOM      8  C   UNL     1       5.364   5.751  15.254  0.00  0.00    +0.000 C 
ATOM      9  C   UNL     1       5.428   4.668  16.038  0.00  0.00    +0.000 C 
ENDBRANCH   2   9
ENDBRANCH   1   7
BRANCH   1  10
ATOM     10  C   UNL     1       2.967   6.188  19.594  0.00  0.00    +0.000 C 
BRANCH  10  11
ATOM     11  C   UNL     1       1.830   5.657  20.459  0.00  0.00    +0.000 C 
BRANCH  11  12
ATOM     12  C   UNL     1       2.264   4.383  21.175  0.00  0.00    +0.000 C 
BRANCH  12  13
ATOM     13  C   UNL     1       1.220   3.285  21.017  0.00  0.00    +0.000 C 
BRANCH  13  14
ATOM     14  C   UNL     1       0.701   3.239  19.583  0.00  0.00    +0.000 C 
BRANCH  14  15
ATOM     15  C   UNL     1       1.202   1.989  18.869  0.00  0.00    +0.000 C 
BRANCH  15  16
ATOM     16  C   UNL     1       2.280   2.334  17.846  0.00  0.00    +0.000 C 
ATOM     17  C   UNL     1       3.562   1.570  18.132  0.00  0.00    +0.000 C 
ENDBRANCH  15  16
ENDBRANCH  14  15
ENDBRANCH  13  14
ENDBRANCH  12  13
ENDBRANCH  11  12
ENDBRANCH  10  11
ENDBRANCH   1  10
TORSDOF 9
ENDMDL
MODEL 5
REMARK VINA RESULT:      -5.9      1.832      3.072
REMARK  Name = 
REMARK  10 active torsions:
REMARK  status: ('A' for Active; 'I' for Inactive)
REMARK    1  A    between atoms: C_2  and  C_3
REMARK    2  A    between atoms: C_8  and  C_9
REMARK    3  A    between atoms: C_9  and  C_10
REMARK    4  A    between atoms: C_10  and  C_11
REMARK    5  A    between atoms: C_11  and  C_12
REMARK    6  A    between atoms: C_12  and  C_13
REMARK    7  A    between atoms: C_13  and  C_14
REMARK    8  A    between atoms: C_14  and  C_15
REMARK    9  A    between atoms: C_15  and  C_16
REMARK   10  A    between atoms: C_16  and  C_17
REMARK                            x       y       z     vdW  Elec       q    Type
REMARK                         _______ _______ _______ _____ _____    ______ ____
ROOT
ATOM      1  C   UNL     1       4.856   5.527  19.097  0.00  0.00    +0.000 C 
ENDROOT
BRANCH   1   7
ATOM      2  C   UNL     1       6.628   6.183  17.399  0.00  0.00    +0.000 C 
ATOM      3  C   UNL     1       7.130   5.428  16.179  0.00  0.00    +0.000 C 
ATOM      4  C   UNL     1       6.204   4.252  16.118  0.00  0.00    +0.000 C 
ATOM      5  O   UNL     1       6.052   3.529  15.148  0.00  0.00    +0.000 OA
ATOM      6  O   UNL     1       5.584   4.075  17.313  0.00  0.00    +0.000 OA
ATOM      7  C   UNL     1       6.043   5.059  18.251  0.00  0.00    +0.000 C 
BRANCH   2   9
ATOM      8  C   UNL     1       7.913   8.378  17.721  0.00  0.00    +0.000 C 
ATOM      9  C   UNL     1       7.694   7.082  17.974  0.00  0.00    +0.000 C 
ENDBRANCH   2   9
ENDBRANCH   1   7
BRANCH   1  10
ATOM     10  C   UNL     1       3.637   5.834  18.228  0.00  0.00    +0.000 C 
BRANCH  10  11
ATOM     11  C   UNL     1       2.486   6.383  19.064  0.00  0.00    +0.000 C 
BRANCH  11  12
ATOM     12  C   UNL     1       2.405   5.644  20.396  0.00  0.00    +0.000 C 
BRANCH  12  13
ATOM     13  C   UNL     1       1.208   4.702  20.426  0.00  0.00    +0.000 C 
BRANCH  13  14
ATOM     14  C   UNL     1       1.590   3.366  21.057  0.00  0.00    +0.000 C 
BRANCH  14  15
ATOM     15  C   UNL     1       1.552   2.250  20.020  0.00  0.00    +0.000 C 
BRANCH  15  16
ATOM     16  C   UNL     1       1.283   2.805  18.624  0.00  0.00    +0.000 C 
ATOM     17  C   UNL     1       2.405   2.436  17.669  0.00  0.00    +0.000 C 
ENDBRANCH  15  16
ENDBRANCH  14  15
ENDBRANCH  13  14
ENDBRANCH  12  13
ENDBRANCH  11  12
ENDBRANCH  10  11
ENDBRANCH   1  10
TORSDOF 9
ENDMDL
MODEL 6
REMARK VINA RESULT:      -5.9      1.432      2.207
REMARK  Name = 
REMARK  10 active torsions:
REMARK  status: ('A' for Active; 'I' for Inactive)
REMARK    1  A    between atoms: C_2  and  C_3
REMARK    2  A    between atoms: C_8  and  C_9
REMARK    3  A    between atoms: C_9  and  C_10
REMARK    4  A    between atoms: C_10  and  C_11
REMARK    5  A    between atoms: C_11  and  C_12
REMARK    6  A    between atoms: C_12  and  C_13
REMARK    7  A    between atoms: C_13  and  C_14
REMARK    8  A    between atoms: C_14  and  C_15
REMARK    9  A    between atoms: C_15  and  C_16
REMARK   10  A    between atoms: C_16  and  C_17
REMARK                            x       y       z     vdW  Elec       q    Type
REMARK                         _______ _______ _______ _____ _____    ______ ____
ROOT
ATOM      1  C   UNL     1       3.549   6.224  17.707  0.00  0.00    +0.000 C 
ENDROOT
BRANCH   1   7
ATOM      2  C   UNL     1       5.643   5.120  16.787  0.00  0.00    +0.000 C 
ATOM      3  C   UNL     1       7.064   5.652  16.702  0.00  0.00    +0.000 C 
ATOM      4  C   UNL     1       6.974   6.946  17.451  0.00  0.00    +0.000 C 
ATOM      5  O   UNL     1       7.925   7.578  17.879  0.00  0.00    +0.000 OA
ATOM      6  O   UNL     1       5.680   7.345  17.553  0.00  0.00    +0.000 OA
ATOM      7  C   UNL     1       4.826   6.406  16.883  0.00  0.00    +0.000 C 
BRANCH   2   9
ATOM      8  C   UNL     1       6.083   3.865  14.595  0.00  0.00    +0.000 C 
ATOM      9  C   UNL     1       5.355   4.129  15.686  0.00  0.00    +0.000 C 
ENDBRANCH   2   9
ENDBRANCH   1   7
BRANCH   1  10
ATOM     10  C   UNL     1       3.865   5.823  19.148  0.00  0.00    +0.000 C 
BRANCH  10  11
ATOM     11  C   UNL     1       2.654   6.017  20.054  0.00  0.00    +0.000 C 
BRANCH  11  12
ATOM     12  C   UNL     1       2.347   4.725  20.805  0.00  0.00    +0.000 C 
BRANCH  12  13
ATOM     13  C   UNL     1       0.967   4.197  20.438  0.00  0.00    +0.000 C 
BRANCH  13  14
ATOM     14  C   UNL     1       1.080   2.891  19.656  0.00  0.00    +0.000 C 
BRANCH  14  15
ATOM     15  C   UNL     1       1.446   3.166  18.202  0.00  0.00    +0.000 C 
BRANCH  15  16
ATOM     16  C   UNL     1       2.446   2.137  17.683  0.00  0.00    +0.000 C 
ATOM     17  C   UNL     1       3.735   2.182  18.486  0.00  0.00    +0.000 C 
ENDBRANCH  15  16
ENDBRANCH  14  15
ENDBRANCH  13  14
ENDBRANCH  12  13
ENDBRANCH  11  12
ENDBRANCH  10  11
ENDBRANCH   1  10
TORSDOF 9
ENDMDL
MODEL 7
REMARK VINA RESULT:      -5.9      2.533      4.007
REMARK  Name = 
REMARK  10 active torsions:
REMARK  status: ('A' for Active; 'I' for Inactive)
REMARK    1  A    between atoms: C_2  and  C_3
REMARK    2  A    between atoms: C_8  and  C_9
REMARK    3  A    between atoms: C_9  and  C_10
REMARK    4  A    between atoms: C_10  and  C_11
REMARK    5  A    between atoms: C_11  and  C_12
REMARK    6  A    between atoms: C_12  and  C_13
REMARK    7  A    between atoms: C_13  and  C_14
REMARK    8  A    between atoms: C_14  and  C_15
REMARK    9  A    between atoms: C_15  and  C_16
REMARK   10  A    between atoms: C_16  and  C_17
REMARK                            x       y       z     vdW  Elec       q    Type
REMARK                         _______ _______ _______ _____ _____    ______ ____
ROOT
ATOM      1  C   UNL     1       5.893   3.555  15.279  0.00  0.00    +0.000 C 
ENDROOT
BRANCH   1   7
ATOM      2  C   UNL     1       6.486   3.526  12.810  0.00  0.00    +0.000 C 
ATOM      3  C   UNL     1       7.361   4.476  12.010  0.00  0.00    +0.000 C 
ATOM      4  C   UNL     1       7.936   5.363  13.072  0.00  0.00    +0.000 C 
ATOM      5  O   UNL     1       8.905   6.090  12.930  0.00  0.00    +0.000 OA
ATOM      6  O   UNL     1       7.200   5.278  14.209  0.00  0.00    +0.000 OA
ATOM      7  C   UNL     1       6.094   4.385  14.009  0.00  0.00    +0.000 C 
BRANCH   2   9
ATOM      8  C   UNL     1       4.279   3.458  11.506  0.00  0.00    +0.000 C 
ATOM      9  C   UNL     1       5.413   2.903  11.951  0.00  0.00    +0.000 C 
ENDBRANCH   2   9
ENDBRANCH   1   7
BRANCH   1  10
ATOM     10  C   UNL     1       4.847   4.184  16.199  0.00  0.00    +0.000 C 
BRANCH  10  11
ATOM     11  C   UNL     1       5.446   4.539  17.556  0.00  0.00    +0.000 C 
BRANCH  11  12
ATOM     12  C   UNL     1       4.701   5.721  18.166  0.00  0.00    +0.000 C 
BRANCH  12  13
ATOM     13  C   UNL     1       4.257   5.411  19.590  0.00  0.00    +0.000 C 
BRANCH  13  14
ATOM     14  C   UNL     1       3.010   4.532  19.586  0.00  0.00    +0.000 C 
BRANCH  14  15
ATOM     15  C   UNL     1       1.977   5.068  18.602  0.00  0.00    +0.000 C 
BRANCH  15  16
ATOM     16  C   UNL     1       1.436   3.955  17.710  0.00  0.00    +0.000 C 
ATOM     17  C   UNL     1       2.024   2.611  18.104  0.00  0.00    +0.000 C 
ENDBRANCH  15  16
ENDBRANCH  14  15
ENDBRANCH  13  14
ENDBRANCH  12  13
ENDBRANCH  11  12
ENDBRANCH  10  11
ENDBRANCH   1  10
TORSDOF 9
ENDMDL
MODEL 8
REMARK VINA RESULT:      -5.8      0.968      1.382
REMARK  Name = 
REMARK  10 active torsions:
REMARK  status: ('A' for Active; 'I' for Inactive)
REMARK    1  A    between atoms: C_2  and  C_3
REMARK    2  A    between atoms: C_8  and  C_9
REMARK    3  A    between atoms: C_9  and  C_10
REMARK    4  A    between atoms: C_10  and  C_11
REMARK    5  A    between atoms: C_11  and  C_12
REMARK    6  A    between atoms: C_12  and  C_13
REMARK    7  A    between atoms: C_13  and  C_14
REMARK    8  A    between atoms: C_14  and  C_15
REMARK    9  A    between atoms: C_15  and  C_16
REMARK   10  A    between atoms: C_16  and  C_17
REMARK                            x       y       z     vdW  Elec       q    Type
REMARK                         _______ _______ _______ _____ _____    ______ ____
ROOT
ATOM      1  C   UNL     1       5.071   6.858  16.489  0.00  0.00    +0.000 C 
ENDROOT
BRANCH   1   7
ATOM      2  C   UNL     1       6.648   4.868  16.504  0.00  0.00    +0.000 C 
ATOM      3  C   UNL     1       7.715   4.482  17.515  0.00  0.00    +0.000 C 
ATOM      4  C   UNL     1       7.506   5.484  18.609  0.00  0.00    +0.000 C 
ATOM      5  O   UNL     1       7.945   5.387  19.743  0.00  0.00    +0.000 OA
ATOM      6  O   UNL     1       6.792   6.543  18.150  0.00  0.00    +0.000 OA
ATOM      7  C   UNL     1       6.495   6.365  16.758  0.00  0.00    +0.000 C 
BRANCH   2   9
ATOM      8  C   UNL     1       6.157   4.025  14.133  0.00  0.00    +0.000 C 
ATOM      9  C   UNL     1       6.990   4.373  15.120  0.00  0.00    +0.000 C 
ENDBRANCH   2   9
ENDBRANCH   1   7
BRANCH   1  10
ATOM     10  C   UNL     1       4.151   6.589  17.679  0.00  0.00    +0.000 C 
BRANCH  10  11
ATOM     11  C   UNL     1       3.459   5.236  17.548  0.00  0.00    +0.000 C 
BRANCH  11  12
ATOM     12  C   UNL     1       2.044   5.312  18.114  0.00  0.00    +0.000 C 
BRANCH  12  13
ATOM     13  C   UNL     1       1.339   3.967  17.999  0.00  0.00    +0.000 C 
BRANCH  13  14
ATOM     14  C   UNL     1       1.313   3.256  19.349  0.00  0.00    +0.000 C 
BRANCH  14  15
ATOM     15  C   UNL     1       1.797   1.818  19.208  0.00  0.00    +0.000 C 
BRANCH  15  16
ATOM     16  C   UNL     1       3.238   1.768  18.709  0.00  0.00    +0.000 C 
ATOM     17  C   UNL     1       4.187   2.366  19.734  0.00  0.00    +0.000 C 
ENDBRANCH  15  16
ENDBRANCH  14  15
ENDBRANCH  13  14
ENDBRANCH  12  13
ENDBRANCH  11  12
ENDBRANCH  10  11
ENDBRANCH   1  10
TORSDOF 9
ENDMDL
MODEL 9
REMARK VINA RESULT:      -5.8      2.751      6.445
REMARK  Name = 
REMARK  10 active torsions:
REMARK  status: ('A' for Active; 'I' for Inactive)
REMARK    1  A    between atoms: C_2  and  C_3
REMARK    2  A    between atoms: C_8  and  C_9
REMARK    3  A    between atoms: C_9  and  C_10
REMARK    4  A    between atoms: C_10  and  C_11
REMARK    5  A    between atoms: C_11  and  C_12
REMARK    6  A    between atoms: C_12  and  C_13
REMARK    7  A    between atoms: C_13  and  C_14
REMARK    8  A    between atoms: C_14  and  C_15
REMARK    9  A    between atoms: C_15  and  C_16
REMARK   10  A    between atoms: C_16  and  C_17
REMARK                            x       y       z     vdW  Elec       q    Type
REMARK                         _______ _______ _______ _____ _____    ______ ____
ROOT
ATOM      1  C   UNL     1       2.903   3.228  17.595  0.00  0.00    +0.000 C 
ENDROOT
BRANCH   1   7
ATOM      2  C   UNL     1       2.934   5.172  19.229  0.00  0.00    +0.000 C 
ATOM      3  C   UNL     1       2.499   5.224  20.684  0.00  0.00    +0.000 C 
ATOM      4  C   UNL     1       2.190   3.790  20.985  0.00  0.00    +0.000 C 
ATOM      5  O   UNL     1       2.075   3.316  22.103  0.00  0.00    +0.000 OA
ATOM      6  O   UNL     1       2.013   3.093  19.834  0.00  0.00    +0.000 OA
ATOM      7  C   UNL     1       2.154   3.969  18.706  0.00  0.00    +0.000 C 
BRANCH   2   9
ATOM      8  C   UNL     1       2.246   7.636  19.050  0.00  0.00    +0.000 C 
ATOM      9  C   UNL     1       2.783   6.514  18.556  0.00  0.00    +0.000 C 
ENDBRANCH   2   9
ENDBRANCH   1   7
BRANCH   1  10
ATOM     10  C   UNL     1       4.385   3.598  17.576  0.00  0.00    +0.000 C 
BRANCH  10  11
ATOM     11  C   UNL     1       4.798   4.159  16.219  0.00  0.00    +0.000 C 
BRANCH  11  12
ATOM     12  C   UNL     1       6.317   4.149  16.086  0.00  0.00    +0.000 C 
BRANCH  12  13
ATOM     13  C   UNL     1       6.744   4.534  14.676  0.00  0.00    +0.000 C 
BRANCH  13  14
ATOM     14  C   UNL     1       5.686   4.114  13.659  0.00  0.00    +0.000 C 
BRANCH  14  15
ATOM     15  C   UNL     1       6.336   3.464  12.444  0.00  0.00    +0.000 C 
BRANCH  15  16
ATOM     16  C   UNL     1       5.366   2.520  11.740  0.00  0.00    +0.000 C 
ATOM     17  C   UNL     1       4.124   3.264  11.281  0.00  0.00    +0.000 C 
ENDBRANCH  15  16
ENDBRANCH  14  15
ENDBRANCH  13  14
ENDBRANCH  12  13
ENDBRANCH  11  12
ENDBRANCH  10  11
ENDBRANCH   1  10
TORSDOF 9
ENDMDL
