MODEL 1
REMARK VINA RESULT:      -7.1      0.000      0.000
REMARK  Name = 
REMARK  6 active torsions:
REMARK  status: ('A' for Active; 'I' for Inactive)
REMARK    1  A    between atoms: C_2  and  C_3
REMARK    2  A    between atoms: C_3  and  N_4
REMARK    3  A    between atoms: C_5  and  C_7
REMARK    4  A    between atoms: N_12  and  N_13
REMARK    5  A    between atoms: C_14  and  C_15
REMARK    6  A    between atoms: C_20  and  N_21
REMARK                            x       y       z     vdW  Elec       q    Type
REMARK                         _______ _______ _______ _____ _____    ______ ____
ROOT
ATOM      1  O   UNL     1       6.477   7.423  16.518  0.00  0.00    +0.000 OA
ATOM      2  C   UNL     1       7.273   7.064  17.385  0.00  0.00    +0.000 C 
ATOM      3  N   UNL     1       8.104   7.903  18.115  0.00  0.00    +0.000 N 
ATOM      4  H   UNL     1       8.575   7.551  18.948  0.00  0.00    +0.000 HD
ENDROOT
BRANCH   3   5
ATOM      5  N   UNL     1       8.087   9.245  17.863  0.00  0.00    +0.000 NA
ATOM      6  C   UNL     1       8.990   9.949  18.468  0.00  0.00    +0.000 C 
BRANCH   6   7
ATOM      7  C   UNL     1       9.021  11.422  18.308  0.00  0.00    +0.000 A 
ATOM      8  C   UNL     1       7.980  12.023  17.582  0.00  0.00    +0.000 A 
ATOM      9  C   UNL     1       7.928  13.411  17.424  0.00  0.00    +0.000 A 
ATOM     10  C   UNL     1       8.917  14.221  17.980  0.00  0.00    +0.000 A 
ATOM     11  C   UNL     1       9.973  13.643  18.681  0.00  0.00    +0.000 A 
ATOM     12  C   UNL     1      10.016  12.247  18.840  0.00  0.00    +0.000 A 
BRANCH  12  13
ATOM     13  N   UNL     1      11.173  11.695  19.520  0.00  0.00    +0.000 N 
ATOM     14  O   UNL     1      11.133  11.638  20.754  0.00  0.00    +0.000 OA
ATOM     15  O   UNL     1      12.130  11.352  18.813  0.00  0.00    +0.000 OA
ENDBRANCH  12  13
ENDBRANCH   6   7
ENDBRANCH   3   5
BRANCH   2  16
ATOM     16  C   UNL     1       7.371   5.603  17.813  0.00  0.00    +0.000 C 
BRANCH  16  17
ATOM     17  N   UNL     1       6.096   4.934  17.665  0.00  0.00    +0.000 N 
ATOM     18  C   UNL     1       5.159   4.908  18.674  0.00  0.00    +0.000 C 
ATOM     19  O   UNL     1       5.389   5.443  19.759  0.00  0.00    +0.000 OA
ATOM     20  H   UNL     1       5.808   4.642  16.739  0.00  0.00    +0.000 HD
BRANCH  18  21
ATOM     21  C   UNL     1       3.909   4.222  18.360  0.00  0.00    +0.000 A 
ATOM     22  C   UNL     1       2.754   4.784  17.841  0.00  0.00    +0.000 A 
ATOM     23  C   UNL     1       1.713   3.827  17.653  0.00  0.00    +0.000 A 
ATOM     24  C   UNL     1       2.102   2.564  18.038  0.00  0.00    +0.000 A 
ATOM     25  S   UNL     1       3.705   2.538  18.624  0.00  0.00    +0.000 S 
ENDBRANCH  18  21
ENDBRANCH  16  17
ENDBRANCH   2  16
TORSDOF 6
ENDMDL
MODEL 2
REMARK VINA RESULT:      -7.1      6.313      7.777
REMARK  Name = 
REMARK  6 active torsions:
REMARK  status: ('A' for Active; 'I' for Inactive)
REMARK    1  A    between atoms: C_2  and  C_3
REMARK    2  A    between atoms: C_3  and  N_4
REMARK    3  A    between atoms: C_5  and  C_7
REMARK    4  A    between atoms: N_12  and  N_13
REMARK    5  A    between atoms: C_14  and  C_15
REMARK    6  A    between atoms: C_20  and  N_21
REMARK                            x       y       z     vdW  Elec       q    Type
REMARK                         _______ _______ _______ _____ _____    ______ ____
ROOT
ATOM      1  O   UNL     1       0.883   4.280  20.647  0.00  0.00    +0.000 OA
ATOM      2  C   UNL     1       1.999   4.774  20.485  0.00  0.00    +0.000 C 
ATOM      3  N   UNL     1       2.308   6.123  20.597  0.00  0.00    +0.000 N 
ATOM      4  H   UNL     1       3.283   6.416  20.652  0.00  0.00    +0.000 HD
ENDROOT
BRANCH   3   5
ATOM      5  N   UNL     1       1.315   7.014  20.886  0.00  0.00    +0.000 NA
ATOM      6  C   UNL     1       1.670   8.258  20.959  0.00  0.00    +0.000 C 
BRANCH   6   7
ATOM      7  C   UNL     1       0.680   9.298  21.324  0.00  0.00    +0.000 A 
ATOM      8  C   UNL     1       0.128   9.251  22.615  0.00  0.00    +0.000 A 
ATOM      9  C   UNL     1      -0.784  10.223  23.037  0.00  0.00    +0.000 A 
ATOM     10  C   UNL     1      -1.167  11.251  22.176  0.00  0.00    +0.000 A 
ATOM     11  C   UNL     1      -0.652  11.300  20.883  0.00  0.00    +0.000 A 
ATOM     12  C   UNL     1       0.268  10.322  20.467  0.00  0.00    +0.000 A 
BRANCH  12  13
ATOM     13  N   UNL     1       0.719  10.384  19.089  0.00  0.00    +0.000 N 
ATOM     14  O   UNL     1       0.121   9.687  18.263  0.00  0.00    +0.000 OA
ATOM     15  O   UNL     1       1.695  11.109  18.850  0.00  0.00    +0.000 OA
ENDBRANCH  12  13
ENDBRANCH   6   7
ENDBRANCH   3   5
BRANCH   2  16
ATOM     16  C   UNL     1       3.218   3.901  20.207  0.00  0.00    +0.000 C 
BRANCH  16  17
ATOM     17  N   UNL     1       3.806   4.225  18.924  0.00  0.00    +0.000 N 
ATOM     18  C   UNL     1       5.143   4.523  18.784  0.00  0.00    +0.000 C 
ATOM     19  O   UNL     1       5.888   4.546  19.766  0.00  0.00    +0.000 OA
ATOM     20  H   UNL     1       3.268   4.043  18.086  0.00  0.00    +0.000 HD
BRANCH  18  21
ATOM     21  C   UNL     1       5.593   4.795  17.422  0.00  0.00    +0.000 A 
ATOM     22  C   UNL     1       4.816   5.200  16.350  0.00  0.00    +0.000 A 
ATOM     23  C   UNL     1       5.576   5.378  15.156  0.00  0.00    +0.000 A 
ATOM     24  C   UNL     1       6.910   5.099  15.351  0.00  0.00    +0.000 A 
ATOM     25  S   UNL     1       7.236   4.623  16.957  0.00  0.00    +0.000 S 
ENDBRANCH  18  21
ENDBRANCH  16  17
ENDBRANCH   2  16
TORSDOF 6
ENDMDL
MODEL 3
REMARK VINA RESULT:      -7.0      5.592      8.081
REMARK  Name = 
REMARK  6 active torsions:
REMARK  status: ('A' for Active; 'I' for Inactive)
REMARK    1  A    between atoms: C_2  and  C_3
REMARK    2  A    between atoms: C_3  and  N_4
REMARK    3  A    between atoms: C_5  and  C_7
REMARK    4  A    between atoms: N_12  and  N_13
REMARK    5  A    between atoms: C_14  and  C_15
REMARK    6  A    between atoms: C_20  and  N_21
REMARK                            x       y       z     vdW  Elec       q    Type
REMARK                         _______ _______ _______ _____ _____    ______ ____
ROOT
ATOM      1  O   UNL     1       0.874   4.704  20.810  0.00  0.00    +0.000 OA
ATOM      2  C   UNL     1       1.858   5.246  20.308  0.00  0.00    +0.000 C 
ATOM      3  N   UNL     1       2.165   6.597  20.392  0.00  0.00    +0.000 N 
ATOM      4  H   UNL     1       3.095   6.923  20.129  0.00  0.00    +0.000 HD
ENDROOT
BRANCH   3   5
ATOM      5  N   UNL     1       1.316   7.435  21.056  0.00  0.00    +0.000 NA
ATOM      6  C   UNL     1       1.220   8.638  20.585  0.00  0.00    +0.000 C 
BRANCH   6   7
ATOM      7  C   UNL     1       0.370   9.643  21.267  0.00  0.00    +0.000 A 
ATOM      8  C   UNL     1      -0.152   9.309  22.527  0.00  0.00    +0.000 A 
ATOM      9  C   UNL     1      -0.931  10.224  23.242  0.00  0.00    +0.000 A 
ATOM     10  C   UNL     1      -1.208  11.482  22.708  0.00  0.00    +0.000 A 
ATOM     11  C   UNL     1      -0.721  11.823  21.448  0.00  0.00    +0.000 A 
ATOM     12  C   UNL     1       0.064  10.899  20.738  0.00  0.00    +0.000 A 
BRANCH  12  13
ATOM     13  N   UNL     1       0.488  11.282  19.403  0.00  0.00    +0.000 N 
ATOM     14  O   UNL     1       1.572  11.863  19.295  0.00  0.00    +0.000 OA
ATOM     15  O   UNL     1      -0.288  11.024  18.472  0.00  0.00    +0.000 OA
ENDBRANCH  12  13
ENDBRANCH   6   7
ENDBRANCH   3   5
BRANCH   2  16
ATOM     16  C   UNL     1       2.923   4.434  19.578  0.00  0.00    +0.000 C 
BRANCH  16  17
ATOM     17  N   UNL     1       4.032   5.274  19.178  0.00  0.00    +0.000 N 
ATOM     18  C   UNL     1       5.316   4.791  19.067  0.00  0.00    +0.000 C 
ATOM     19  O   UNL     1       5.570   3.614  19.331  0.00  0.00    +0.000 OA
ATOM     20  H   UNL     1       3.830   6.187  18.788  0.00  0.00    +0.000 HD
BRANCH  18  21
ATOM     21  C   UNL     1       6.319   5.753  18.620  0.00  0.00    +0.000 A 
ATOM     22  C   UNL     1       7.574   5.967  19.164  0.00  0.00    +0.000 A 
ATOM     23  C   UNL     1       8.304   6.985  18.481  0.00  0.00    +0.000 A 
ATOM     24  C   UNL     1       7.583   7.520  17.439  0.00  0.00    +0.000 A 
ATOM     25  S   UNL     1       6.041   6.804  17.292  0.00  0.00    +0.000 S 
ENDBRANCH  18  21
ENDBRANCH  16  17
ENDBRANCH   2  16
TORSDOF 6
ENDMDL
MODEL 4
REMARK VINA RESULT:      -7.0      6.415      9.470
REMARK  Name = 
REMARK  6 active torsions:
REMARK  status: ('A' for Active; 'I' for Inactive)
REMARK    1  A    between atoms: C_2  and  C_3
REMARK    2  A    between atoms: C_3  and  N_4
REMARK    3  A    between atoms: C_5  and  C_7
REMARK    4  A    between atoms: N_12  and  N_13
REMARK    5  A    between atoms: C_14  and  C_15
REMARK    6  A    between atoms: C_20  and  N_21
REMARK                            x       y       z     vdW  Elec       q    Type
REMARK                         _______ _______ _______ _____ _____    ______ ____
ROOT
ATOM      1  O   UNL     1       1.035   8.788  20.349  0.00  0.00    +0.000 OA
ATOM      2  C   UNL     1       1.484   9.055  19.235  0.00  0.00    +0.000 C 
ATOM      3  N   UNL     1       2.158   8.171  18.402  0.00  0.00    +0.000 N 
ATOM      4  H   UNL     1       2.310   8.413  17.424  0.00  0.00    +0.000 HD
ENDROOT
BRANCH   3   5
ATOM      5  N   UNL     1       2.384   6.894  18.828  0.00  0.00    +0.000 NA
ATOM      6  C   UNL     1       2.413   5.983  17.907  0.00  0.00    +0.000 C 
BRANCH   6   7
ATOM      7  C   UNL     1       2.594   4.558  18.269  0.00  0.00    +0.000 A 
ATOM      8  C   UNL     1       1.445   3.754  18.353  0.00  0.00    +0.000 A 
ATOM      9  C   UNL     1       1.547   2.392  18.654  0.00  0.00    +0.000 A 
ATOM     10  C   UNL     1       2.795   1.814  18.886  0.00  0.00    +0.000 A 
ATOM     11  C   UNL     1       3.944   2.600  18.834  0.00  0.00    +0.000 A 
ATOM     12  C   UNL     1       3.833   3.966  18.526  0.00  0.00    +0.000 A 
BRANCH  12  13
ATOM     13  N   UNL     1       5.055   4.750  18.552  0.00  0.00    +0.000 N 
ATOM     14  O   UNL     1       5.358   5.294  19.619  0.00  0.00    +0.000 OA
ATOM     15  O   UNL     1       5.687   4.840  17.491  0.00  0.00    +0.000 OA
ENDBRANCH  12  13
ENDBRANCH   6   7
ENDBRANCH   3   5
BRANCH   2  16
ATOM     16  C   UNL     1       1.267  10.426  18.602  0.00  0.00    +0.000 C 
BRANCH  16  17
ATOM     17  N   UNL     1       0.005  10.475  17.894  0.00  0.00    +0.000 N 
ATOM     18  C   UNL     1      -1.137  10.991  18.465  0.00  0.00    +0.000 C 
ATOM     19  O   UNL     1      -1.125  11.412  19.623  0.00  0.00    +0.000 OA
ATOM     20  H   UNL     1       0.003  10.304  16.896  0.00  0.00    +0.000 HD
BRANCH  18  21
ATOM     21  C   UNL     1      -2.322  11.003  17.613  0.00  0.00    +0.000 A 
ATOM     22  C   UNL     1      -2.400  10.630  16.282  0.00  0.00    +0.000 A 
ATOM     23  C   UNL     1      -3.716  10.764  15.748  0.00  0.00    +0.000 A 
ATOM     24  C   UNL     1      -4.603  11.239  16.687  0.00  0.00    +0.000 A 
ATOM     25  S   UNL     1      -3.852  11.524  18.192  0.00  0.00    +0.000 S 
ENDBRANCH  18  21
ENDBRANCH  16  17
ENDBRANCH   2  16
TORSDOF 6
ENDMDL
MODEL 5
REMARK VINA RESULT:      -7.0      6.708      9.708
REMARK  Name = 
REMARK  6 active torsions:
REMARK  status: ('A' for Active; 'I' for Inactive)
REMARK    1  A    between atoms: C_2  and  C_3
REMARK    2  A    between atoms: C_3  and  N_4
REMARK    3  A    between atoms: C_5  and  C_7
REMARK    4  A    between atoms: N_12  and  N_13
REMARK    5  A    between atoms: C_14  and  C_15
REMARK    6  A    between atoms: C_20  and  N_21
REMARK                            x       y       z     vdW  Elec       q    Type
REMARK                         _______ _______ _______ _____ _____    ______ ____
ROOT
ATOM      1  O   UNL     1       0.621   9.099  20.423  0.00  0.00    +0.000 OA
ATOM      2  C   UNL     1       1.295   9.141  19.395  0.00  0.00    +0.000 C 
ATOM      3  N   UNL     1       2.184   8.161  18.972  0.00  0.00    +0.000 N 
ATOM      4  H   UNL     1       2.541   8.178  18.017  0.00  0.00    +0.000 HD
ENDROOT
BRANCH   3   5
ATOM      5  N   UNL     1       2.373   7.053  19.746  0.00  0.00    +0.000 NA
ATOM      6  C   UNL     1       2.411   5.920  19.119  0.00  0.00    +0.000 C 
BRANCH   6   7
ATOM      7  C   UNL     1       2.554   4.652  19.873  0.00  0.00    +0.000 A 
ATOM      8  C   UNL     1       1.550   4.325  20.799  0.00  0.00    +0.000 A 
ATOM      9  C   UNL     1       1.604   3.127  21.518  0.00  0.00    +0.000 A 
ATOM     10  C   UNL     1       2.664   2.240  21.330  0.00  0.00    +0.000 A 
ATOM     11  C   UNL     1       3.683   2.558  20.436  0.00  0.00    +0.000 A 
ATOM     12  C   UNL     1       3.620   3.762  19.714  0.00  0.00    +0.000 A 
BRANCH  12  13
ATOM     13  N   UNL     1       4.742   4.072  18.848  0.00  0.00    +0.000 N 
ATOM     14  O   UNL     1       5.734   4.594  19.367  0.00  0.00    +0.000 OA
ATOM     15  O   UNL     1       4.608   3.819  17.643  0.00  0.00    +0.000 OA
ENDBRANCH  12  13
ENDBRANCH   6   7
ENDBRANCH   3   5
BRANCH   2  16
ATOM     16  C   UNL     1       1.157  10.291  18.402  0.00  0.00    +0.000 C 
BRANCH  16  17
ATOM     17  N   UNL     1      -0.181  10.342  17.852  0.00  0.00    +0.000 N 
ATOM     18  C   UNL     1      -1.106  11.279  18.258  0.00  0.00    +0.000 C 
ATOM     19  O   UNL     1      -0.826  12.101  19.132  0.00  0.00    +0.000 OA
ATOM     20  H   UNL     1      -0.382   9.804  17.018  0.00  0.00    +0.000 HD
BRANCH  18  21
ATOM     21  C   UNL     1      -2.401  11.224  17.586  0.00  0.00    +0.000 A 
ATOM     22  C   UNL     1      -2.643  10.895  16.263  0.00  0.00    +0.000 A 
ATOM     23  C   UNL     1      -4.030  10.938  15.930  0.00  0.00    +0.000 A 
ATOM     24  C   UNL     1      -4.804  11.303  17.008  0.00  0.00    +0.000 A 
ATOM     25  S   UNL     1      -3.865  11.595  18.402  0.00  0.00    +0.000 S 
ENDBRANCH  18  21
ENDBRANCH  16  17
ENDBRANCH   2  16
TORSDOF 6
ENDMDL
MODEL 6
REMARK VINA RESULT:      -7.0      6.602      9.150
REMARK  Name = 
REMARK  6 active torsions:
REMARK  status: ('A' for Active; 'I' for Inactive)
REMARK    1  A    between atoms: C_2  and  C_3
REMARK    2  A    between atoms: C_3  and  N_4
REMARK    3  A    between atoms: C_5  and  C_7
REMARK    4  A    between atoms: N_12  and  N_13
REMARK    5  A    between atoms: C_14  and  C_15
REMARK    6  A    between atoms: C_20  and  N_21
REMARK                            x       y       z     vdW  Elec       q    Type
REMARK                         _______ _______ _______ _____ _____    ______ ____
ROOT
ATOM      1  O   UNL     1       1.553   8.755  19.336  0.00  0.00    +0.000 OA
ATOM      2  C   UNL     1       1.645   8.033  20.329  0.00  0.00    +0.000 C 
ATOM      3  N   UNL     1       2.166   6.747  20.345  0.00  0.00    +0.000 N 
ATOM      4  H   UNL     1       2.393   6.304  21.235  0.00  0.00    +0.000 HD
ENDROOT
BRANCH   3   5
ATOM      5  N   UNL     1       2.602   6.188  19.179  0.00  0.00    +0.000 NA
ATOM      6  C   UNL     1       3.883   6.194  18.988  0.00  0.00    +0.000 C 
BRANCH   6   7
ATOM      7  C   UNL     1       4.455   5.664  17.728  0.00  0.00    +0.000 A 
ATOM      8  C   UNL     1       4.738   6.581  16.702  0.00  0.00    +0.000 A 
ATOM      9  C   UNL     1       5.312   6.154  15.501  0.00  0.00    +0.000 A 
ATOM     10  C   UNL     1       5.604   4.805  15.300  0.00  0.00    +0.000 A 
ATOM     11  C   UNL     1       5.307   3.876  16.295  0.00  0.00    +0.000 A 
ATOM     12  C   UNL     1       4.734   4.314  17.501  0.00  0.00    +0.000 A 
BRANCH  12  13
ATOM     13  N   UNL     1       4.384   3.295  18.474  0.00  0.00    +0.000 N 
ATOM     14  O   UNL     1       3.382   2.609  18.243  0.00  0.00    +0.000 OA
ATOM     15  O   UNL     1       5.100   3.211  19.481  0.00  0.00    +0.000 OA
ENDBRANCH  12  13
ENDBRANCH   6   7
ENDBRANCH   3   5
BRANCH   2  16
ATOM     16  C   UNL     1       1.246   8.536  21.713  0.00  0.00    +0.000 C 
BRANCH  16  17
ATOM     17  N   UNL     1       0.276   9.606  21.615  0.00  0.00    +0.000 N 
ATOM     18  C   UNL     1      -0.231  10.240  22.727  0.00  0.00    +0.000 C 
ATOM     19  O   UNL     1       0.114   9.896  23.859  0.00  0.00    +0.000 OA
ATOM     20  H   UNL     1       0.110  10.027  20.709  0.00  0.00    +0.000 HD
BRANCH  18  21
ATOM     21  C   UNL     1      -1.174  11.324  22.465  0.00  0.00    +0.000 A 
ATOM     22  C   UNL     1      -2.259  11.694  23.241  0.00  0.00    +0.000 A 
ATOM     23  C   UNL     1      -2.975  12.801  22.694  0.00  0.00    +0.000 A 
ATOM     24  C   UNL     1      -2.416  13.239  21.516  0.00  0.00    +0.000 A 
ATOM     25  S   UNL     1      -1.048  12.321  21.074  0.00  0.00    +0.000 S 
ENDBRANCH  18  21
ENDBRANCH  16  17
ENDBRANCH   2  16
TORSDOF 6
ENDMDL
MODEL 7
REMARK VINA RESULT:      -6.9      5.897      8.379
REMARK  Name = 
REMARK  6 active torsions:
REMARK  status: ('A' for Active; 'I' for Inactive)
REMARK    1  A    between atoms: C_2  and  C_3
REMARK    2  A    between atoms: C_3  and  N_4
REMARK    3  A    between atoms: C_5  and  C_7
REMARK    4  A    between atoms: N_12  and  N_13
REMARK    5  A    between atoms: C_14  and  C_15
REMARK    6  A    between atoms: C_20  and  N_21
REMARK                            x       y       z     vdW  Elec       q    Type
REMARK                         _______ _______ _______ _____ _____    ______ ____
ROOT
ATOM      1  O   UNL     1       1.709   8.510  18.968  0.00  0.00    +0.000 OA
ATOM      2  C   UNL     1       1.888   7.811  19.965  0.00  0.00    +0.000 C 
ATOM      3  N   UNL     1       2.709   6.693  20.030  0.00  0.00    +0.000 N 
ATOM      4  H   UNL     1       2.960   6.301  20.937  0.00  0.00    +0.000 HD
ENDROOT
BRANCH   3   5
ATOM      5  N   UNL     1       3.372   6.285  18.909  0.00  0.00    +0.000 NA
ATOM      6  C   UNL     1       4.326   5.428  19.092  0.00  0.00    +0.000 C 
BRANCH   6   7
ATOM      7  C   UNL     1       5.145   4.965  17.947  0.00  0.00    +0.000 A 
ATOM      8  C   UNL     1       4.491   4.285  16.907  0.00  0.00    +0.000 A 
ATOM      9  C   UNL     1       5.197   3.853  15.780  0.00  0.00    +0.000 A 
ATOM     10  C   UNL     1       6.568   4.085  15.677  0.00  0.00    +0.000 A 
ATOM     11  C   UNL     1       7.241   4.734  16.710  0.00  0.00    +0.000 A 
ATOM     12  C   UNL     1       6.524   5.169  17.837  0.00  0.00    +0.000 A 
BRANCH  12  13
ATOM     13  N   UNL     1       7.286   5.779  18.911  0.00  0.00    +0.000 N 
ATOM     14  O   UNL     1       7.926   6.801  18.644  0.00  0.00    +0.000 OA
ATOM     15  O   UNL     1       7.264   5.208  20.009  0.00  0.00    +0.000 OA
ENDBRANCH  12  13
ENDBRANCH   6   7
ENDBRANCH   3   5
BRANCH   2  16
ATOM     16  C   UNL     1       1.256   8.169  21.306  0.00  0.00    +0.000 C 
BRANCH  16  17
ATOM     17  N   UNL     1       0.316   9.261  21.161  0.00  0.00    +0.000 N 
ATOM     18  C   UNL     1      -0.037  10.070  22.217  0.00  0.00    +0.000 C 
ATOM     19  O   UNL     1       0.426   9.874  23.342  0.00  0.00    +0.000 OA
ATOM     20  H   UNL     1       0.058   9.556  20.227  0.00  0.00    +0.000 HD
BRANCH  18  21
ATOM     21  C   UNL     1      -0.970  11.150  21.904  0.00  0.00    +0.000 A 
ATOM     22  C   UNL     1      -1.173  11.749  20.673  0.00  0.00    +0.000 A 
ATOM     23  C   UNL     1      -2.163  12.775  20.718  0.00  0.00    +0.000 A 
ATOM     24  C   UNL     1      -2.683  12.931  21.982  0.00  0.00    +0.000 A 
ATOM     25  S   UNL     1      -1.978  11.854  23.102  0.00  0.00    +0.000 S 
ENDBRANCH  18  21
ENDBRANCH  16  17
ENDBRANCH   2  16
TORSDOF 6
ENDMDL
MODEL 8
REMARK VINA RESULT:      -6.9      6.848      9.563
REMARK  Name = 
REMARK  6 active torsions:
REMARK  status: ('A' for Active; 'I' for Inactive)
REMARK    1  A    between atoms: C_2  and  C_3
REMARK    2  A    between atoms: C_3  and  N_4
REMARK    3  A    between atoms: C_5  and  C_7
REMARK    4  A    between atoms: N_12  and  N_13
REMARK    5  A    between atoms: C_14  and  C_15
REMARK    6  A    between atoms: C_20  and  N_21
REMARK                            x       y       z     vdW  Elec       q    Type
REMARK                         _______ _______ _______ _____ _____    ______ ____
ROOT
ATOM      1  O   UNL     1      -0.113   8.810  22.381  0.00  0.00    +0.000 OA
ATOM      2  C   UNL     1       0.484   9.258  21.402  0.00  0.00    +0.000 C 
ATOM      3  N   UNL     1       1.335   8.536  20.576  0.00  0.00    +0.000 N 
ATOM      4  H   UNL     1       1.621   8.925  19.678  0.00  0.00    +0.000 HD
ENDROOT
BRANCH   3   5
ATOM      5  N   UNL     1       1.578   7.221  20.853  0.00  0.00    +0.000 NA
ATOM      6  C   UNL     1       2.147   6.537  19.912  0.00  0.00    +0.000 C 
BRANCH   6   7
ATOM      7  C   UNL     1       2.401   5.088  20.090  0.00  0.00    +0.000 A 
ATOM      8  C   UNL     1       1.447   4.339  20.798  0.00  0.00    +0.000 A 
ATOM      9  C   UNL     1       1.607   2.960  20.971  0.00  0.00    +0.000 A 
ATOM     10  C   UNL     1       2.723   2.309  20.448  0.00  0.00    +0.000 A 
ATOM     11  C   UNL     1       3.694   3.039  19.765  0.00  0.00    +0.000 A 
ATOM     12  C   UNL     1       3.525   4.423  19.592  0.00  0.00    +0.000 A 
BRANCH  12  13
ATOM     13  N   UNL     1       4.600   5.142  18.932  0.00  0.00    +0.000 N 
ATOM     14  O   UNL     1       5.561   5.489  19.626  0.00  0.00    +0.000 OA
ATOM     15  O   UNL     1       4.456   5.383  17.726  0.00  0.00    +0.000 OA
ENDBRANCH  12  13
ENDBRANCH   6   7
ENDBRANCH   3   5
BRANCH   2  16
ATOM     16  C   UNL     1       0.276  10.696  20.937  0.00  0.00    +0.000 C 
BRANCH  16  17
ATOM     17  N   UNL     1      -0.828  10.783  20.004  0.00  0.00    +0.000 N 
ATOM     18  C   UNL     1      -0.673  10.529  18.659  0.00  0.00    +0.000 C 
ATOM     19  O   UNL     1       0.431  10.236  18.198  0.00  0.00    +0.000 OA
ATOM     20  H   UNL     1      -1.769  10.845  20.372  0.00  0.00    +0.000 HD
BRANCH  18  21
ATOM     21  C   UNL     1      -1.887  10.625  17.853  0.00  0.00    +0.000 A 
ATOM     22  C   UNL     1      -2.154   9.969  16.663  0.00  0.00    +0.000 A 
ATOM     23  C   UNL     1      -3.440  10.288  16.135  0.00  0.00    +0.000 A 
ATOM     24  C   UNL     1      -4.115  11.181  16.936  0.00  0.00    +0.000 A 
ATOM     25  S   UNL     1      -3.201  11.631  18.305  0.00  0.00    +0.000 S 
ENDBRANCH  18  21
ENDBRANCH  16  17
ENDBRANCH   2  16
TORSDOF 6
ENDMDL
MODEL 9
REMARK VINA RESULT:      -6.9      6.529      9.258
REMARK  Name = 
REMARK  6 active torsions:
REMARK  status: ('A' for Active; 'I' for Inactive)
REMARK    1  A    between atoms: C_2  and  C_3
REMARK    2  A    between atoms: C_3  and  N_4
REMARK    3  A    between atoms: C_5  and  C_7
REMARK    4  A    between atoms: N_12  and  N_13
REMARK    5  A    between atoms: C_14  and  C_15
REMARK    6  A    between atoms: C_20  and  N_21
REMARK                            x       y       z     vdW  Elec       q    Type
REMARK                         _______ _______ _______ _____ _____    ______ ____
ROOT
ATOM      1  O   UNL     1       0.258   8.102  21.427  0.00  0.00    +0.000 OA
ATOM      2  C   UNL     1       0.943   8.768  20.651  0.00  0.00    +0.000 C 
ATOM      3  N   UNL     1       1.903   8.261  19.785  0.00  0.00    +0.000 N 
ATOM      4  H   UNL     1       2.272   8.849  19.038  0.00  0.00    +0.000 HD
ENDROOT
BRANCH   3   5
ATOM      5  N   UNL     1       2.158   6.921  19.781  0.00  0.00    +0.000 NA
ATOM      6  C   UNL     1       2.443   6.399  18.629  0.00  0.00    +0.000 C 
BRANCH   6   7
ATOM      7  C   UNL     1       2.679   4.941  18.506  0.00  0.00    +0.000 A 
ATOM      8  C   UNL     1       1.556   4.098  18.472  0.00  0.00    +0.000 A 
ATOM      9  C   UNL     1       1.706   2.716  18.321  0.00  0.00    +0.000 A 
ATOM     10  C   UNL     1       2.977   2.153  18.211  0.00  0.00    +0.000 A 
ATOM     11  C   UNL     1       4.104   2.969  18.269  0.00  0.00    +0.000 A 
ATOM     12  C   UNL     1       3.946   4.357  18.417  0.00  0.00    +0.000 A 
BRANCH  12  13
ATOM     13  N   UNL     1       5.155   5.151  18.540  0.00  0.00    +0.000 N 
ATOM     14  O   UNL     1       5.617   5.311  19.675  0.00  0.00    +0.000 OA
ATOM     15  O   UNL     1       5.616   5.636  17.498  0.00  0.00    +0.000 OA
ENDBRANCH  12  13
ENDBRANCH   6   7
ENDBRANCH   3   5
BRANCH   2  16
ATOM     16  C   UNL     1       0.739  10.272  20.505  0.00  0.00    +0.000 C 
BRANCH  16  17
ATOM     17  N   UNL     1      -0.460  10.561  19.746  0.00  0.00    +0.000 N 
ATOM     18  C   UNL     1      -0.560  10.285  18.401  0.00  0.00    +0.000 C 
ATOM     19  O   UNL     1       0.390   9.797  17.787  0.00  0.00    +0.000 OA
ATOM     20  H   UNL     1      -1.307  10.793  20.249  0.00  0.00    +0.000 HD
BRANCH  18  21
ATOM     21  C   UNL     1      -1.844  10.601  17.782  0.00  0.00    +0.000 A 
ATOM     22  C   UNL     1      -2.319  10.150  16.563  0.00  0.00    +0.000 A 
ATOM     23  C   UNL     1      -3.619  10.653  16.258  0.00  0.00    +0.000 A 
ATOM     24  C   UNL     1      -4.096  11.476  17.252  0.00  0.00    +0.000 A 
ATOM     25  S   UNL     1      -2.983  11.642  18.535  0.00  0.00    +0.000 S 
ENDBRANCH  18  21
ENDBRANCH  16  17
ENDBRANCH   2  16
TORSDOF 6
ENDMDL
