MODEL 1
REMARK VINA RESULT:      -8.9      0.000      0.000
REMARK  Name = 
REMARK  7 active torsions:
REMARK  status: ('A' for Active; 'I' for Inactive)
REMARK    1  A    between atoms: C_2  and  C_12
REMARK    2  A    between atoms: N_3  and  C_4
REMARK    3  A    between atoms: C_4  and  C_5
REMARK    4  A    between atoms: C_5  and  C_6
REMARK    5  A    between atoms: C_6  and  C_7
REMARK    6  A    between atoms: N_17  and  C_18
REMARK    7  A    between atoms: C_18  and  C_19
REMARK                            x       y       z     vdW  Elec       q    Type
REMARK                         _______ _______ _______ _____ _____    ______ ____
ROOT
ATOM      1  C   UNL     1       6.564   4.857  17.690  0.00  0.00    +0.000 C 
ATOM      2  C   UNL     1       6.253   5.362  16.284  0.00  0.00    +0.000 C 
ATOM      3  C   UNL     1       5.364   6.596  16.318  0.00  0.00    +0.000 C 
ATOM      4  C   UNL     1       4.311   6.648  17.417  0.00  0.00    +0.000 C 
ATOM      5  O   UNL     1       3.536   7.604  17.453  0.00  0.00    +0.000 OA
ATOM      6  N   UNL     1       4.329   5.651  18.381  0.00  0.00    +0.000 N 
ATOM      7  C   UNL     1       5.211   4.487  18.300  0.00  0.00    +0.000 C 
ENDROOT
BRANCH   1   9
ATOM      8  O   UNL     1       7.406   5.638  19.823  0.00  0.00    +0.000 OA
ATOM      9  C   UNL     1       7.289   5.845  18.620  0.00  0.00    +0.000 C 
ATOM     10  N   UNL     1       7.838   6.949  18.005  0.00  0.00    +0.000 N 
ATOM     11  H   UNL     1       7.948   6.948  17.001  0.00  0.00    +0.000 HD
BRANCH  10  12
ATOM     12  C   UNL     1       8.479   8.026  18.740  0.00  0.00    +0.000 C 
BRANCH  12  13
ATOM     13  C   UNL     1       8.357   9.400  18.070  0.00  0.00    +0.000 C 
BRANCH  13  14
ATOM     14  C   UNL     1       9.050  10.577  18.770  0.00  0.00    +0.000 C 
BRANCH  14  15
ATOM     15  C   UNL     1      10.156  11.283  17.972  0.00  0.00    +0.000 C 
ATOM     16  C   UNL     1       9.796  12.694  17.510  0.00  0.00    +0.000 C 
ATOM     17  C   UNL     1      11.139  13.374  17.277  0.00  0.00    +0.000 C 
ATOM     18  C   UNL     1      12.113  12.727  18.255  0.00  0.00    +0.000 C 
ATOM     19  C   UNL     1      11.410  11.499  18.826  0.00  0.00    +0.000 C 
ENDBRANCH  14  15
ENDBRANCH  13  14
ENDBRANCH  12  13
ENDBRANCH  10  12
ENDBRANCH   1   9
BRANCH   6  20
ATOM     20  C   UNL     1       3.450   5.761  19.540  0.00  0.00    +0.000 C 
BRANCH  20  21
ATOM     21  C   UNL     1       2.495   4.603  19.687  0.00  0.00    +0.000 A 
ATOM     22  C   UNL     1       1.835   4.092  18.557  0.00  0.00    +0.000 A 
ATOM     23  C   UNL     1       0.919   3.045  18.670  0.00  0.00    +0.000 A 
ATOM     24  C   UNL     1       0.654   2.490  19.919  0.00  0.00    +0.000 A 
ATOM     25  C   UNL     1       1.312   2.984  21.040  0.00  0.00    +0.000 A 
ATOM     26  F   UNL     1       1.055   2.452  22.241  0.00  0.00    +0.000 F 
ATOM     27  C   UNL     1       2.229   4.029  20.937  0.00  0.00    +0.000 A 
ENDBRANCH  20  21
ENDBRANCH   6  20
TORSDOF 7
ENDMDL
MODEL 2
REMARK VINA RESULT:      -8.8      4.124      7.715
REMARK  Name = 
REMARK  7 active torsions:
REMARK  status: ('A' for Active; 'I' for Inactive)
REMARK    1  A    between atoms: C_2  and  C_12
REMARK    2  A    between atoms: N_3  and  C_4
REMARK    3  A    between atoms: C_4  and  C_5
REMARK    4  A    between atoms: C_5  and  C_6
REMARK    5  A    between atoms: C_6  and  C_7
REMARK    6  A    between atoms: N_17  and  C_18
REMARK    7  A    between atoms: C_18  and  C_19
REMARK                            x       y       z     vdW  Elec       q    Type
REMARK                         _______ _______ _______ _____ _____    ______ ____
ROOT
ATOM      1  C   UNL     1       7.353   5.047  18.294  0.00  0.00    +0.000 C 
ATOM      2  C   UNL     1       7.704   6.526  18.145  0.00  0.00    +0.000 C 
ATOM      3  C   UNL     1       6.582   7.301  17.473  0.00  0.00    +0.000 C 
ATOM      4  C   UNL     1       5.803   6.571  16.387  0.00  0.00    +0.000 C 
ATOM      5  O   UNL     1       4.918   7.176  15.781  0.00  0.00    +0.000 OA
ATOM      6  N   UNL     1       6.072   5.225  16.189  0.00  0.00    +0.000 N 
ATOM      7  C   UNL     1       7.163   4.527  16.868  0.00  0.00    +0.000 C 
ENDROOT
BRANCH   1   9
ATOM      8  O   UNL     1       5.586   5.559  19.869  0.00  0.00    +0.000 OA
ATOM      9  C   UNL     1       6.096   4.731  19.123  0.00  0.00    +0.000 C 
ATOM     10  N   UNL     1       5.557   3.478  18.935  0.00  0.00    +0.000 N 
ATOM     11  H   UNL     1       5.844   2.935  18.133  0.00  0.00    +0.000 HD
BRANCH  10  12
ATOM     12  C   UNL     1       4.426   2.981  19.700  0.00  0.00    +0.000 C 
BRANCH  12  13
ATOM     13  C   UNL     1       3.244   2.516  18.840  0.00  0.00    +0.000 C 
BRANCH  13  14
ATOM     14  C   UNL     1       1.852   3.014  19.248  0.00  0.00    +0.000 C 
BRANCH  14  15
ATOM     15  C   UNL     1       1.612   4.526  19.129  0.00  0.00    +0.000 C 
ATOM     16  C   UNL     1       2.126   5.340  20.314  0.00  0.00    +0.000 C 
ATOM     17  C   UNL     1       2.307   6.748  19.762  0.00  0.00    +0.000 C 
ATOM     18  C   UNL     1       2.643   6.580  18.285  0.00  0.00    +0.000 C 
ATOM     19  C   UNL     1       2.369   5.120  17.936  0.00  0.00    +0.000 C 
ENDBRANCH  14  15
ENDBRANCH  13  14
ENDBRANCH  12  13
ENDBRANCH  10  12
ENDBRANCH   1   9
BRANCH   6  20
ATOM     20  C   UNL     1       5.230   4.454  15.281  0.00  0.00    +0.000 C 
BRANCH  20  21
ATOM     21  C   UNL     1       5.893   4.139  13.962  0.00  0.00    +0.000 A 
ATOM     22  C   UNL     1       6.995   4.897  13.534  0.00  0.00    +0.000 A 
ATOM     23  C   UNL     1       7.603   4.652  12.302  0.00  0.00    +0.000 A 
ATOM     24  C   UNL     1       7.117   3.636  11.482  0.00  0.00    +0.000 A 
ATOM     25  C   UNL     1       6.034   2.875  11.905  0.00  0.00    +0.000 A 
ATOM     26  F   UNL     1       5.566   1.901  11.115  0.00  0.00    +0.000 F 
ATOM     27  C   UNL     1       5.420   3.113  13.134  0.00  0.00    +0.000 A 
ENDBRANCH  20  21
ENDBRANCH   6  20
TORSDOF 7
ENDMDL
MODEL 3
REMARK VINA RESULT:      -8.7      1.178      1.436
REMARK  Name = 
REMARK  7 active torsions:
REMARK  status: ('A' for Active; 'I' for Inactive)
REMARK    1  A    between atoms: C_2  and  C_12
REMARK    2  A    between atoms: N_3  and  C_4
REMARK    3  A    between atoms: C_4  and  C_5
REMARK    4  A    between atoms: C_5  and  C_6
REMARK    5  A    between atoms: C_6  and  C_7
REMARK    6  A    between atoms: N_17  and  C_18
REMARK    7  A    between atoms: C_18  and  C_19
REMARK                            x       y       z     vdW  Elec       q    Type
REMARK                         _______ _______ _______ _____ _____    ______ ____
ROOT
ATOM      1  C   UNL     1       5.971   5.767  16.098  0.00  0.00    +0.000 C 
ATOM      2  C   UNL     1       4.892   6.835  15.931  0.00  0.00    +0.000 C 
ATOM      3  C   UNL     1       4.224   7.166  17.257  0.00  0.00    +0.000 C 
ATOM      4  C   UNL     1       4.037   6.011  18.233  0.00  0.00    +0.000 C 
ATOM      5  O   UNL     1       3.456   6.222  19.299  0.00  0.00    +0.000 OA
ATOM      6  N   UNL     1       4.607   4.789  17.910  0.00  0.00    +0.000 N 
ATOM      7  C   UNL     1       5.242   4.528  16.619  0.00  0.00    +0.000 C 
ENDROOT
BRANCH   1   9
ATOM      8  O   UNL     1       7.827   5.252  17.565  0.00  0.00    +0.000 OA
ATOM      9  C   UNL     1       7.127   6.117  17.050  0.00  0.00    +0.000 C 
ATOM     10  N   UNL     1       7.353   7.461  17.246  0.00  0.00    +0.000 N 
ATOM     11  H   UNL     1       6.936   8.127  16.611  0.00  0.00    +0.000 HD
BRANCH  10  12
ATOM     12  C   UNL     1       8.344   7.969  18.181  0.00  0.00    +0.000 C 
BRANCH  12  13
ATOM     13  C   UNL     1       8.485   9.496  18.176  0.00  0.00    +0.000 C 
BRANCH  13  14
ATOM     14  C   UNL     1       9.150  10.135  19.401  0.00  0.00    +0.000 C 
BRANCH  14  15
ATOM     15  C   UNL     1      10.261  11.155  19.113  0.00  0.00    +0.000 C 
ATOM     16  C   UNL     1      10.437  11.495  17.635  0.00  0.00    +0.000 C 
ATOM     17  C   UNL     1      11.125  12.854  17.634  0.00  0.00    +0.000 C 
ATOM     18  C   UNL     1      10.659  13.562  18.901  0.00  0.00    +0.000 C 
ATOM     19  C   UNL     1       9.953  12.513  19.755  0.00  0.00    +0.000 C 
ENDBRANCH  14  15
ENDBRANCH  13  14
ENDBRANCH  12  13
ENDBRANCH  10  12
ENDBRANCH   1   9
BRANCH   6  20
ATOM     20  C   UNL     1       4.596   3.713  18.894  0.00  0.00    +0.000 C 
BRANCH  20  21
ATOM     21  C   UNL     1       3.210   3.230  19.247  0.00  0.00    +0.000 A 
ATOM     22  C   UNL     1       2.295   2.923  18.227  0.00  0.00    +0.000 A 
ATOM     23  C   UNL     1       0.996   2.509  18.526  0.00  0.00    +0.000 A 
ATOM     24  C   UNL     1       0.596   2.391  19.854  0.00  0.00    +0.000 A 
ATOM     25  C   UNL     1       1.501   2.682  20.869  0.00  0.00    +0.000 A 
ATOM     26  F   UNL     1       1.115   2.571  22.146  0.00  0.00    +0.000 F 
ATOM     27  C   UNL     1       2.801   3.096  20.581  0.00  0.00    +0.000 A 
ENDBRANCH  20  21
ENDBRANCH   6  20
TORSDOF 7
ENDMDL
MODEL 4
REMARK VINA RESULT:      -8.6      4.493      7.301
REMARK  Name = 
REMARK  7 active torsions:
REMARK  status: ('A' for Active; 'I' for Inactive)
REMARK    1  A    between atoms: C_2  and  C_12
REMARK    2  A    between atoms: N_3  and  C_4
REMARK    3  A    between atoms: C_4  and  C_5
REMARK    4  A    between atoms: C_5  and  C_6
REMARK    5  A    between atoms: C_6  and  C_7
REMARK    6  A    between atoms: N_17  and  C_18
REMARK    7  A    between atoms: C_18  and  C_19
REMARK                            x       y       z     vdW  Elec       q    Type
REMARK                         _______ _______ _______ _____ _____    ______ ____
ROOT
ATOM      1  C   UNL     1       1.173   3.909  19.772  0.00  0.00    +0.000 C 
ATOM      2  C   UNL     1       1.220   2.984  20.985  0.00  0.00    +0.000 C 
ATOM      3  C   UNL     1       2.649   2.613  21.350  0.00  0.00    +0.000 C 
ATOM      4  C   UNL     1       3.624   2.434  20.194  0.00  0.00    +0.000 C 
ATOM      5  O   UNL     1       4.779   2.085  20.439  0.00  0.00    +0.000 OA
ATOM      6  N   UNL     1       3.184   2.756  18.919  0.00  0.00    +0.000 N 
ATOM      7  C   UNL     1       1.796   3.111  18.625  0.00  0.00    +0.000 C 
ENDROOT
BRANCH   1   9
ATOM      8  O   UNL     1       2.313   5.657  21.002  0.00  0.00    +0.000 OA
ATOM      9  C   UNL     1       1.909   5.252  19.917  0.00  0.00    +0.000 C 
ATOM     10  N   UNL     1       2.128   5.942  18.745  0.00  0.00    +0.000 N 
ATOM     11  H   UNL     1       2.019   5.461  17.864  0.00  0.00    +0.000 HD
BRANCH  10  12
ATOM     12  C   UNL     1       2.728   7.266  18.707  0.00  0.00    +0.000 C 
BRANCH  12  13
ATOM     13  C   UNL     1       2.094   8.211  17.679  0.00  0.00    +0.000 C 
BRANCH  13  14
ATOM     14  C   UNL     1       1.815   9.648  18.137  0.00  0.00    +0.000 C 
BRANCH  14  15
ATOM     15  C   UNL     1       0.532   9.861  18.954  0.00  0.00    +0.000 C 
ATOM     16  C   UNL     1       0.736   9.831  20.467  0.00  0.00    +0.000 C 
ATOM     17  C   UNL     1      -0.456  10.594  21.029  0.00  0.00    +0.000 C 
ATOM     18  C   UNL     1      -0.836  11.620  19.968  0.00  0.00    +0.000 C 
ATOM     19  C   UNL     1      -0.065  11.251  18.705  0.00  0.00    +0.000 C 
ENDBRANCH  14  15
ENDBRANCH  13  14
ENDBRANCH  12  13
ENDBRANCH  10  12
ENDBRANCH   1   9
BRANCH   6  20
ATOM     20  C   UNL     1       4.136   2.761  17.814  0.00  0.00    +0.000 C 
BRANCH  20  21
ATOM     21  C   UNL     1       4.788   4.102  17.583  0.00  0.00    +0.000 A 
ATOM     22  C   UNL     1       5.621   4.655  18.570  0.00  0.00    +0.000 A 
ATOM     23  C   UNL     1       6.207   5.910  18.397  0.00  0.00    +0.000 A 
ATOM     24  C   UNL     1       5.970   6.628  17.228  0.00  0.00    +0.000 A 
ATOM     25  C   UNL     1       5.156   6.081  16.243  0.00  0.00    +0.000 A 
ATOM     26  F   UNL     1       4.927   6.774  15.120  0.00  0.00    +0.000 F 
ATOM     27  C   UNL     1       4.566   4.829  16.406  0.00  0.00    +0.000 A 
ENDBRANCH  20  21
ENDBRANCH   6  20
TORSDOF 7
ENDMDL
MODEL 5
REMARK VINA RESULT:      -8.6      4.416      7.385
REMARK  Name = 
REMARK  7 active torsions:
REMARK  status: ('A' for Active; 'I' for Inactive)
REMARK    1  A    between atoms: C_2  and  C_12
REMARK    2  A    between atoms: N_3  and  C_4
REMARK    3  A    between atoms: C_4  and  C_5
REMARK    4  A    between atoms: C_5  and  C_6
REMARK    5  A    between atoms: C_6  and  C_7
REMARK    6  A    between atoms: N_17  and  C_18
REMARK    7  A    between atoms: C_18  and  C_19
REMARK                            x       y       z     vdW  Elec       q    Type
REMARK                         _______ _______ _______ _____ _____    ______ ____
ROOT
ATOM      1  C   UNL     1       1.267   4.083  19.393  0.00  0.00    +0.000 C 
ATOM      2  C   UNL     1       1.199   3.240  20.665  0.00  0.00    +0.000 C 
ATOM      3  C   UNL     1       2.585   2.828  21.136  0.00  0.00    +0.000 C 
ATOM      4  C   UNL     1       3.613   2.526  20.052  0.00  0.00    +0.000 C 
ATOM      5  O   UNL     1       4.733   2.140  20.387  0.00  0.00    +0.000 OA
ATOM      6  N   UNL     1       3.261   2.782  18.735  0.00  0.00    +0.000 N 
ATOM      7  C   UNL     1       1.911   3.181  18.339  0.00  0.00    +0.000 C 
ENDROOT
BRANCH   1   9
ATOM      8  O   UNL     1       2.465   5.830  20.569  0.00  0.00    +0.000 OA
ATOM      9  C   UNL     1       2.061   5.397  19.495  0.00  0.00    +0.000 C 
ATOM     10  N   UNL     1       2.331   6.025  18.299  0.00  0.00    +0.000 N 
ATOM     11  H   UNL     1       2.215   5.511  17.438  0.00  0.00    +0.000 HD
BRANCH  10  12
ATOM     12  C   UNL     1       2.991   7.317  18.216  0.00  0.00    +0.000 C 
BRANCH  12  13
ATOM     13  C   UNL     1       2.058   8.474  17.840  0.00  0.00    +0.000 C 
BRANCH  13  14
ATOM     14  C   UNL     1       1.299   9.154  18.987  0.00  0.00    +0.000 C 
BRANCH  14  15
ATOM     15  C   UNL     1       0.354  10.297  18.590  0.00  0.00    +0.000 C 
ATOM     16  C   UNL     1      -0.849   9.860  17.757  0.00  0.00    +0.000 C 
ATOM     17  C   UNL     1      -1.880  10.961  17.965  0.00  0.00    +0.000 C 
ATOM     18  C   UNL     1      -1.624  11.517  19.361  0.00  0.00    +0.000 C 
ATOM     19  C   UNL     1      -0.287  10.946  19.823  0.00  0.00    +0.000 C 
ENDBRANCH  14  15
ENDBRANCH  13  14
ENDBRANCH  12  13
ENDBRANCH  10  12
ENDBRANCH   1   9
BRANCH   6  20
ATOM     20  C   UNL     1       4.273   2.668  17.691  0.00  0.00    +0.000 C 
BRANCH  20  21
ATOM     21  C   UNL     1       4.959   3.973  17.369  0.00  0.00    +0.000 A 
ATOM     22  C   UNL     1       4.753   4.583  16.120  0.00  0.00    +0.000 A 
ATOM     23  C   UNL     1       5.405   5.770  15.783  0.00  0.00    +0.000 A 
ATOM     24  C   UNL     1       6.269   6.368  16.696  0.00  0.00    +0.000 A 
ATOM     25  C   UNL     1       6.467   5.776  17.938  0.00  0.00    +0.000 A 
ATOM     26  F   UNL     1       7.301   6.350  18.815  0.00  0.00    +0.000 F 
ATOM     27  C   UNL     1       5.822   4.590  18.285  0.00  0.00    +0.000 A 
ENDBRANCH  20  21
ENDBRANCH   6  20
TORSDOF 7
ENDMDL
MODEL 6
REMARK VINA RESULT:      -8.5      1.090      1.682
REMARK  Name = 
REMARK  7 active torsions:
REMARK  status: ('A' for Active; 'I' for Inactive)
REMARK    1  A    between atoms: C_2  and  C_12
REMARK    2  A    between atoms: N_3  and  C_4
REMARK    3  A    between atoms: C_4  and  C_5
REMARK    4  A    between atoms: C_5  and  C_6
REMARK    5  A    between atoms: C_6  and  C_7
REMARK    6  A    between atoms: N_17  and  C_18
REMARK    7  A    between atoms: C_18  and  C_19
REMARK                            x       y       z     vdW  Elec       q    Type
REMARK                         _______ _______ _______ _____ _____    ______ ____
ROOT
ATOM      1  C   UNL     1       6.349   4.765  17.815  0.00  0.00    +0.000 C 
ATOM      2  C   UNL     1       6.040   5.210  16.388  0.00  0.00    +0.000 C 
ATOM      3  C   UNL     1       5.205   6.481  16.368  0.00  0.00    +0.000 C 
ATOM      4  C   UNL     1       4.171   6.636  17.476  0.00  0.00    +0.000 C 
ATOM      5  O   UNL     1       3.438   7.625  17.471  0.00  0.00    +0.000 OA
ATOM      6  N   UNL     1       4.161   5.690  18.490  0.00  0.00    +0.000 N 
ATOM      7  C   UNL     1       4.990   4.486  18.460  0.00  0.00    +0.000 C 
ENDROOT
BRANCH   1   9
ATOM      8  O   UNL     1       7.205   5.651  19.901  0.00  0.00    +0.000 OA
ATOM      9  C   UNL     1       7.129   5.768  18.683  0.00  0.00    +0.000 C 
ATOM     10  N   UNL     1       7.773   6.774  17.998  0.00  0.00    +0.000 N 
ATOM     11  H   UNL     1       7.903   6.685  17.001  0.00  0.00    +0.000 HD
BRANCH  10  12
ATOM     12  C   UNL     1       8.480   7.856  18.663  0.00  0.00    +0.000 C 
BRANCH  12  13
ATOM     13  C   UNL     1       8.080   9.256  18.180  0.00  0.00    +0.000 C 
BRANCH  13  14
ATOM     14  C   UNL     1       9.212  10.179  17.712  0.00  0.00    +0.000 C 
BRANCH  14  15
ATOM     15  C   UNL     1       9.631  11.286  18.691  0.00  0.00    +0.000 C 
ATOM     16  C   UNL     1       9.342  10.974  20.157  0.00  0.00    +0.000 C 
ATOM     17  C   UNL     1      10.299  11.868  20.935  0.00  0.00    +0.000 C 
ATOM     18  C   UNL     1      11.524  12.046  20.045  0.00  0.00    +0.000 C 
ATOM     19  C   UNL     1      11.148  11.507  18.668  0.00  0.00    +0.000 C 
ENDBRANCH  14  15
ENDBRANCH  13  14
ENDBRANCH  12  13
ENDBRANCH  10  12
ENDBRANCH   1   9
BRANCH   6  20
ATOM     20  C   UNL     1       3.304   5.898  19.652  0.00  0.00    +0.000 C 
BRANCH  20  21
ATOM     21  C   UNL     1       2.469   4.693  20.012  0.00  0.00    +0.000 A 
ATOM     22  C   UNL     1       2.475   4.206  21.329  0.00  0.00    +0.000 A 
ATOM     23  C   UNL     1       1.741   3.072  21.681  0.00  0.00    +0.000 A 
ATOM     24  C   UNL     1       0.985   2.412  20.716  0.00  0.00    +0.000 A 
ATOM     25  C   UNL     1       0.966   2.896  19.413  0.00  0.00    +0.000 A 
ATOM     26  F   UNL     1       0.241   2.258  18.485  0.00  0.00    +0.000 F 
ATOM     27  C   UNL     1       1.695   4.028  19.052  0.00  0.00    +0.000 A 
ENDBRANCH  20  21
ENDBRANCH   6  20
TORSDOF 7
ENDMDL
MODEL 7
REMARK VINA RESULT:      -8.5      1.379      1.819
REMARK  Name = 
REMARK  7 active torsions:
REMARK  status: ('A' for Active; 'I' for Inactive)
REMARK    1  A    between atoms: C_2  and  C_12
REMARK    2  A    between atoms: N_3  and  C_4
REMARK    3  A    between atoms: C_4  and  C_5
REMARK    4  A    between atoms: C_5  and  C_6
REMARK    5  A    between atoms: C_6  and  C_7
REMARK    6  A    between atoms: N_17  and  C_18
REMARK    7  A    between atoms: C_18  and  C_19
REMARK                            x       y       z     vdW  Elec       q    Type
REMARK                         _______ _______ _______ _____ _____    ______ ____
ROOT
ATOM      1  C   UNL     1       5.938   5.705  16.189  0.00  0.00    +0.000 C 
ATOM      2  C   UNL     1       4.843   6.755  16.017  0.00  0.00    +0.000 C 
ATOM      3  C   UNL     1       4.215   7.130  17.350  0.00  0.00    +0.000 C 
ATOM      4  C   UNL     1       4.072   6.013  18.376  0.00  0.00    +0.000 C 
ATOM      5  O   UNL     1       3.524   6.260  19.451  0.00  0.00    +0.000 OA
ATOM      6  N   UNL     1       4.645   4.785  18.082  0.00  0.00    +0.000 N 
ATOM      7  C   UNL     1       5.240   4.480  16.782  0.00  0.00    +0.000 C 
ENDROOT
BRANCH   1   9
ATOM      8  O   UNL     1       7.899   5.271  17.543  0.00  0.00    +0.000 OA
ATOM      9  C   UNL     1       7.121   6.103  17.089  0.00  0.00    +0.000 C 
ATOM     10  N   UNL     1       7.275   7.453  17.310  0.00  0.00    +0.000 N 
ATOM     11  H   UNL     1       6.785   8.107  16.716  0.00  0.00    +0.000 HD
BRANCH  10  12
ATOM     12  C   UNL     1       8.282   7.999  18.205  0.00  0.00    +0.000 C 
BRANCH  12  13
ATOM     13  C   UNL     1       8.450   9.520  18.105  0.00  0.00    +0.000 C 
BRANCH  13  14
ATOM     14  C   UNL     1       9.194  10.213  19.254  0.00  0.00    +0.000 C 
BRANCH  14  15
ATOM     15  C   UNL     1      10.406  11.068  18.858  0.00  0.00    +0.000 C 
ATOM     16  C   UNL     1      10.090  12.193  17.876  0.00  0.00    +0.000 C 
ATOM     17  C   UNL     1      11.218  13.198  18.068  0.00  0.00    +0.000 C 
ATOM     18  C   UNL     1      11.653  13.067  19.523  0.00  0.00    +0.000 C 
ATOM     19  C   UNL     1      10.987  11.807  20.069  0.00  0.00    +0.000 C 
ENDBRANCH  14  15
ENDBRANCH  13  14
ENDBRANCH  12  13
ENDBRANCH  10  12
ENDBRANCH   1   9
BRANCH   6  20
ATOM     20  C   UNL     1       4.677   3.748  19.107  0.00  0.00    +0.000 C 
BRANCH  20  21
ATOM     21  C   UNL     1       3.312   3.367  19.626  0.00  0.00    +0.000 A 
ATOM     22  C   UNL     1       3.049   3.418  21.005  0.00  0.00    +0.000 A 
ATOM     23  C   UNL     1       1.807   3.036  21.515  0.00  0.00    +0.000 A 
ATOM     24  C   UNL     1       0.807   2.603  20.648  0.00  0.00    +0.000 A 
ATOM     25  C   UNL     1       1.058   2.562  19.281  0.00  0.00    +0.000 A 
ATOM     26  F   UNL     1       0.097   2.143  18.448  0.00  0.00    +0.000 F 
ATOM     27  C   UNL     1       2.295   2.941  18.762  0.00  0.00    +0.000 A 
ENDBRANCH  20  21
ENDBRANCH   6  20
TORSDOF 7
ENDMDL
MODEL 8
REMARK VINA RESULT:      -8.4      1.369      1.767
REMARK  Name = 
REMARK  7 active torsions:
REMARK  status: ('A' for Active; 'I' for Inactive)
REMARK    1  A    between atoms: C_2  and  C_12
REMARK    2  A    between atoms: N_3  and  C_4
REMARK    3  A    between atoms: C_4  and  C_5
REMARK    4  A    between atoms: C_5  and  C_6
REMARK    5  A    between atoms: C_6  and  C_7
REMARK    6  A    between atoms: N_17  and  C_18
REMARK    7  A    between atoms: C_18  and  C_19
REMARK                            x       y       z     vdW  Elec       q    Type
REMARK                         _______ _______ _______ _____ _____    ______ ____
ROOT
ATOM      1  C   UNL     1       6.136   5.559  16.120  0.00  0.00    +0.000 C 
ATOM      2  C   UNL     1       5.044   6.556  15.742  0.00  0.00    +0.000 C 
ATOM      3  C   UNL     1       4.268   7.025  16.963  0.00  0.00    +0.000 C 
ATOM      4  C   UNL     1       4.040   5.996  18.063  0.00  0.00    +0.000 C 
ATOM      5  O   UNL     1       3.375   6.317  19.048  0.00  0.00    +0.000 OA
ATOM      6  N   UNL     1       4.667   4.766  17.940  0.00  0.00    +0.000 N 
ATOM      7  C   UNL     1       5.405   4.368  16.742  0.00  0.00    +0.000 C 
ENDROOT
BRANCH   1   9
ATOM      8  O   UNL     1       7.902   5.303  17.757  0.00  0.00    +0.000 OA
ATOM      9  C   UNL     1       7.207   6.069  17.100  0.00  0.00    +0.000 C 
ATOM     10  N   UNL     1       7.364   7.436  17.154  0.00  0.00    +0.000 N 
ATOM     11  H   UNL     1       6.968   8.005  16.420  0.00  0.00    +0.000 HD
BRANCH  10  12
ATOM     12  C   UNL     1       8.265   8.093  18.087  0.00  0.00    +0.000 C 
BRANCH  12  13
ATOM     13  C   UNL     1       8.204   9.624  18.043  0.00  0.00    +0.000 C 
BRANCH  13  14
ATOM     14  C   UNL     1       9.509  10.379  18.325  0.00  0.00    +0.000 C 
BRANCH  14  15
ATOM     15  C   UNL     1       9.407  11.576  19.281  0.00  0.00    +0.000 C 
ATOM     16  C   UNL     1       9.373  11.200  20.760  0.00  0.00    +0.000 C 
ATOM     17  C   UNL     1       9.835  12.457  21.486  0.00  0.00    +0.000 C 
ATOM     18  C   UNL     1      10.786  13.167  20.530  0.00  0.00    +0.000 C 
ATOM     19  C   UNL     1      10.638  12.483  19.175  0.00  0.00    +0.000 C 
ENDBRANCH  14  15
ENDBRANCH  13  14
ENDBRANCH  12  13
ENDBRANCH  10  12
ENDBRANCH   1   9
BRANCH   6  20
ATOM     20  C   UNL     1       4.612   3.822  19.051  0.00  0.00    +0.000 C 
BRANCH  20  21
ATOM     21  C   UNL     1       3.222   3.314  19.344  0.00  0.00    +0.000 A 
ATOM     22  C   UNL     1       2.358   2.986  18.286  0.00  0.00    +0.000 A 
ATOM     23  C   UNL     1       1.055   2.549  18.530  0.00  0.00    +0.000 A 
ATOM     24  C   UNL     1       0.600   2.428  19.840  0.00  0.00    +0.000 A 
ATOM     25  C   UNL     1       1.454   2.739  20.892  0.00  0.00    +0.000 A 
ATOM     26  F   UNL     1       1.015   2.624  22.152  0.00  0.00    +0.000 F 
ATOM     27  C   UNL     1       2.757   3.176  20.659  0.00  0.00    +0.000 A 
ENDBRANCH  20  21
ENDBRANCH   6  20
TORSDOF 7
ENDMDL
MODEL 9
REMARK VINA RESULT:      -8.4      4.442      7.466
REMARK  Name = 
REMARK  7 active torsions:
REMARK  status: ('A' for Active; 'I' for Inactive)
REMARK    1  A    between atoms: C_2  and  C_12
REMARK    2  A    between atoms: N_3  and  C_4
REMARK    3  A    between atoms: C_4  and  C_5
REMARK    4  A    between atoms: C_5  and  C_6
REMARK    5  A    between atoms: C_6  and  C_7
REMARK    6  A    between atoms: N_17  and  C_18
REMARK    7  A    between atoms: C_18  and  C_19
REMARK                            x       y       z     vdW  Elec       q    Type
REMARK                         _______ _______ _______ _____ _____    ______ ____
ROOT
ATOM      1  C   UNL     1       1.246   4.017  19.477  0.00  0.00    +0.000 C 
ATOM      2  C   UNL     1       1.192   3.103  20.698  0.00  0.00    +0.000 C 
ATOM      3  C   UNL     1       2.586   2.703  21.157  0.00  0.00    +0.000 C 
ATOM      4  C   UNL     1       3.629   2.491  20.068  0.00  0.00    +0.000 C 
ATOM      5  O   UNL     1       4.758   2.118  20.390  0.00  0.00    +0.000 OA
ATOM      6  N   UNL     1       3.280   2.811  18.764  0.00  0.00    +0.000 N 
ATOM      7  C   UNL     1       1.922   3.194  18.379  0.00  0.00    +0.000 C 
ENDROOT
BRANCH   1   9
ATOM      8  O   UNL     1       2.435   5.700  20.749  0.00  0.00    +0.000 OA
ATOM      9  C   UNL     1       2.002   5.344  19.659  0.00  0.00    +0.000 C 
ATOM     10  N   UNL     1       2.203   6.079  18.511  0.00  0.00    +0.000 N 
ATOM     11  H   UNL     1       2.069   5.635  17.614  0.00  0.00    +0.000 HD
BRANCH  10  12
ATOM     12  C   UNL     1       2.819   7.395  18.512  0.00  0.00    +0.000 C 
BRANCH  12  13
ATOM     13  C   UNL     1       1.927   8.504  17.940  0.00  0.00    +0.000 C 
BRANCH  13  14
ATOM     14  C   UNL     1       1.050   9.273  18.936  0.00  0.00    +0.000 C 
BRANCH  14  15
ATOM     15  C   UNL     1       0.276  10.473  18.371  0.00  0.00    +0.000 C 
ATOM     16  C   UNL     1      -1.117  10.133  17.845  0.00  0.00    +0.000 C 
ATOM     17  C   UNL     1      -1.873  11.454  17.880  0.00  0.00    +0.000 C 
ATOM     18  C   UNL     1      -1.272  12.251  19.032  0.00  0.00    +0.000 C 
ATOM     19  C   UNL     1      -0.001  11.520  19.456  0.00  0.00    +0.000 C 
ENDBRANCH  14  15
ENDBRANCH  13  14
ENDBRANCH  12  13
ENDBRANCH  10  12
ENDBRANCH   1   9
BRANCH   6  20
ATOM     20  C   UNL     1       4.302   2.784  17.724  0.00  0.00    +0.000 C 
BRANCH  20  21
ATOM     21  C   UNL     1       4.939   4.127  17.467  0.00  0.00    +0.000 A 
ATOM     22  C   UNL     1       5.831   4.671  18.406  0.00  0.00    +0.000 A 
ATOM     23  C   UNL     1       6.405   5.927  18.211  0.00  0.00    +0.000 A 
ATOM     24  C   UNL     1       6.099   6.657  17.065  0.00  0.00    +0.000 A 
ATOM     25  C   UNL     1       5.226   6.119  16.126  0.00  0.00    +0.000 A 
ATOM     26  F   UNL     1       4.930   6.823  15.025  0.00  0.00    +0.000 F 
ATOM     27  C   UNL     1       4.647   4.865  16.312  0.00  0.00    +0.000 A 
ENDBRANCH  20  21
ENDBRANCH   6  20
TORSDOF 7
ENDMDL
