MODEL 1
REMARK VINA RESULT:      -7.5      0.000      0.000
REMARK  Name = 
REMARK  6 active torsions:
REMARK  status: ('A' for Active; 'I' for Inactive)
REMARK    1  A    between atoms: C_1  and  C_2
REMARK    2  A    between atoms: N_4  and  C_5
REMARK    3  A    between atoms: C_5  and  C_6
REMARK    4  A    between atoms: C_14  and  C_15
REMARK    5  A    between atoms: C_14  and  C_16
REMARK    6  A    between atoms: C_20  and  O_21
REMARK                            x       y       z     vdW  Elec       q    Type
REMARK                         _______ _______ _______ _____ _____    ______ ____
ROOT
ATOM      1  C   UNL     1       6.567   5.555  19.374  0.00  0.00    +0.000 C 
ATOM      2  C   UNL     1       5.974   4.841  18.151  0.00  0.00    +0.000 C 
ATOM      3  C   UNL     1       5.207   3.584  18.601  0.00  0.00    +0.000 C 
ATOM      4  N   UNL     1       4.558   2.818  17.525  0.00  0.00    +0.000 NA
ATOM      5  C   UNL     1       3.881   3.623  16.499  0.00  0.00    +0.000 C 
ATOM      6  C   UNL     1       4.617   4.882  16.055  0.00  0.00    +0.000 C 
ATOM      7  C   UNL     1       5.151   5.778  17.206  0.00  0.00    +0.000 C 
ATOM      8  C   UNL     1       6.159   6.751  16.517  0.00  0.00    +0.000 C 
ENDROOT
BRANCH   7   9
ATOM      9  C   UNL     1       4.004   6.563  17.909  0.00  0.00    +0.000 A 
ATOM     10  C   UNL     1       3.411   6.122  19.110  0.00  0.00    +0.000 A 
ATOM     11  C   UNL     1       2.364   6.806  19.738  0.00  0.00    +0.000 A 
ATOM     12  C   UNL     1       1.870   7.978  19.188  0.00  0.00    +0.000 A 
ATOM     13  C   UNL     1       2.440   8.449  18.016  0.00  0.00    +0.000 A 
ATOM     14  C   UNL     1       3.484   7.762  17.385  0.00  0.00    +0.000 A 
BRANCH  13  15
ATOM     15  O   UNL     1       1.998   9.601  17.435  0.00  0.00    +0.000 OA
ATOM     16  H   UNL     1       1.074   9.473  17.166  0.00  0.00    +0.000 HD
ENDBRANCH  13  15
ENDBRANCH   7   9
BRANCH   4  17
ATOM     17  C   UNL     1       3.578   1.853  18.077  0.00  0.00    +0.000 C 
BRANCH  17  18
ATOM     18  C   UNL     1       2.733   2.365  19.221  0.00  0.00    +0.000 A 
ATOM     19  C   UNL     1       3.223   2.337  20.536  0.00  0.00    +0.000 A 
ATOM     20  C   UNL     1       2.464   2.856  21.586  0.00  0.00    +0.000 A 
ATOM     21  C   UNL     1       1.211   3.407  21.330  0.00  0.00    +0.000 A 
ATOM     22  C   UNL     1       0.710   3.432  20.029  0.00  0.00    +0.000 A 
ATOM     23  C   UNL     1       1.467   2.912  18.979  0.00  0.00    +0.000 A 
ENDBRANCH  17  18
ENDBRANCH   4  17
TORSDOF 4
ENDMDL
MODEL 2
REMARK VINA RESULT:      -7.5      0.059      1.032
REMARK  Name = 
REMARK  6 active torsions:
REMARK  status: ('A' for Active; 'I' for Inactive)
REMARK    1  A    between atoms: C_1  and  C_2
REMARK    2  A    between atoms: N_4  and  C_5
REMARK    3  A    between atoms: C_5  and  C_6
REMARK    4  A    between atoms: C_14  and  C_15
REMARK    5  A    between atoms: C_14  and  C_16
REMARK    6  A    between atoms: C_20  and  O_21
REMARK                            x       y       z     vdW  Elec       q    Type
REMARK                         _______ _______ _______ _____ _____    ______ ____
ROOT
ATOM      1  C   UNL     1       6.570   5.590  19.365  0.00  0.00    +0.000 C 
ATOM      2  C   UNL     1       5.975   4.868  18.148  0.00  0.00    +0.000 C 
ATOM      3  C   UNL     1       5.209   3.613  18.607  0.00  0.00    +0.000 C 
ATOM      4  N   UNL     1       4.559   2.841  17.537  0.00  0.00    +0.000 NA
ATOM      5  C   UNL     1       3.879   3.640  16.507  0.00  0.00    +0.000 C 
ATOM      6  C   UNL     1       4.614   4.896  16.054  0.00  0.00    +0.000 C 
ATOM      7  C   UNL     1       5.150   5.799  17.199  0.00  0.00    +0.000 C 
ATOM      8  C   UNL     1       6.156   6.768  16.502  0.00  0.00    +0.000 C 
ENDROOT
BRANCH   7   9
ATOM      9  C   UNL     1       4.004   6.588  17.899  0.00  0.00    +0.000 A 
ATOM     10  C   UNL     1       3.405   6.147  19.097  0.00  0.00    +0.000 A 
ATOM     11  C   UNL     1       2.359   6.835  19.723  0.00  0.00    +0.000 A 
ATOM     12  C   UNL     1       1.872   8.010  19.174  0.00  0.00    +0.000 A 
ATOM     13  C   UNL     1       2.448   8.481  18.004  0.00  0.00    +0.000 A 
ATOM     14  C   UNL     1       3.491   7.791  17.376  0.00  0.00    +0.000 A 
BRANCH  13  15
ATOM     15  O   UNL     1       2.014   9.636  17.424  0.00  0.00    +0.000 OA
ATOM     16  H   UNL     1       1.055   9.706  17.561  0.00  0.00    +0.000 HD
ENDBRANCH  13  15
ENDBRANCH   7   9
BRANCH   4  17
ATOM     17  C   UNL     1       3.580   1.879  18.097  0.00  0.00    +0.000 C 
BRANCH  17  18
ATOM     18  C   UNL     1       2.746   2.394  19.248  0.00  0.00    +0.000 A 
ATOM     19  C   UNL     1       1.470   2.931  19.019  0.00  0.00    +0.000 A 
ATOM     20  C   UNL     1       0.680   3.360  20.086  0.00  0.00    +0.000 A 
ATOM     21  C   UNL     1       1.158   3.255  21.390  0.00  0.00    +0.000 A 
ATOM     22  C   UNL     1       2.428   2.732  21.629  0.00  0.00    +0.000 A 
ATOM     23  C   UNL     1       3.219   2.304  20.564  0.00  0.00    +0.000 A 
ENDBRANCH  17  18
ENDBRANCH   4  17
TORSDOF 4
ENDMDL
MODEL 3
REMARK VINA RESULT:      -7.3      1.017      1.768
REMARK  Name = 
REMARK  6 active torsions:
REMARK  status: ('A' for Active; 'I' for Inactive)
REMARK    1  A    between atoms: C_1  and  C_2
REMARK    2  A    between atoms: N_4  and  C_5
REMARK    3  A    between atoms: C_5  and  C_6
REMARK    4  A    between atoms: C_14  and  C_15
REMARK    5  A    between atoms: C_14  and  C_16
REMARK    6  A    between atoms: C_20  and  O_21
REMARK                            x       y       z     vdW  Elec       q    Type
REMARK                         _______ _______ _______ _____ _____    ______ ____
ROOT
ATOM      1  C   UNL     1       6.535   5.548  19.440  0.00  0.00    +0.000 C 
ATOM      2  C   UNL     1       5.963   4.844  18.203  0.00  0.00    +0.000 C 
ATOM      3  C   UNL     1       5.181   3.587  18.630  0.00  0.00    +0.000 C 
ATOM      4  N   UNL     1       4.551   2.830  17.537  0.00  0.00    +0.000 NA
ATOM      5  C   UNL     1       3.897   3.644  16.503  0.00  0.00    +0.000 C 
ATOM      6  C   UNL     1       4.647   4.902  16.080  0.00  0.00    +0.000 C 
ATOM      7  C   UNL     1       5.163   5.789  17.247  0.00  0.00    +0.000 C 
ATOM      8  C   UNL     1       6.187   6.762  16.583  0.00  0.00    +0.000 C 
ENDROOT
BRANCH   7   9
ATOM      9  C   UNL     1       4.005   6.575  17.932  0.00  0.00    +0.000 A 
ATOM     10  C   UNL     1       3.469   7.759  17.387  0.00  0.00    +0.000 A 
ATOM     11  C   UNL     1       2.444   8.486  18.006  0.00  0.00    +0.000 A 
ATOM     12  C   UNL     1       1.904   8.045  19.203  0.00  0.00    +0.000 A 
ATOM     13  C   UNL     1       2.396   6.875  19.759  0.00  0.00    +0.000 A 
ATOM     14  C   UNL     1       3.423   6.151  19.143  0.00  0.00    +0.000 A 
BRANCH  13  15
ATOM     15  O   UNL     1       1.896   6.390  20.931  0.00  0.00    +0.000 OA
ATOM     16  H   UNL     1       2.350   6.835  21.665  0.00  0.00    +0.000 HD
ENDBRANCH  13  15
ENDBRANCH   7   9
BRANCH   4  17
ATOM     17  C   UNL     1       3.556   1.866  18.065  0.00  0.00    +0.000 C 
BRANCH  17  18
ATOM     18  C   UNL     1       2.733   2.355  19.235  0.00  0.00    +0.000 A 
ATOM     19  C   UNL     1       1.428   2.832  19.037  0.00  0.00    +0.000 A 
ATOM     20  C   UNL     1       0.649   3.236  20.123  0.00  0.00    +0.000 A 
ATOM     21  C   UNL     1       1.167   3.166  21.413  0.00  0.00    +0.000 A 
ATOM     22  C   UNL     1       2.466   2.703  21.621  0.00  0.00    +0.000 A 
ATOM     23  C   UNL     1       3.246   2.300  20.537  0.00  0.00    +0.000 A 
ENDBRANCH  17  18
ENDBRANCH   4  17
TORSDOF 4
ENDMDL
MODEL 4
REMARK VINA RESULT:      -7.2      1.010      1.432
REMARK  Name = 
REMARK  6 active torsions:
REMARK  status: ('A' for Active; 'I' for Inactive)
REMARK    1  A    between atoms: C_1  and  C_2
REMARK    2  A    between atoms: N_4  and  C_5
REMARK    3  A    between atoms: C_5  and  C_6
REMARK    4  A    between atoms: C_14  and  C_15
REMARK    5  A    between atoms: C_14  and  C_16
REMARK    6  A    between atoms: C_20  and  O_21
REMARK                            x       y       z     vdW  Elec       q    Type
REMARK                         _______ _______ _______ _____ _____    ______ ____
ROOT
ATOM      1  C   UNL     1       6.476   5.505  19.489  0.00  0.00    +0.000 C 
ATOM      2  C   UNL     1       5.926   4.826  18.227  0.00  0.00    +0.000 C 
ATOM      3  C   UNL     1       5.119   3.573  18.616  0.00  0.00    +0.000 C 
ATOM      4  N   UNL     1       4.507   2.840  17.497  0.00  0.00    +0.000 NA
ATOM      5  C   UNL     1       3.889   3.678  16.459  0.00  0.00    +0.000 C 
ATOM      6  C   UNL     1       4.665   4.933  16.074  0.00  0.00    +0.000 C 
ATOM      7  C   UNL     1       5.162   5.796  17.266  0.00  0.00    +0.000 C 
ATOM      8  C   UNL     1       6.215   6.765  16.643  0.00  0.00    +0.000 C 
ENDROOT
BRANCH   7   9
ATOM      9  C   UNL     1       3.997   6.586  17.934  0.00  0.00    +0.000 A 
ATOM     10  C   UNL     1       3.448   7.751  17.362  0.00  0.00    +0.000 A 
ATOM     11  C   UNL     1       2.417   8.482  17.965  0.00  0.00    +0.000 A 
ATOM     12  C   UNL     1       1.883   8.064  19.173  0.00  0.00    +0.000 A 
ATOM     13  C   UNL     1       2.388   6.913  19.756  0.00  0.00    +0.000 A 
ATOM     14  C   UNL     1       3.422   6.185  19.156  0.00  0.00    +0.000 A 
BRANCH  13  15
ATOM     15  O   UNL     1       1.894   6.452  20.941  0.00  0.00    +0.000 OA
ATOM     16  H   UNL     1       2.098   7.103  21.631  0.00  0.00    +0.000 HD
ENDBRANCH  13  15
ENDBRANCH   7   9
BRANCH   4  17
ATOM     17  C   UNL     1       3.488   1.882  17.985  0.00  0.00    +0.000 C 
BRANCH  17  18
ATOM     18  C   UNL     1       2.689   2.335  19.186  0.00  0.00    +0.000 A 
ATOM     19  C   UNL     1       3.247   2.281  20.473  0.00  0.00    +0.000 A 
ATOM     20  C   UNL     1       2.529   2.745  21.576  0.00  0.00    +0.000 A 
ATOM     21  C   UNL     1       1.250   3.269  21.402  0.00  0.00    +0.000 A 
ATOM     22  C   UNL     1       0.683   3.319  20.129  0.00  0.00    +0.000 A 
ATOM     23  C   UNL     1       1.398   2.853  19.027  0.00  0.00    +0.000 A 
ENDBRANCH  17  18
ENDBRANCH   4  17
TORSDOF 4
ENDMDL
MODEL 5
REMARK VINA RESULT:      -7.1      2.275      3.487
REMARK  Name = 
REMARK  6 active torsions:
REMARK  status: ('A' for Active; 'I' for Inactive)
REMARK    1  A    between atoms: C_1  and  C_2
REMARK    2  A    between atoms: N_4  and  C_5
REMARK    3  A    between atoms: C_5  and  C_6
REMARK    4  A    between atoms: C_14  and  C_15
REMARK    5  A    between atoms: C_14  and  C_16
REMARK    6  A    between atoms: C_20  and  O_21
REMARK                            x       y       z     vdW  Elec       q    Type
REMARK                         _______ _______ _______ _____ _____    ______ ____
ROOT
ATOM      1  C   UNL     1       6.746   4.636  14.794  0.00  0.00    +0.000 C 
ATOM      2  C   UNL     1       5.411   4.726  15.546  0.00  0.00    +0.000 C 
ATOM      3  C   UNL     1       5.233   3.488  16.445  0.00  0.00    +0.000 C 
ATOM      4  N   UNL     1       4.001   3.461  17.250  0.00  0.00    +0.000 NA
ATOM      5  C   UNL     1       3.630   4.739  17.875  0.00  0.00    +0.000 C 
ATOM      6  C   UNL     1       3.818   5.978  17.006  0.00  0.00    +0.000 C 
ATOM      7  C   UNL     1       5.193   6.084  16.293  0.00  0.00    +0.000 C 
ATOM      8  C   UNL     1       4.994   7.189  15.208  0.00  0.00    +0.000 C 
ENDROOT
BRANCH   7   9
ATOM      9  C   UNL     1       6.332   6.469  17.284  0.00  0.00    +0.000 A 
ATOM     10  C   UNL     1       7.121   7.625  17.117  0.00  0.00    +0.000 A 
ATOM     11  C   UNL     1       8.162   7.968  17.988  0.00  0.00    +0.000 A 
ATOM     12  C   UNL     1       8.450   7.165  19.079  0.00  0.00    +0.000 A 
ATOM     13  C   UNL     1       7.683   6.028  19.283  0.00  0.00    +0.000 A 
ATOM     14  C   UNL     1       6.645   5.682  18.409  0.00  0.00    +0.000 A 
BRANCH  13  15
ATOM     15  O   UNL     1       7.917   5.205  20.345  0.00  0.00    +0.000 OA
ATOM     16  H   UNL     1       8.493   5.671  20.972  0.00  0.00    +0.000 HD
ENDBRANCH  13  15
ENDBRANCH   7   9
BRANCH   4  17
ATOM     17  C   UNL     1       4.087   2.433  18.314  0.00  0.00    +0.000 C 
BRANCH  17  18
ATOM     18  C   UNL     1       3.042   2.535  19.403  0.00  0.00    +0.000 A 
ATOM     19  C   UNL     1       3.425   2.617  20.751  0.00  0.00    +0.000 A 
ATOM     20  C   UNL     1       2.463   2.761  21.753  0.00  0.00    +0.000 A 
ATOM     21  C   UNL     1       1.114   2.825  21.415  0.00  0.00    +0.000 A 
ATOM     22  C   UNL     1       0.722   2.735  20.080  0.00  0.00    +0.000 A 
ATOM     23  C   UNL     1       1.681   2.589  19.079  0.00  0.00    +0.000 A 
ENDBRANCH  17  18
ENDBRANCH   4  17
TORSDOF 4
ENDMDL
MODEL 6
REMARK VINA RESULT:      -7.1      2.272      3.633
REMARK  Name = 
REMARK  6 active torsions:
REMARK  status: ('A' for Active; 'I' for Inactive)
REMARK    1  A    between atoms: C_1  and  C_2
REMARK    2  A    between atoms: N_4  and  C_5
REMARK    3  A    between atoms: C_5  and  C_6
REMARK    4  A    between atoms: C_14  and  C_15
REMARK    5  A    between atoms: C_14  and  C_16
REMARK    6  A    between atoms: C_20  and  O_21
REMARK                            x       y       z     vdW  Elec       q    Type
REMARK                         _______ _______ _______ _____ _____    ______ ____
ROOT
ATOM      1  C   UNL     1       6.751   4.622  14.784  0.00  0.00    +0.000 C 
ATOM      2  C   UNL     1       5.409   4.733  15.522  0.00  0.00    +0.000 C 
ATOM      3  C   UNL     1       5.207   3.503  16.427  0.00  0.00    +0.000 C 
ATOM      4  N   UNL     1       3.967   3.495  17.219  0.00  0.00    +0.000 NA
ATOM      5  C   UNL     1       3.604   4.781  17.832  0.00  0.00    +0.000 C 
ATOM      6  C   UNL     1       3.815   6.012  16.957  0.00  0.00    +0.000 C 
ATOM      7  C   UNL     1       5.199   6.098  16.257  0.00  0.00    +0.000 C 
ATOM      8  C   UNL     1       5.023   7.198  15.163  0.00  0.00    +0.000 C 
ENDROOT
BRANCH   7   9
ATOM      9  C   UNL     1       6.332   6.477  17.258  0.00  0.00    +0.000 A 
ATOM     10  C   UNL     1       7.118   7.637  17.107  0.00  0.00    +0.000 A 
ATOM     11  C   UNL     1       8.153   7.975  17.986  0.00  0.00    +0.000 A 
ATOM     12  C   UNL     1       8.438   7.160  19.070  0.00  0.00    +0.000 A 
ATOM     13  C   UNL     1       7.675   6.019  19.258  0.00  0.00    +0.000 A 
ATOM     14  C   UNL     1       6.643   5.679  18.376  0.00  0.00    +0.000 A 
BRANCH  13  15
ATOM     15  O   UNL     1       7.907   5.186  20.312  0.00  0.00    +0.000 OA
ATOM     16  H   UNL     1       7.224   4.496  20.312  0.00  0.00    +0.000 HD
ENDBRANCH  13  15
ENDBRANCH   7   9
BRANCH   4  17
ATOM     17  C   UNL     1       4.029   2.474  18.291  0.00  0.00    +0.000 C 
BRANCH  17  18
ATOM     18  C   UNL     1       3.018   2.635  19.404  0.00  0.00    +0.000 A 
ATOM     19  C   UNL     1       1.656   2.795  19.111  0.00  0.00    +0.000 A 
ATOM     20  C   UNL     1       0.716   2.894  20.138  0.00  0.00    +0.000 A 
ATOM     21  C   UNL     1       1.131   2.832  21.466  0.00  0.00    +0.000 A 
ATOM     22  C   UNL     1       2.484   2.682  21.770  0.00  0.00    +0.000 A 
ATOM     23  C   UNL     1       3.424   2.585  20.744  0.00  0.00    +0.000 A 
ENDBRANCH  17  18
ENDBRANCH   4  17
TORSDOF 4
ENDMDL
MODEL 7
REMARK VINA RESULT:      -7.0      2.295      5.475
REMARK  Name = 
REMARK  6 active torsions:
REMARK  status: ('A' for Active; 'I' for Inactive)
REMARK    1  A    between atoms: C_1  and  C_2
REMARK    2  A    between atoms: N_4  and  C_5
REMARK    3  A    between atoms: C_5  and  C_6
REMARK    4  A    between atoms: C_14  and  C_15
REMARK    5  A    between atoms: C_14  and  C_16
REMARK    6  A    between atoms: C_20  and  O_21
REMARK                            x       y       z     vdW  Elec       q    Type
REMARK                         _______ _______ _______ _____ _____    ______ ____
ROOT
ATOM      1  C   UNL     1       2.207   2.739  17.639  0.00  0.00    +0.000 C 
ATOM      2  C   UNL     1       3.693   3.065  17.844  0.00  0.00    +0.000 C 
ATOM      3  C   UNL     1       4.224   3.864  16.639  0.00  0.00    +0.000 C 
ATOM      4  N   UNL     1       5.636   4.271  16.720  0.00  0.00    +0.000 NA
ATOM      5  C   UNL     1       6.074   4.766  18.033  0.00  0.00    +0.000 C 
ATOM      6  C   UNL     1       5.543   3.998  19.239  0.00  0.00    +0.000 C 
ATOM      7  C   UNL     1       4.014   3.722  19.228  0.00  0.00    +0.000 C 
ATOM      8  C   UNL     1       3.799   2.633  20.325  0.00  0.00    +0.000 C 
ENDROOT
BRANCH   7   9
ATOM      9  C   UNL     1       3.191   5.007  19.542  0.00  0.00    +0.000 A 
ATOM     10  C   UNL     1       2.314   5.092  20.642  0.00  0.00    +0.000 A 
ATOM     11  C   UNL     1       1.552   6.233  20.921  0.00  0.00    +0.000 A 
ATOM     12  C   UNL     1       1.647   7.349  20.106  0.00  0.00    +0.000 A 
ATOM     13  C   UNL     1       2.512   7.306  19.024  0.00  0.00    +0.000 A 
ATOM     14  C   UNL     1       3.271   6.164  18.743  0.00  0.00    +0.000 A 
BRANCH  13  15
ATOM     15  O   UNL     1       2.651   8.378  18.194  0.00  0.00    +0.000 OA
ATOM     16  H   UNL     1       1.803   8.850  18.158  0.00  0.00    +0.000 HD
ENDBRANCH  13  15
ENDBRANCH   7   9
BRANCH   4  17
ATOM     17  C   UNL     1       5.948   5.308  15.708  0.00  0.00    +0.000 C 
BRANCH  17  18
ATOM     18  C   UNL     1       6.349   4.788  14.346  0.00  0.00    +0.000 A 
ATOM     19  C   UNL     1       5.583   3.801  13.706  0.00  0.00    +0.000 A 
ATOM     20  C   UNL     1       5.924   3.357  12.428  0.00  0.00    +0.000 A 
ATOM     21  C   UNL     1       7.031   3.897  11.778  0.00  0.00    +0.000 A 
ATOM     22  C   UNL     1       7.805   4.871  12.408  0.00  0.00    +0.000 A 
ATOM     23  C   UNL     1       7.467   5.314  13.686  0.00  0.00    +0.000 A 
ENDBRANCH  17  18
ENDBRANCH   4  17
TORSDOF 4
ENDMDL
MODEL 8
REMARK VINA RESULT:      -6.9      2.172      5.297
REMARK  Name = 
REMARK  6 active torsions:
REMARK  status: ('A' for Active; 'I' for Inactive)
REMARK    1  A    between atoms: C_1  and  C_2
REMARK    2  A    between atoms: N_4  and  C_5
REMARK    3  A    between atoms: C_5  and  C_6
REMARK    4  A    between atoms: C_14  and  C_15
REMARK    5  A    between atoms: C_14  and  C_16
REMARK    6  A    between atoms: C_20  and  O_21
REMARK                            x       y       z     vdW  Elec       q    Type
REMARK                         _______ _______ _______ _____ _____    ______ ____
ROOT
ATOM      1  C   UNL     1       1.534   3.919  17.740  0.00  0.00    +0.000 C 
ATOM      2  C   UNL     1       3.033   4.092  18.019  0.00  0.00    +0.000 C 
ATOM      3  C   UNL     1       3.735   4.657  16.769  0.00  0.00    +0.000 C 
ATOM      4  N   UNL     1       5.180   4.902  16.911  0.00  0.00    +0.000 NA
ATOM      5  C   UNL     1       5.593   5.511  18.182  0.00  0.00    +0.000 C 
ATOM      6  C   UNL     1       4.895   4.978  19.429  0.00  0.00    +0.000 C 
ATOM      7  C   UNL     1       3.347   4.885  19.331  0.00  0.00    +0.000 C 
ATOM      8  C   UNL     1       2.928   3.983  20.535  0.00  0.00    +0.000 C 
ENDROOT
BRANCH   7   9
ATOM      9  C   UNL     1       2.675   6.287  19.419  0.00  0.00    +0.000 A 
ATOM     10  C   UNL     1       1.994   6.729  20.571  0.00  0.00    +0.000 A 
ATOM     11  C   UNL     1       1.367   7.978  20.652  0.00  0.00    +0.000 A 
ATOM     12  C   UNL     1       1.407   8.848  19.574  0.00  0.00    +0.000 A 
ATOM     13  C   UNL     1       2.082   8.452  18.430  0.00  0.00    +0.000 A 
ATOM     14  C   UNL     1       2.705   7.202  18.347  0.00  0.00    +0.000 A 
BRANCH  13  15
ATOM     15  O   UNL     1       2.159   9.271  17.343  0.00  0.00    +0.000 OA
ATOM     16  H   UNL     1       2.060   8.728  16.544  0.00  0.00    +0.000 HD
ENDBRANCH  13  15
ENDBRANCH   7   9
BRANCH   4  17
ATOM     17  C   UNL     1       5.684   5.751  15.805  0.00  0.00    +0.000 C 
BRANCH  17  18
ATOM     18  C   UNL     1       6.103   5.011  14.555  0.00  0.00    +0.000 A 
ATOM     19  C   UNL     1       5.253   4.059  13.972  0.00  0.00    +0.000 A 
ATOM     20  C   UNL     1       5.618   3.413  12.790  0.00  0.00    +0.000 A 
ATOM     21  C   UNL     1       6.834   3.713  12.181  0.00  0.00    +0.000 A 
ATOM     22  C   UNL     1       7.691   4.651  12.757  0.00  0.00    +0.000 A 
ATOM     23  C   UNL     1       7.328   5.296  13.938  0.00  0.00    +0.000 A 
ENDBRANCH  17  18
ENDBRANCH   4  17
TORSDOF 4
ENDMDL
MODEL 9
REMARK VINA RESULT:      -6.9      1.227      4.667
REMARK  Name = 
REMARK  6 active torsions:
REMARK  status: ('A' for Active; 'I' for Inactive)
REMARK    1  A    between atoms: C_1  and  C_2
REMARK    2  A    between atoms: N_4  and  C_5
REMARK    3  A    between atoms: C_5  and  C_6
REMARK    4  A    between atoms: C_14  and  C_15
REMARK    5  A    between atoms: C_14  and  C_16
REMARK    6  A    between atoms: C_20  and  O_21
REMARK                            x       y       z     vdW  Elec       q    Type
REMARK                         _______ _______ _______ _____ _____    ______ ____
ROOT
ATOM      1  C   UNL     1       0.436   3.312  18.276  0.00  0.00    +0.000 C 
ATOM      2  C   UNL     1       1.887   3.025  18.689  0.00  0.00    +0.000 C 
ATOM      3  C   UNL     1       2.824   3.235  17.485  0.00  0.00    +0.000 C 
ATOM      4  N   UNL     1       4.256   3.021  17.751  0.00  0.00    +0.000 NA
ATOM      5  C   UNL     1       4.748   3.570  19.023  0.00  0.00    +0.000 C 
ATOM      6  C   UNL     1       3.824   3.388  20.222  0.00  0.00    +0.000 C 
ATOM      7  C   UNL     1       2.341   3.781  19.981  0.00  0.00    +0.000 C 
ATOM      8  C   UNL     1       1.565   3.159  21.185  0.00  0.00    +0.000 C 
ENDROOT
BRANCH   7   9
ATOM      9  C   UNL     1       2.152   5.326  19.929  0.00  0.00    +0.000 A 
ATOM     10  C   UNL     1       1.543   6.050  20.975  0.00  0.00    +0.000 A 
ATOM     11  C   UNL     1       1.348   7.435  20.928  0.00  0.00    +0.000 A 
ATOM     12  C   UNL     1       1.767   8.160  19.825  0.00  0.00    +0.000 A 
ATOM     13  C   UNL     1       2.384   7.483  18.785  0.00  0.00    +0.000 A 
ATOM     14  C   UNL     1       2.576   6.097  18.829  0.00  0.00    +0.000 A 
BRANCH  13  15
ATOM     15  O   UNL     1       2.824   8.147  17.678  0.00  0.00    +0.000 OA
ATOM     16  H   UNL     1       2.054   8.526  17.223  0.00  0.00    +0.000 HD
ENDBRANCH  13  15
ENDBRANCH   7   9
BRANCH   4  17
ATOM     17  C   UNL     1       5.087   3.575  16.656  0.00  0.00    +0.000 C 
BRANCH  17  18
ATOM     18  C   UNL     1       5.899   4.800  17.010  0.00  0.00    +0.000 A 
ATOM     19  C   UNL     1       5.457   6.079  16.638  0.00  0.00    +0.000 A 
ATOM     20  C   UNL     1       6.181   7.214  17.008  0.00  0.00    +0.000 A 
ATOM     21  C   UNL     1       7.350   7.080  17.754  0.00  0.00    +0.000 A 
ATOM     22  C   UNL     1       7.803   5.813  18.121  0.00  0.00    +0.000 A 
ATOM     23  C   UNL     1       7.083   4.678  17.750  0.00  0.00    +0.000 A 
ENDBRANCH  17  18
ENDBRANCH   4  17
TORSDOF 4
ENDMDL
