MODEL 1
REMARK VINA RESULT:      -7.5      0.000      0.000
REMARK  Name = 
REMARK  9 active torsions:
REMARK  status: ('A' for Active; 'I' for Inactive)
REMARK    1  A    between atoms: C_1  and  C_2
REMARK    2  A    between atoms: C_2  and  O_3
REMARK    3  A    between atoms: O_3  and  C_4
REMARK    4  A    between atoms: C_9  and  O_10
REMARK    5  A    between atoms: O_10  and  C_11
REMARK    6  A    between atoms: C_11  and  C_12
REMARK    7  A    between atoms: C_13  and  C_14
REMARK    8  A    between atoms: C_17  and  C_18
REMARK    9  A    between atoms: C_18  and  O_20
REMARK                            x       y       z     vdW  Elec       q    Type
REMARK                         _______ _______ _______ _____ _____    ______ ____
ROOT
ATOM      1  C   UNL     1       3.042   6.067  19.358  0.00  0.00    +0.000 A 
ATOM      2  C   UNL     1       4.209   5.287  19.509  0.00  0.00    +0.000 A 
ATOM      3  C   UNL     1       5.270   5.420  18.614  0.00  0.00    +0.000 A 
ATOM      4  C   UNL     1       5.195   6.342  17.566  0.00  0.00    +0.000 A 
ATOM      5  C   UNL     1       4.056   7.145  17.426  0.00  0.00    +0.000 A 
ATOM      6  C   UNL     1       2.973   7.015  18.320  0.00  0.00    +0.000 A 
ATOM      7  C   UNL     1       6.363   6.453  16.601  0.00  0.00    +0.000 C 
ATOM      8  N   UNL     1       7.679   6.236  17.260  0.00  0.00    +0.000 NA
ATOM      9  C   UNL     1       7.697   5.591  18.591  0.00  0.00    +0.000 C 
ATOM     10  C   UNL     1       6.528   4.623  18.765  0.00  0.00    +0.000 C 
ATOM     11  H   UNL     1       8.234   7.122  17.297  0.00  0.00    +0.000 HD
ENDROOT
BRANCH   7  12
ATOM     12  C   UNL     1       6.237   5.493  15.425  0.00  0.00    +0.000 A 
ATOM     13  C   UNL     1       5.080   4.727  15.166  0.00  0.00    +0.000 A 
ATOM     14  C   UNL     1       5.027   3.865  14.070  0.00  0.00    +0.000 A 
ATOM     15  C   UNL     1       6.123   3.735  13.197  0.00  0.00    +0.000 A 
ATOM     16  C   UNL     1       7.274   4.502  13.452  0.00  0.00    +0.000 A 
ATOM     17  C   UNL     1       7.326   5.369  14.547  0.00  0.00    +0.000 A 
BRANCH  15  18
ATOM     18  C   UNL     1       6.033   2.794  12.039  0.00  0.00    +0.000 C 
ATOM     19  O   UNL     1       4.956   2.618  11.492  0.00  0.00    +0.000 OA
BRANCH  18  20
ATOM     20  O   UNL     1       7.105   2.113  11.567  0.00  0.00    +0.000 OA
ATOM     21  H   UNL     1       7.245   1.889  10.640  0.00  0.00    +0.000 HD
ENDBRANCH  18  20
ENDBRANCH  15  18
ENDBRANCH   7  12
BRANCH   1  22
ATOM     22  O   UNL     1       1.981   5.949  20.201  0.00  0.00    +0.000 OA
BRANCH  22  24
ATOM     23  C   UNL     1       0.906   3.835  20.068  0.00  0.00    +0.000 C 
ATOM     24  C   UNL     1       1.647   4.829  20.943  0.00  0.00    +0.000 C 
ENDBRANCH  22  24
ENDBRANCH   1  22
BRANCH   6  25
ATOM     25  O   UNL     1       1.854   7.782  18.219  0.00  0.00    +0.000 OA
BRANCH  25  26
ATOM     26  C   UNL     1       1.816   9.106  17.827  0.00  0.00    +0.000 C 
ATOM     27  C   UNL     1       0.995   9.908  18.824  0.00  0.00    +0.000 C 
ENDBRANCH  25  26
ENDBRANCH   6  25
TORSDOF 7
ENDMDL
MODEL 2
REMARK VINA RESULT:      -6.8      0.814      1.015
REMARK  Name = 
REMARK  9 active torsions:
REMARK  status: ('A' for Active; 'I' for Inactive)
REMARK    1  A    between atoms: C_1  and  C_2
REMARK    2  A    between atoms: C_2  and  O_3
REMARK    3  A    between atoms: O_3  and  C_4
REMARK    4  A    between atoms: C_9  and  O_10
REMARK    5  A    between atoms: O_10  and  C_11
REMARK    6  A    between atoms: C_11  and  C_12
REMARK    7  A    between atoms: C_13  and  C_14
REMARK    8  A    between atoms: C_17  and  C_18
REMARK    9  A    between atoms: C_18  and  O_20
REMARK                            x       y       z     vdW  Elec       q    Type
REMARK                         _______ _______ _______ _____ _____    ______ ____
ROOT
ATOM      1  C   UNL     1       2.869   6.364  19.111  0.00  0.00    +0.000 A 
ATOM      2  C   UNL     1       3.943   5.478  19.340  0.00  0.00    +0.000 A 
ATOM      3  C   UNL     1       5.064   5.496  18.509  0.00  0.00    +0.000 A 
ATOM      4  C   UNL     1       5.141   6.406  17.451  0.00  0.00    +0.000 A 
ATOM      5  C   UNL     1       4.095   7.313  17.235  0.00  0.00    +0.000 A 
ATOM      6  C   UNL     1       2.953   7.299  18.063  0.00  0.00    +0.000 A 
ATOM      7  C   UNL     1       6.369   6.391  16.558  0.00  0.00    +0.000 C 
ATOM      8  N   UNL     1       7.617   6.057  17.297  0.00  0.00    +0.000 NA
ATOM      9  C   UNL     1       7.492   5.433  18.632  0.00  0.00    +0.000 C 
ATOM     10  C   UNL     1       6.227   4.584  18.743  0.00  0.00    +0.000 C 
ATOM     11  H   UNL     1       8.252   6.887  17.361  0.00  0.00    +0.000 HD
ENDROOT
BRANCH   7  12
ATOM     12  C   UNL     1       6.221   5.431  15.384  0.00  0.00    +0.000 A 
ATOM     13  C   UNL     1       5.111   4.577  15.212  0.00  0.00    +0.000 A 
ATOM     14  C   UNL     1       5.034   3.720  14.114  0.00  0.00    +0.000 A 
ATOM     15  C   UNL     1       6.061   3.682  13.151  0.00  0.00    +0.000 A 
ATOM     16  C   UNL     1       7.165   4.537  13.320  0.00  0.00    +0.000 A 
ATOM     17  C   UNL     1       7.240   5.398  14.418  0.00  0.00    +0.000 A 
BRANCH  15  18
ATOM     18  C   UNL     1       5.948   2.745  11.993  0.00  0.00    +0.000 C 
ATOM     19  O   UNL     1       4.874   2.616  11.428  0.00  0.00    +0.000 OA
BRANCH  18  20
ATOM     20  O   UNL     1       6.996   2.014  11.542  0.00  0.00    +0.000 OA
ATOM     21  H   UNL     1       7.459   1.345  12.059  0.00  0.00    +0.000 HD
ENDBRANCH  18  20
ENDBRANCH  15  18
ENDBRANCH   7  12
BRANCH   1  22
ATOM     22  O   UNL     1       1.752   6.361  19.889  0.00  0.00    +0.000 OA
BRANCH  22  24
ATOM     23  C   UNL     1       0.940   8.113  21.273  0.00  0.00    +0.000 C 
ATOM     24  C   UNL     1       1.672   6.785  21.205  0.00  0.00    +0.000 C 
ENDBRANCH  22  24
ENDBRANCH   1  22
BRANCH   6  25
ATOM     25  O   UNL     1       1.922   8.169  17.888  0.00  0.00    +0.000 OA
BRANCH  25  26
ATOM     26  C   UNL     1       2.033   9.541  17.777  0.00  0.00    +0.000 C 
ATOM     27  C   UNL     1       0.819  10.204  18.409  0.00  0.00    +0.000 C 
ENDBRANCH  25  26
ENDBRANCH   6  25
TORSDOF 7
ENDMDL
MODEL 3
REMARK VINA RESULT:      -6.3      1.656      2.333
REMARK  Name = 
REMARK  9 active torsions:
REMARK  status: ('A' for Active; 'I' for Inactive)
REMARK    1  A    between atoms: C_1  and  C_2
REMARK    2  A    between atoms: C_2  and  O_3
REMARK    3  A    between atoms: O_3  and  C_4
REMARK    4  A    between atoms: C_9  and  O_10
REMARK    5  A    between atoms: O_10  and  C_11
REMARK    6  A    between atoms: C_11  and  C_12
REMARK    7  A    between atoms: C_13  and  C_14
REMARK    8  A    between atoms: C_17  and  C_18
REMARK    9  A    between atoms: C_18  and  O_20
REMARK                            x       y       z     vdW  Elec       q    Type
REMARK                         _______ _______ _______ _____ _____    ______ ____
ROOT
ATOM      1  C   UNL     1       3.988   4.587  19.749  0.00  0.00    +0.000 A 
ATOM      2  C   UNL     1       5.390   4.605  19.590  0.00  0.00    +0.000 A 
ATOM      3  C   UNL     1       5.968   5.210  18.474  0.00  0.00    +0.000 A 
ATOM      4  C   UNL     1       5.163   5.822  17.510  0.00  0.00    +0.000 A 
ATOM      5  C   UNL     1       3.771   5.840  17.674  0.00  0.00    +0.000 A 
ATOM      6  C   UNL     1       3.175   5.224  18.794  0.00  0.00    +0.000 A 
ATOM      7  C   UNL     1       5.823   6.462  16.301  0.00  0.00    +0.000 C 
ATOM      8  N   UNL     1       7.138   7.079  16.620  0.00  0.00    +0.000 NA
ATOM      9  C   UNL     1       7.803   6.693  17.883  0.00  0.00    +0.000 C 
ATOM     10  C   UNL     1       7.453   5.264  18.292  0.00  0.00    +0.000 C 
ATOM     11  H   UNL     1       7.091   8.123  16.558  0.00  0.00    +0.000 HD
ENDROOT
BRANCH   7  12
ATOM     12  C   UNL     1       6.007   5.477  15.152  0.00  0.00    +0.000 A 
ATOM     13  C   UNL     1       7.175   5.411  14.364  0.00  0.00    +0.000 A 
ATOM     14  C   UNL     1       7.283   4.485  13.325  0.00  0.00    +0.000 A 
ATOM     15  C   UNL     1       6.231   3.595  13.036  0.00  0.00    +0.000 A 
ATOM     16  C   UNL     1       5.068   3.658  13.825  0.00  0.00    +0.000 A 
ATOM     17  C   UNL     1       4.962   4.583  14.868  0.00  0.00    +0.000 A 
BRANCH  15  18
ATOM     18  C   UNL     1       6.378   2.624  11.910  0.00  0.00    +0.000 C 
ATOM     19  O   UNL     1       5.380   2.155  11.388  0.00  0.00    +0.000 OA
BRANCH  18  20
ATOM     20  O   UNL     1       7.587   2.229  11.441  0.00  0.00    +0.000 OA
ATOM     21  H   UNL     1       7.825   2.191  10.508  0.00  0.00    +0.000 HD
ENDBRANCH  18  20
ENDBRANCH  15  18
ENDBRANCH   7  12
BRANCH   1  22
ATOM     22  O   UNL     1       3.390   3.989  20.815  0.00  0.00    +0.000 OA
BRANCH  22  24
ATOM     23  C   UNL     1       1.732   2.495  21.630  0.00  0.00    +0.000 C 
ATOM     24  C   UNL     1       3.066   2.647  20.922  0.00  0.00    +0.000 C 
ENDBRANCH  22  24
ENDBRANCH   1  22
BRANCH   6  25
ATOM     25  O   UNL     1       1.829   5.228  18.990  0.00  0.00    +0.000 OA
BRANCH  25  26
ATOM     26  C   UNL     1       0.943   4.274  18.527  0.00  0.00    +0.000 C 
ATOM     27  C   UNL     1       1.675   3.294  17.625  0.00  0.00    +0.000 C 
ENDBRANCH  25  26
ENDBRANCH   6  25
TORSDOF 7
ENDMDL
MODEL 4
REMARK VINA RESULT:      -6.2      1.925      2.488
REMARK  Name = 
REMARK  9 active torsions:
REMARK  status: ('A' for Active; 'I' for Inactive)
REMARK    1  A    between atoms: C_1  and  C_2
REMARK    2  A    between atoms: C_2  and  O_3
REMARK    3  A    between atoms: O_3  and  C_4
REMARK    4  A    between atoms: C_9  and  O_10
REMARK    5  A    between atoms: O_10  and  C_11
REMARK    6  A    between atoms: C_11  and  C_12
REMARK    7  A    between atoms: C_13  and  C_14
REMARK    8  A    between atoms: C_17  and  C_18
REMARK    9  A    between atoms: C_18  and  O_20
REMARK                            x       y       z     vdW  Elec       q    Type
REMARK                         _______ _______ _______ _____ _____    ______ ____
ROOT
ATOM      1  C   UNL     1       3.883   3.975  19.572  0.00  0.00    +0.000 A 
ATOM      2  C   UNL     1       5.277   4.135  19.419  0.00  0.00    +0.000 A 
ATOM      3  C   UNL     1       5.794   4.841  18.332  0.00  0.00    +0.000 A 
ATOM      4  C   UNL     1       4.933   5.413  17.392  0.00  0.00    +0.000 A 
ATOM      5  C   UNL     1       3.546   5.289  17.551  0.00  0.00    +0.000 A 
ATOM      6  C   UNL     1       3.012   4.571  18.641  0.00  0.00    +0.000 A 
ATOM      7  C   UNL     1       5.528   6.164  16.213  0.00  0.00    +0.000 C 
ATOM      8  N   UNL     1       6.778   6.891  16.564  0.00  0.00    +0.000 NA
ATOM      9  C   UNL     1       7.477   6.518  17.812  0.00  0.00    +0.000 C 
ATOM     10  C   UNL     1       7.267   5.045  18.159  0.00  0.00    +0.000 C 
ATOM     11  H   UNL     1       6.630   7.927  16.546  0.00  0.00    +0.000 HD
ENDROOT
BRANCH   7  12
ATOM     12  C   UNL     1       5.806   5.252  15.025  0.00  0.00    +0.000 A 
ATOM     13  C   UNL     1       4.849   4.371  14.479  0.00  0.00    +0.000 A 
ATOM     14  C   UNL     1       5.166   3.561  13.387  0.00  0.00    +0.000 A 
ATOM     15  C   UNL     1       6.447   3.599  12.805  0.00  0.00    +0.000 A 
ATOM     16  C   UNL     1       7.400   4.481  13.347  0.00  0.00    +0.000 A 
ATOM     17  C   UNL     1       7.081   5.295  14.437  0.00  0.00    +0.000 A 
BRANCH  15  18
ATOM     18  C   UNL     1       6.753   2.710  11.643  0.00  0.00    +0.000 C 
ATOM     19  O   UNL     1       7.841   2.791  11.097  0.00  0.00    +0.000 OA
BRANCH  18  20
ATOM     20  O   UNL     1       5.861   1.813  11.157  0.00  0.00    +0.000 OA
ATOM     21  H   UNL     1       5.666   0.961  11.566  0.00  0.00    +0.000 HD
ENDBRANCH  18  20
ENDBRANCH  15  18
ENDBRANCH   7  12
BRANCH   1  22
ATOM     22  O   UNL     1       3.346   3.277  20.608  0.00  0.00    +0.000 OA
BRANCH  22  24
ATOM     23  C   UNL     1       1.479   2.741  21.976  0.00  0.00    +0.000 C 
ATOM     24  C   UNL     1       2.512   3.784  21.590  0.00  0.00    +0.000 C 
ENDBRANCH  22  24
ENDBRANCH   1  22
BRANCH   6  25
ATOM     25  O   UNL     1       1.672   4.436  18.832  0.00  0.00    +0.000 OA
BRANCH  25  26
ATOM     26  C   UNL     1       0.821   3.665  18.064  0.00  0.00    +0.000 C 
ATOM     27  C   UNL     1       0.744   2.261  18.643  0.00  0.00    +0.000 C 
ENDBRANCH  25  26
ENDBRANCH   6  25
TORSDOF 7
ENDMDL
MODEL 5
REMARK VINA RESULT:      -6.2      5.517      9.081
REMARK  Name = 
REMARK  9 active torsions:
REMARK  status: ('A' for Active; 'I' for Inactive)
REMARK    1  A    between atoms: C_1  and  C_2
REMARK    2  A    between atoms: C_2  and  O_3
REMARK    3  A    between atoms: O_3  and  C_4
REMARK    4  A    between atoms: C_9  and  O_10
REMARK    5  A    between atoms: O_10  and  C_11
REMARK    6  A    between atoms: C_11  and  C_12
REMARK    7  A    between atoms: C_13  and  C_14
REMARK    8  A    between atoms: C_17  and  C_18
REMARK    9  A    between atoms: C_18  and  O_20
REMARK                            x       y       z     vdW  Elec       q    Type
REMARK                         _______ _______ _______ _____ _____    ______ ____
ROOT
ATOM      1  C   UNL     1      -3.929  11.431  17.786  0.00  0.00    +0.000 A 
ATOM      2  C   UNL     1      -3.459  11.680  19.094  0.00  0.00    +0.000 A 
ATOM      3  C   UNL     1      -2.090  11.739  19.355  0.00  0.00    +0.000 A 
ATOM      4  C   UNL     1      -1.168  11.569  18.319  0.00  0.00    +0.000 A 
ATOM      5  C   UNL     1      -1.623  11.354  17.011  0.00  0.00    +0.000 A 
ATOM      6  C   UNL     1      -3.004  11.285  16.736  0.00  0.00    +0.000 A 
ATOM      7  C   UNL     1       0.315  11.627  18.640  0.00  0.00    +0.000 C 
ATOM      8  N   UNL     1       0.635  12.599  19.720  0.00  0.00    +0.000 NA
ATOM      9  C   UNL     1      -0.470  13.078  20.579  0.00  0.00    +0.000 C 
ATOM     10  C   UNL     1      -1.566  12.025  20.728  0.00  0.00    +0.000 C 
ATOM     11  H   UNL     1       1.163  13.421  19.345  0.00  0.00    +0.000 HD
ENDROOT
BRANCH   7  12
ATOM     12  C   UNL     1       0.880  10.264  19.021  0.00  0.00    +0.000 A 
ATOM     13  C   UNL     1       0.795   9.723  20.321  0.00  0.00    +0.000 A 
ATOM     14  C   UNL     1       1.332   8.467  20.607  0.00  0.00    +0.000 A 
ATOM     15  C   UNL     1       1.973   7.709  19.609  0.00  0.00    +0.000 A 
ATOM     16  C   UNL     1       2.052   8.247  18.311  0.00  0.00    +0.000 A 
ATOM     17  C   UNL     1       1.511   9.502  18.025  0.00  0.00    +0.000 A 
BRANCH  15  18
ATOM     18  C   UNL     1       2.544   6.372  19.954  0.00  0.00    +0.000 C 
ATOM     19  O   UNL     1       3.358   5.856  19.205  0.00  0.00    +0.000 OA
BRANCH  18  20
ATOM     20  O   UNL     1       2.189   5.694  21.072  0.00  0.00    +0.000 OA
ATOM     21  H   UNL     1       1.284   5.609  21.395  0.00  0.00    +0.000 HD
ENDBRANCH  18  20
ENDBRANCH  15  18
ENDBRANCH   7  12
BRANCH   1  22
ATOM     22  O   UNL     1      -5.256  11.347  17.499  0.00  0.00    +0.000 OA
BRANCH  22  24
ATOM     23  C   UNL     1      -7.248  12.258  18.418  0.00  0.00    +0.000 C 
ATOM     24  C   UNL     1      -6.138  12.409  17.395  0.00  0.00    +0.000 C 
ENDBRANCH  22  24
ENDBRANCH   1  22
BRANCH   6  25
ATOM     25  O   UNL     1      -3.482  11.084  15.478  0.00  0.00    +0.000 OA
BRANCH  25  26
ATOM     26  C   UNL     1      -3.082  10.085  14.612  0.00  0.00    +0.000 C 
ATOM     27  C   UNL     1      -4.052  10.006  13.443  0.00  0.00    +0.000 C 
ENDBRANCH  25  26
ENDBRANCH   6  25
TORSDOF 7
ENDMDL
MODEL 6
REMARK VINA RESULT:      -6.2      1.815      7.298
REMARK  Name = 
REMARK  9 active torsions:
REMARK  status: ('A' for Active; 'I' for Inactive)
REMARK    1  A    between atoms: C_1  and  C_2
REMARK    2  A    between atoms: C_2  and  O_3
REMARK    3  A    between atoms: O_3  and  C_4
REMARK    4  A    between atoms: C_9  and  O_10
REMARK    5  A    between atoms: O_10  and  C_11
REMARK    6  A    between atoms: C_11  and  C_12
REMARK    7  A    between atoms: C_13  and  C_14
REMARK    8  A    between atoms: C_17  and  C_18
REMARK    9  A    between atoms: C_18  and  O_20
REMARK                            x       y       z     vdW  Elec       q    Type
REMARK                         _______ _______ _______ _____ _____    ______ ____
ROOT
ATOM      1  C   UNL     1       7.016   4.841  14.477  0.00  0.00    +0.000 A 
ATOM      2  C   UNL     1       7.535   5.521  15.600  0.00  0.00    +0.000 A 
ATOM      3  C   UNL     1       6.840   5.522  16.810  0.00  0.00    +0.000 A 
ATOM      4  C   UNL     1       5.631   4.833  16.927  0.00  0.00    +0.000 A 
ATOM      5  C   UNL     1       5.122   4.126  15.828  0.00  0.00    +0.000 A 
ATOM      6  C   UNL     1       5.811   4.124  14.598  0.00  0.00    +0.000 A 
ATOM      7  C   UNL     1       4.893   4.864  18.254  0.00  0.00    +0.000 C 
ATOM      8  N   UNL     1       5.812   4.886  19.425  0.00  0.00    +0.000 NA
ATOM      9  C   UNL     1       7.227   5.249  19.196  0.00  0.00    +0.000 C 
ATOM     10  C   UNL     1       7.379   6.215  18.022  0.00  0.00    +0.000 C 
ATOM     11  H   UNL     1       5.767   3.985  19.957  0.00  0.00    +0.000 HD
ENDROOT
BRANCH   7  12
ATOM     12  C   UNL     1       3.936   6.045  18.359  0.00  0.00    +0.000 A 
ATOM     13  C   UNL     1       3.848   7.063  17.386  0.00  0.00    +0.000 A 
ATOM     14  C   UNL     1       2.948   8.119  17.539  0.00  0.00    +0.000 A 
ATOM     15  C   UNL     1       2.109   8.198  18.667  0.00  0.00    +0.000 A 
ATOM     16  C   UNL     1       2.194   7.180  19.634  0.00  0.00    +0.000 A 
ATOM     17  C   UNL     1       3.091   6.121  19.478  0.00  0.00    +0.000 A 
BRANCH  15  18
ATOM     18  C   UNL     1       1.165   9.349  18.801  0.00  0.00    +0.000 C 
ATOM     19  O   UNL     1       0.718   9.632  19.901  0.00  0.00    +0.000 OA
BRANCH  18  20
ATOM     20  O   UNL     1       0.772  10.097  17.742  0.00  0.00    +0.000 OA
ATOM     21  H   UNL     1      -0.095  10.512  17.658  0.00  0.00    +0.000 HD
ENDBRANCH  18  20
ENDBRANCH  15  18
ENDBRANCH   7  12
BRANCH   1  22
ATOM     22  O   UNL     1       7.657   4.836  13.277  0.00  0.00    +0.000 OA
BRANCH  22  24
ATOM     23  C   UNL     1       7.920   6.315  11.437  0.00  0.00    +0.000 C 
ATOM     24  C   UNL     1       8.460   5.846  12.775  0.00  0.00    +0.000 C 
ENDBRANCH  22  24
ENDBRANCH   1  22
BRANCH   6  25
ATOM     25  O   UNL     1       5.352   3.444  13.513  0.00  0.00    +0.000 OA
BRANCH  25  26
ATOM     26  C   UNL     1       5.117   3.983  12.263  0.00  0.00    +0.000 C 
ATOM     27  C   UNL     1       4.185   3.069  11.482  0.00  0.00    +0.000 C 
ENDBRANCH  25  26
ENDBRANCH   6  25
TORSDOF 7
ENDMDL
MODEL 7
REMARK VINA RESULT:      -6.2      1.183      1.421
REMARK  Name = 
REMARK  9 active torsions:
REMARK  status: ('A' for Active; 'I' for Inactive)
REMARK    1  A    between atoms: C_1  and  C_2
REMARK    2  A    between atoms: C_2  and  O_3
REMARK    3  A    between atoms: O_3  and  C_4
REMARK    4  A    between atoms: C_9  and  O_10
REMARK    5  A    between atoms: O_10  and  C_11
REMARK    6  A    between atoms: C_11  and  C_12
REMARK    7  A    between atoms: C_13  and  C_14
REMARK    8  A    between atoms: C_17  and  C_18
REMARK    9  A    between atoms: C_18  and  O_20
REMARK                            x       y       z     vdW  Elec       q    Type
REMARK                         _______ _______ _______ _____ _____    ______ ____
ROOT
ATOM      1  C   UNL     1       3.815   4.733  19.878  0.00  0.00    +0.000 A 
ATOM      2  C   UNL     1       5.199   4.513  19.711  0.00  0.00    +0.000 A 
ATOM      3  C   UNL     1       5.873   5.047  18.612  0.00  0.00    +0.000 A 
ATOM      4  C   UNL     1       5.185   5.821  17.674  0.00  0.00    +0.000 A 
ATOM      5  C   UNL     1       3.818   6.074  17.847  0.00  0.00    +0.000 A 
ATOM      6  C   UNL     1       3.124   5.533  18.950  0.00  0.00    +0.000 A 
ATOM      7  C   UNL     1       5.945   6.377  16.482  0.00  0.00    +0.000 C 
ATOM      8  N   UNL     1       7.348   6.746  16.813  0.00  0.00    +0.000 NA
ATOM      9  C   UNL     1       7.937   6.209  18.059  0.00  0.00    +0.000 C 
ATOM     10  C   UNL     1       7.345   4.849  18.423  0.00  0.00    +0.000 C 
ATOM     11  H   UNL     1       7.482   7.784  16.786  0.00  0.00    +0.000 HD
ENDROOT
BRANCH   7  12
ATOM     12  C   UNL     1       5.955   5.414  15.300  0.00  0.00    +0.000 A 
ATOM     13  C   UNL     1       4.874   4.567  14.977  0.00  0.00    +0.000 A 
ATOM     14  C   UNL     1       4.945   3.708  13.880  0.00  0.00    +0.000 A 
ATOM     15  C   UNL     1       6.095   3.661  13.069  0.00  0.00    +0.000 A 
ATOM     16  C   UNL     1       7.171   4.510  13.389  0.00  0.00    +0.000 A 
ATOM     17  C   UNL     1       7.098   5.373  14.485  0.00  0.00    +0.000 A 
BRANCH  15  18
ATOM     18  C   UNL     1       6.139   2.722  11.908  0.00  0.00    +0.000 C 
ATOM     19  O   UNL     1       5.102   2.428  11.336  0.00  0.00    +0.000 OA
BRANCH  18  20
ATOM     20  O   UNL     1       7.291   2.167  11.462  0.00  0.00    +0.000 OA
ATOM     21  H   UNL     1       8.150   2.275  11.888  0.00  0.00    +0.000 HD
ENDBRANCH  18  20
ENDBRANCH  15  18
ENDBRANCH   7  12
BRANCH   1  22
ATOM     22  O   UNL     1       3.123   4.212  20.927  0.00  0.00    +0.000 OA
BRANCH  22  24
ATOM     23  C   UNL     1       1.299   2.764  21.396  0.00  0.00    +0.000 C 
ATOM     24  C   UNL     1       2.783   2.881  21.100  0.00  0.00    +0.000 C 
ENDBRANCH  22  24
ENDBRANCH   1  22
BRANCH   6  25
ATOM     25  O   UNL     1       1.799   5.763  19.154  0.00  0.00    +0.000 OA
BRANCH  25  26
ATOM     26  C   UNL     1       1.251   6.409  20.245  0.00  0.00    +0.000 C 
ATOM     27  C   UNL     1       1.784   7.832  20.316  0.00  0.00    +0.000 C 
ENDBRANCH  25  26
ENDBRANCH   6  25
TORSDOF 7
ENDMDL
MODEL 8
REMARK VINA RESULT:      -6.2      4.955      8.192
REMARK  Name = 
REMARK  9 active torsions:
REMARK  status: ('A' for Active; 'I' for Inactive)
REMARK    1  A    between atoms: C_1  and  C_2
REMARK    2  A    between atoms: C_2  and  O_3
REMARK    3  A    between atoms: O_3  and  C_4
REMARK    4  A    between atoms: C_9  and  O_10
REMARK    5  A    between atoms: O_10  and  C_11
REMARK    6  A    between atoms: C_11  and  C_12
REMARK    7  A    between atoms: C_13  and  C_14
REMARK    8  A    between atoms: C_17  and  C_18
REMARK    9  A    between atoms: C_18  and  O_20
REMARK                            x       y       z     vdW  Elec       q    Type
REMARK                         _______ _______ _______ _____ _____    ______ ____
ROOT
ATOM      1  C   UNL     1      -2.550  12.080  19.706  0.00  0.00    +0.000 A 
ATOM      2  C   UNL     1      -1.287  12.416  20.239  0.00  0.00    +0.000 A 
ATOM      3  C   UNL     1      -0.119  11.917  19.660  0.00  0.00    +0.000 A 
ATOM      4  C   UNL     1      -0.189  11.095  18.533  0.00  0.00    +0.000 A 
ATOM      5  C   UNL     1      -1.436  10.782  17.975  0.00  0.00    +0.000 A 
ATOM      6  C   UNL     1      -2.623  11.273  18.556  0.00  0.00    +0.000 A 
ATOM      7  C   UNL     1       1.100  10.559  17.934  0.00  0.00    +0.000 C 
ATOM      8  N   UNL     1       2.229  11.523  18.038  0.00  0.00    +0.000 NA
ATOM      9  C   UNL     1       2.102  12.648  18.990  0.00  0.00    +0.000 C 
ATOM     10  C   UNL     1       1.234  12.276  20.191  0.00  0.00    +0.000 C 
ATOM     11  H   UNL     1       2.498  11.894  17.097  0.00  0.00    +0.000 HD
ENDROOT
BRANCH   7  12
ATOM     12  C   UNL     1       1.523   9.235  18.558  0.00  0.00    +0.000 A 
ATOM     13  C   UNL     1       1.256   8.886  19.899  0.00  0.00    +0.000 A 
ATOM     14  C   UNL     1       1.670   7.656  20.411  0.00  0.00    +0.000 A 
ATOM     15  C   UNL     1       2.366   6.733  19.607  0.00  0.00    +0.000 A 
ATOM     16  C   UNL     1       2.628   7.080  18.269  0.00  0.00    +0.000 A 
ATOM     17  C   UNL     1       2.210   8.310  17.755  0.00  0.00    +0.000 A 
BRANCH  15  18
ATOM     18  C   UNL     1       2.802   5.430  20.194  0.00  0.00    +0.000 C 
ATOM     19  O   UNL     1       2.155   4.935  21.102  0.00  0.00    +0.000 OA
BRANCH  18  20
ATOM     20  O   UNL     1       3.903   4.768  19.762  0.00  0.00    +0.000 OA
ATOM     21  H   UNL     1       3.952   3.813  19.635  0.00  0.00    +0.000 HD
ENDBRANCH  18  20
ENDBRANCH  15  18
ENDBRANCH   7  12
BRANCH   1  22
ATOM     22  O   UNL     1      -3.709  12.532  20.257  0.00  0.00    +0.000 OA
BRANCH  22  24
ATOM     23  C   UNL     1      -5.414  12.806  21.888  0.00  0.00    +0.000 C 
ATOM     24  C   UNL     1      -3.925  12.801  21.598  0.00  0.00    +0.000 C 
ENDBRANCH  22  24
ENDBRANCH   1  22
BRANCH   6  25
ATOM     25  O   UNL     1      -3.850  10.996  18.038  0.00  0.00    +0.000 OA
BRANCH  25  26
ATOM     26  C   UNL     1      -4.381  11.540  16.885  0.00  0.00    +0.000 C 
ATOM     27  C   UNL     1      -5.679  12.260  17.211  0.00  0.00    +0.000 C 
ENDBRANCH  25  26
ENDBRANCH   6  25
TORSDOF 7
ENDMDL
MODEL 9
REMARK VINA RESULT:      -6.1      1.837      7.215
REMARK  Name = 
REMARK  9 active torsions:
REMARK  status: ('A' for Active; 'I' for Inactive)
REMARK    1  A    between atoms: C_1  and  C_2
REMARK    2  A    between atoms: C_2  and  O_3
REMARK    3  A    between atoms: O_3  and  C_4
REMARK    4  A    between atoms: C_9  and  O_10
REMARK    5  A    between atoms: O_10  and  C_11
REMARK    6  A    between atoms: C_11  and  C_12
REMARK    7  A    between atoms: C_13  and  C_14
REMARK    8  A    between atoms: C_17  and  C_18
REMARK    9  A    between atoms: C_18  and  O_20
REMARK                            x       y       z     vdW  Elec       q    Type
REMARK                         _______ _______ _______ _____ _____    ______ ____
ROOT
ATOM      1  C   UNL     1       7.076   4.817  14.629  0.00  0.00    +0.000 A 
ATOM      2  C   UNL     1       7.583   5.553  15.722  0.00  0.00    +0.000 A 
ATOM      3  C   UNL     1       6.907   5.564  16.942  0.00  0.00    +0.000 A 
ATOM      4  C   UNL     1       5.730   4.828  17.101  0.00  0.00    +0.000 A 
ATOM      5  C   UNL     1       5.235   4.067  16.033  0.00  0.00    +0.000 A 
ATOM      6  C   UNL     1       5.904   4.055  14.792  0.00  0.00    +0.000 A 
ATOM      7  C   UNL     1       5.012   4.870  18.439  0.00  0.00    +0.000 C 
ATOM      8  N   UNL     1       5.947   4.967  19.592  0.00  0.00    +0.000 NA
ATOM      9  C   UNL     1       7.342   5.382  19.329  0.00  0.00    +0.000 C 
ATOM     10  C   UNL     1       7.435   6.316  18.124  0.00  0.00    +0.000 C 
ATOM     11  H   UNL     1       5.949   4.083  20.152  0.00  0.00    +0.000 HD
ENDROOT
BRANCH   7  12
ATOM     12  C   UNL     1       4.008   6.013  18.522  0.00  0.00    +0.000 A 
ATOM     13  C   UNL     1       3.098   6.172  19.589  0.00  0.00    +0.000 A 
ATOM     14  C   UNL     1       2.202   7.242  19.608  0.00  0.00    +0.000 A 
ATOM     15  C   UNL     1       2.180   8.187  18.565  0.00  0.00    +0.000 A 
ATOM     16  C   UNL     1       3.091   8.030  17.504  0.00  0.00    +0.000 A 
ATOM     17  C   UNL     1       3.990   6.962  17.488  0.00  0.00    +0.000 A 
BRANCH  15  18
ATOM     18  C   UNL     1       1.200   9.314  18.615  0.00  0.00    +0.000 C 
ATOM     19  O   UNL     1       1.058   9.940  19.653  0.00  0.00    +0.000 OA
BRANCH  18  20
ATOM     20  O   UNL     1       0.445   9.672  17.548  0.00  0.00    +0.000 OA
ATOM     21  H   UNL     1      -0.418   9.296  17.339  0.00  0.00    +0.000 HD
ENDBRANCH  18  20
ENDBRANCH  15  18
ENDBRANCH   7  12
BRANCH   1  22
ATOM     22  O   UNL     1       7.698   4.801  13.419  0.00  0.00    +0.000 OA
BRANCH  22  24
ATOM     23  C   UNL     1       7.829   6.095  11.431  0.00  0.00    +0.000 C 
ATOM     24  C   UNL     1       8.367   5.861  12.830  0.00  0.00    +0.000 C 
ENDBRANCH  22  24
ENDBRANCH   1  22
BRANCH   6  25
ATOM     25  O   UNL     1       5.458   3.323  13.736  0.00  0.00    +0.000 OA
BRANCH  25  26
ATOM     26  C   UNL     1       4.841   3.826  12.608  0.00  0.00    +0.000 C 
ATOM     27  C   UNL     1       4.942   2.815  11.477  0.00  0.00    +0.000 C 
ENDBRANCH  25  26
ENDBRANCH   6  25
TORSDOF 7
ENDMDL
