MODEL 1
REMARK VINA RESULT:      -7.4      0.000      0.000
REMARK  Name = 
REMARK  7 active torsions:
REMARK  status: ('A' for Active; 'I' for Inactive)
REMARK    1  A    between atoms: C_1  and  N_2
REMARK    2  A    between atoms: N_2  and  C_3
REMARK    3  A    between atoms: C_4  and  C_6
REMARK    4  A    between atoms: C_16  and  C_17
REMARK    5  A    between atoms: C_17  and  C_18
REMARK    6  A    between atoms: C_18  and  C_19
REMARK    7  A    between atoms: C_19  and  O_21
REMARK                            x       y       z     vdW  Elec       q    Type
REMARK                         _______ _______ _______ _____ _____    ______ ____
ROOT
ATOM      1  C   UNL     1       2.572   7.192  18.927  0.00  0.00    +0.000 A 
ATOM      2  N   UNL     1       3.552   7.538  18.035  0.00  0.00    +0.000 N 
ATOM      3  C   UNL     1       4.035   6.449  17.364  0.00  0.00    +0.000 A 
ATOM      4  C   UNL     1       4.954   6.410  16.308  0.00  0.00    +0.000 A 
ATOM      5  C   UNL     1       5.346   5.162  15.827  0.00  0.00    +0.000 A 
ATOM      6 CL   UNL     1       6.478   5.080  14.532  0.00  0.00    +0.000 Cl
ATOM      7  C   UNL     1       4.856   3.994  16.388  0.00  0.00    +0.000 A 
ATOM      8  C   UNL     1       3.926   4.067  17.433  0.00  0.00    +0.000 A 
ATOM      9 CL   UNL     1       3.370   2.614  18.142  0.00  0.00    +0.000 Cl
ATOM     10  C   UNL     1       3.462   5.309  17.943  0.00  0.00    +0.000 A 
ATOM     11  C   UNL     1       2.516   5.791  18.939  0.00  0.00    +0.000 A 
ATOM     12  H   UNL     1       3.853   8.485  17.864  0.00  0.00    +0.000 HD
ENDROOT
BRANCH   1  16
ATOM     13  C   UNL     1       0.547  10.197  19.961  0.00  0.00    +0.000 C 
ATOM     14  N   UNL     1       1.221   9.236  19.107  0.00  0.00    +0.000 N 
ATOM     15  C   UNL     1       1.022   9.404  17.672  0.00  0.00    +0.000 C 
ATOM     16  C   UNL     1       1.850   8.156  19.740  0.00  0.00    +0.000 C 
ATOM     17  O   UNL     1       1.776   8.027  20.963  0.00  0.00    +0.000 OA
ENDBRANCH   1  16
BRANCH  11  18
ATOM     18  C   UNL     1       1.626   4.963  19.839  0.00  0.00    +0.000 C 
BRANCH  18  19
ATOM     19  C   UNL     1       2.220   4.553  21.185  0.00  0.00    +0.000 C 
BRANCH  19  20
ATOM     20  C   UNL     1       1.997   3.101  21.535  0.00  0.00    +0.000 C 
ATOM     21  O   UNL     1       2.808   2.350  22.051  0.00  0.00    +0.000 OA
BRANCH  20  22
ATOM     22  O   UNL     1       0.742   2.693  21.223  0.00  0.00    +0.000 OA
ATOM     23  H   UNL     1       0.724   1.909  20.640  0.00  0.00    +0.000 HD
ENDBRANCH  20  22
ENDBRANCH  19  20
ENDBRANCH  18  19
ENDBRANCH  11  18
TORSDOF 5
ENDMDL
MODEL 2
REMARK VINA RESULT:      -7.2      3.835      6.339
REMARK  Name = 
REMARK  7 active torsions:
REMARK  status: ('A' for Active; 'I' for Inactive)
REMARK    1  A    between atoms: C_1  and  N_2
REMARK    2  A    between atoms: N_2  and  C_3
REMARK    3  A    between atoms: C_4  and  C_6
REMARK    4  A    between atoms: C_16  and  C_17
REMARK    5  A    between atoms: C_17  and  C_18
REMARK    6  A    between atoms: C_18  and  C_19
REMARK    7  A    between atoms: C_19  and  O_21
REMARK                            x       y       z     vdW  Elec       q    Type
REMARK                         _______ _______ _______ _____ _____    ______ ____
ROOT
ATOM      1  C   UNL     1       3.200   5.084  19.436  0.00  0.00    +0.000 A 
ATOM      2  N   UNL     1       2.546   5.423  20.589  0.00  0.00    +0.000 N 
ATOM      3  C   UNL     1       1.947   6.648  20.491  0.00  0.00    +0.000 A 
ATOM      4  C   UNL     1       1.103   7.285  21.410  0.00  0.00    +0.000 A 
ATOM      5  C   UNL     1       0.666   8.575  21.112  0.00  0.00    +0.000 A 
ATOM      6 CL   UNL     1      -0.369   9.387  22.224  0.00  0.00    +0.000 Cl
ATOM      7  C   UNL     1       1.067   9.215  19.951  0.00  0.00    +0.000 A 
ATOM      8  C   UNL     1       1.898   8.545  19.045  0.00  0.00    +0.000 A 
ATOM      9 CL   UNL     1       2.419   9.371  17.641  0.00  0.00    +0.000 Cl
ATOM     10  C   UNL     1       2.350   7.218  19.276  0.00  0.00    +0.000 A 
ATOM     11  C   UNL     1       3.146   6.206  18.597  0.00  0.00    +0.000 A 
ATOM     12  H   UNL     1       2.478   4.825  21.399  0.00  0.00    +0.000 HD
ENDROOT
BRANCH   1  16
ATOM     13  C   UNL     1       3.855   1.448  18.687  0.00  0.00    +0.000 C 
ATOM     14  N   UNL     1       3.140   2.705  18.825  0.00  0.00    +0.000 N 
ATOM     15  C   UNL     1       1.763   2.714  18.346  0.00  0.00    +0.000 C 
ATOM     16  C   UNL     1       3.884   3.815  19.244  0.00  0.00    +0.000 C 
ATOM     17  O   UNL     1       5.098   3.712  19.431  0.00  0.00    +0.000 OA
ENDBRANCH   1  16
BRANCH  11  18
ATOM     18  C   UNL     1       3.808   6.313  17.242  0.00  0.00    +0.000 C 
BRANCH  18  19
ATOM     19  C   UNL     1       5.229   6.872  17.226  0.00  0.00    +0.000 C 
BRANCH  19  20
ATOM     20  C   UNL     1       6.254   5.923  16.653  0.00  0.00    +0.000 C 
ATOM     21  O   UNL     1       7.399   6.202  16.335  0.00  0.00    +0.000 OA
BRANCH  20  22
ATOM     22  O   UNL     1       5.766   4.664  16.534  0.00  0.00    +0.000 OA
ATOM     23  H   UNL     1       5.532   4.257  17.390  0.00  0.00    +0.000 HD
ENDBRANCH  20  22
ENDBRANCH  19  20
ENDBRANCH  18  19
ENDBRANCH  11  18
TORSDOF 5
ENDMDL
MODEL 3
REMARK VINA RESULT:      -7.1      4.016      6.135
REMARK  Name = 
REMARK  7 active torsions:
REMARK  status: ('A' for Active; 'I' for Inactive)
REMARK    1  A    between atoms: C_1  and  N_2
REMARK    2  A    between atoms: N_2  and  C_3
REMARK    3  A    between atoms: C_4  and  C_6
REMARK    4  A    between atoms: C_16  and  C_17
REMARK    5  A    between atoms: C_17  and  C_18
REMARK    6  A    between atoms: C_18  and  C_19
REMARK    7  A    between atoms: C_19  and  O_21
REMARK                            x       y       z     vdW  Elec       q    Type
REMARK                         _______ _______ _______ _____ _____    ______ ____
ROOT
ATOM      1  C   UNL     1       5.190   5.662  18.004  0.00  0.00    +0.000 A 
ATOM      2  N   UNL     1       4.305   5.846  19.032  0.00  0.00    +0.000 N 
ATOM      3  C   UNL     1       3.695   4.677  19.392  0.00  0.00    +0.000 A 
ATOM      4  C   UNL     1       2.821   4.440  20.460  0.00  0.00    +0.000 A 
ATOM      5  C   UNL     1       2.270   3.165  20.585  0.00  0.00    +0.000 A 
ATOM      6 CL   UNL     1       1.188   2.843  21.885  0.00  0.00    +0.000 Cl
ATOM      7  C   UNL     1       2.564   2.168  19.671  0.00  0.00    +0.000 A 
ATOM      8  C   UNL     1       3.455   2.431  18.622  0.00  0.00    +0.000 A 
ATOM      9 CL   UNL     1       3.767   1.199  17.479  0.00  0.00    +0.000 Cl
ATOM     10  C   UNL     1       4.074   3.700  18.462  0.00  0.00    +0.000 A 
ATOM     11  C   UNL     1       5.041   4.334  17.579  0.00  0.00    +0.000 A 
ATOM     12  H   UNL     1       4.151   6.729  19.495  0.00  0.00    +0.000 HD
ENDROOT
BRANCH   1  16
ATOM     13  C   UNL     1       8.019   8.100  17.495  0.00  0.00    +0.000 C 
ATOM     14  N   UNL     1       7.248   7.002  18.052  0.00  0.00    +0.000 N 
ATOM     15  C   UNL     1       7.922   6.194  19.062  0.00  0.00    +0.000 C 
ATOM     16  C   UNL     1       6.012   6.726  17.452  0.00  0.00    +0.000 C 
ATOM     17  O   UNL     1       5.645   7.369  16.468  0.00  0.00    +0.000 OA
ENDBRANCH   1  16
BRANCH  11  18
ATOM     18  C   UNL     1       5.767   3.708  16.409  0.00  0.00    +0.000 C 
BRANCH  18  19
ATOM     19  C   UNL     1       5.405   4.241  15.024  0.00  0.00    +0.000 C 
BRANCH  19  20
ATOM     20  C   UNL     1       6.600   4.539  14.151  0.00  0.00    +0.000 C 
ATOM     21  O   UNL     1       6.802   4.101  13.030  0.00  0.00    +0.000 OA
BRANCH  20  22
ATOM     22  O   UNL     1       7.463   5.396  14.750  0.00  0.00    +0.000 OA
ATOM     23  H   UNL     1       8.368   5.351  14.386  0.00  0.00    +0.000 HD
ENDBRANCH  20  22
ENDBRANCH  19  20
ENDBRANCH  18  19
ENDBRANCH  11  18
TORSDOF 5
ENDMDL
MODEL 4
REMARK VINA RESULT:      -7.0      3.943      6.347
REMARK  Name = 
REMARK  7 active torsions:
REMARK  status: ('A' for Active; 'I' for Inactive)
REMARK    1  A    between atoms: C_1  and  N_2
REMARK    2  A    between atoms: N_2  and  C_3
REMARK    3  A    between atoms: C_4  and  C_6
REMARK    4  A    between atoms: C_16  and  C_17
REMARK    5  A    between atoms: C_17  and  C_18
REMARK    6  A    between atoms: C_18  and  C_19
REMARK    7  A    between atoms: C_19  and  O_21
REMARK                            x       y       z     vdW  Elec       q    Type
REMARK                         _______ _______ _______ _____ _____    ______ ____
ROOT
ATOM      1  C   UNL     1       5.512   4.382  15.882  0.00  0.00    +0.000 A 
ATOM      2  N   UNL     1       4.727   3.278  16.086  0.00  0.00    +0.000 N 
ATOM      3  C   UNL     1       3.743   3.519  17.004  0.00  0.00    +0.000 A 
ATOM      4  C   UNL     1       2.688   2.685  17.394  0.00  0.00    +0.000 A 
ATOM      5  C   UNL     1       1.841   3.131  18.407  0.00  0.00    +0.000 A 
ATOM      6 CL   UNL     1       0.537   2.126  18.912  0.00  0.00    +0.000 Cl
ATOM      7  C   UNL     1       2.046   4.354  19.023  0.00  0.00    +0.000 A 
ATOM      8  C   UNL     1       3.101   5.173  18.599  0.00  0.00    +0.000 A 
ATOM      9 CL   UNL     1       3.363   6.658  19.405  0.00  0.00    +0.000 Cl
ATOM     10  C   UNL     1       3.977   4.790  17.549  0.00  0.00    +0.000 A 
ATOM     11  C   UNL     1       5.107   5.343  16.819  0.00  0.00    +0.000 A 
ATOM     12  H   UNL     1       4.836   2.407  15.591  0.00  0.00    +0.000 HD
ENDROOT
BRANCH   1  16
ATOM     13  C   UNL     1       7.473   4.099  12.675  0.00  0.00    +0.000 C 
ATOM     14  N   UNL     1       6.345   4.085  13.590  0.00  0.00    +0.000 N 
ATOM     15  C   UNL     1       5.033   3.891  12.984  0.00  0.00    +0.000 C 
ATOM     16  C   UNL     1       6.605   4.423  14.924  0.00  0.00    +0.000 C 
ATOM     17  O   UNL     1       7.740   4.760  15.267  0.00  0.00    +0.000 OA
ENDBRANCH   1  16
BRANCH  11  18
ATOM     18  C   UNL     1       5.753   6.697  17.011  0.00  0.00    +0.000 C 
BRANCH  18  19
ATOM     19  C   UNL     1       7.074   6.714  17.778  0.00  0.00    +0.000 C 
BRANCH  19  20
ATOM     20  C   UNL     1       7.238   5.560  18.738  0.00  0.00    +0.000 C 
ATOM     21  O   UNL     1       6.716   5.454  19.835  0.00  0.00    +0.000 OA
BRANCH  20  22
ATOM     22  O   UNL     1       8.049   4.596  18.236  0.00  0.00    +0.000 OA
ATOM     23  H   UNL     1       7.879   4.399  17.294  0.00  0.00    +0.000 HD
ENDBRANCH  20  22
ENDBRANCH  19  20
ENDBRANCH  18  19
ENDBRANCH  11  18
TORSDOF 5
ENDMDL
MODEL 5
REMARK VINA RESULT:      -7.0      3.059      5.266
REMARK  Name = 
REMARK  7 active torsions:
REMARK  status: ('A' for Active; 'I' for Inactive)
REMARK    1  A    between atoms: C_1  and  N_2
REMARK    2  A    between atoms: N_2  and  C_3
REMARK    3  A    between atoms: C_4  and  C_6
REMARK    4  A    between atoms: C_16  and  C_17
REMARK    5  A    between atoms: C_17  and  C_18
REMARK    6  A    between atoms: C_18  and  C_19
REMARK    7  A    between atoms: C_19  and  O_21
REMARK                            x       y       z     vdW  Elec       q    Type
REMARK                         _______ _______ _______ _____ _____    ______ ____
ROOT
ATOM      1  C   UNL     1       4.354   5.503  17.268  0.00  0.00    +0.000 A 
ATOM      2  N   UNL     1       3.724   6.718  17.245  0.00  0.00    +0.000 N 
ATOM      3  C   UNL     1       3.008   6.941  18.388  0.00  0.00    +0.000 A 
ATOM      4  C   UNL     1       2.326   8.099  18.781  0.00  0.00    +0.000 A 
ATOM      5  C   UNL     1       1.604   8.062  19.973  0.00  0.00    +0.000 A 
ATOM      6 CL   UNL     1       0.752   9.469  20.482  0.00  0.00    +0.000 Cl
ATOM      7  C   UNL     1       1.549   6.908  20.738  0.00  0.00    +0.000 A 
ATOM      8  C   UNL     1       2.255   5.771  20.326  0.00  0.00    +0.000 A 
ATOM      9 CL   UNL     1       2.133   4.345  21.261  0.00  0.00    +0.000 Cl
ATOM     10  C   UNL     1       3.035   5.757  19.139  0.00  0.00    +0.000 A 
ATOM     11  C   UNL     1       3.908   4.841  18.421  0.00  0.00    +0.000 A 
ATOM     12  H   UNL     1       3.811   7.387  16.495  0.00  0.00    +0.000 HD
ENDROOT
BRANCH   1  16
ATOM     13  C   UNL     1       7.369   5.010  15.061  0.00  0.00    +0.000 C 
ATOM     14  N   UNL     1       6.548   5.477  16.165  0.00  0.00    +0.000 N 
ATOM     15  C   UNL     1       7.243   6.221  17.209  0.00  0.00    +0.000 C 
ATOM     16  C   UNL     1       5.222   5.028  16.204  0.00  0.00    +0.000 C 
ATOM     17  O   UNL     1       4.812   4.235  15.354  0.00  0.00    +0.000 OA
ENDBRANCH   1  16
BRANCH  11  18
ATOM     18  C   UNL     1       4.283   3.430  18.815  0.00  0.00    +0.000 C 
BRANCH  18  19
ATOM     19  C   UNL     1       3.562   2.306  18.072  0.00  0.00    +0.000 C 
BRANCH  19  20
ATOM     20  C   UNL     1       2.057   2.377  18.167  0.00  0.00    +0.000 C 
ATOM     21  O   UNL     1       1.333   3.164  17.579  0.00  0.00    +0.000 OA
BRANCH  20  22
ATOM     22  O   UNL     1       1.557   1.427  18.995  0.00  0.00    +0.000 OA
ATOM     23  H   UNL     1       1.441   1.737  19.914  0.00  0.00    +0.000 HD
ENDBRANCH  20  22
ENDBRANCH  19  20
ENDBRANCH  18  19
ENDBRANCH  11  18
TORSDOF 5
ENDMDL
MODEL 6
REMARK VINA RESULT:      -7.0      4.230      6.640
REMARK  Name = 
REMARK  7 active torsions:
REMARK  status: ('A' for Active; 'I' for Inactive)
REMARK    1  A    between atoms: C_1  and  N_2
REMARK    2  A    between atoms: N_2  and  C_3
REMARK    3  A    between atoms: C_4  and  C_6
REMARK    4  A    between atoms: C_16  and  C_17
REMARK    5  A    between atoms: C_17  and  C_18
REMARK    6  A    between atoms: C_18  and  C_19
REMARK    7  A    between atoms: C_19  and  O_21
REMARK                            x       y       z     vdW  Elec       q    Type
REMARK                         _______ _______ _______ _____ _____    ______ ____
ROOT
ATOM      1  C   UNL     1       5.500   4.298  15.765  0.00  0.00    +0.000 A 
ATOM      2  N   UNL     1       5.060   3.132  16.333  0.00  0.00    +0.000 N 
ATOM      3  C   UNL     1       4.025   3.349  17.200  0.00  0.00    +0.000 A 
ATOM      4  C   UNL     1       3.245   2.408  17.884  0.00  0.00    +0.000 A 
ATOM      5  C   UNL     1       2.282   2.880  18.774  0.00  0.00    +0.000 A 
ATOM      6 CL   UNL     1       1.309   1.748  19.633  0.00  0.00    +0.000 Cl
ATOM      7  C   UNL     1       2.111   4.237  18.989  0.00  0.00    +0.000 A 
ATOM      8  C   UNL     1       2.896   5.154  18.277  0.00  0.00    +0.000 A 
ATOM      9 CL   UNL     1       2.701   6.822  18.594  0.00  0.00    +0.000 Cl
ATOM     10  C   UNL     1       3.871   4.736  17.332  0.00  0.00    +0.000 A 
ATOM     11  C   UNL     1       4.813   5.340  16.402  0.00  0.00    +0.000 A 
ATOM     12  H   UNL     1       5.427   2.220  16.109  0.00  0.00    +0.000 HD
ENDROOT
BRANCH   1  16
ATOM     13  C   UNL     1       7.366   3.999  12.504  0.00  0.00    +0.000 C 
ATOM     14  N   UNL     1       6.269   3.965  13.456  0.00  0.00    +0.000 N 
ATOM     15  C   UNL     1       4.949   3.695  12.901  0.00  0.00    +0.000 C 
ATOM     16  C   UNL     1       6.558   4.356  14.770  0.00  0.00    +0.000 C 
ATOM     17  O   UNL     1       7.686   4.754  15.064  0.00  0.00    +0.000 OA
ENDBRANCH   1  16
BRANCH  11  18
ATOM     18  C   UNL     1       5.037   6.814  16.147  0.00  0.00    +0.000 C 
BRANCH  18  19
ATOM     19  C   UNL     1       5.800   7.579  17.227  0.00  0.00    +0.000 C 
BRANCH  19  20
ATOM     20  C   UNL     1       7.155   6.994  17.549  0.00  0.00    +0.000 C 
ATOM     21  O   UNL     1       7.474   6.443  18.590  0.00  0.00    +0.000 OA
BRANCH  20  22
ATOM     22  O   UNL     1       8.022   7.129  16.516  0.00  0.00    +0.000 OA
ATOM     23  H   UNL     1       8.590   6.346  16.382  0.00  0.00    +0.000 HD
ENDBRANCH  20  22
ENDBRANCH  19  20
ENDBRANCH  18  19
ENDBRANCH  11  18
TORSDOF 5
ENDMDL
MODEL 7
REMARK VINA RESULT:      -7.0      3.134      5.141
REMARK  Name = 
REMARK  7 active torsions:
REMARK  status: ('A' for Active; 'I' for Inactive)
REMARK    1  A    between atoms: C_1  and  N_2
REMARK    2  A    between atoms: N_2  and  C_3
REMARK    3  A    between atoms: C_4  and  C_6
REMARK    4  A    between atoms: C_16  and  C_17
REMARK    5  A    between atoms: C_17  and  C_18
REMARK    6  A    between atoms: C_18  and  C_19
REMARK    7  A    between atoms: C_19  and  O_21
REMARK                            x       y       z     vdW  Elec       q    Type
REMARK                         _______ _______ _______ _____ _____    ______ ____
ROOT
ATOM      1  C   UNL     1       2.862   6.384  18.229  0.00  0.00    +0.000 A 
ATOM      2  N   UNL     1       2.632   7.530  17.515  0.00  0.00    +0.000 N 
ATOM      3  C   UNL     1       2.103   8.518  18.297  0.00  0.00    +0.000 A 
ATOM      4  C   UNL     1       1.837   9.851  17.961  0.00  0.00    +0.000 A 
ATOM      5  C   UNL     1       1.227  10.658  18.920  0.00  0.00    +0.000 A 
ATOM      6 CL   UNL     1       0.882  12.301  18.537  0.00  0.00    +0.000 Cl
ATOM      7  C   UNL     1       0.879  10.153  20.162  0.00  0.00    +0.000 A 
ATOM      8  C   UNL     1       1.173   8.820  20.474  0.00  0.00    +0.000 A 
ATOM      9 CL   UNL     1       0.692   8.206  21.995  0.00  0.00    +0.000 Cl
ATOM     10  C   UNL     1       1.823   7.957  19.551  0.00  0.00    +0.000 A 
ATOM     11  C   UNL     1       2.321   6.591  19.505  0.00  0.00    +0.000 A 
ATOM     12  H   UNL     1       2.863   7.645  16.540  0.00  0.00    +0.000 HD
ENDROOT
BRANCH   1  16
ATOM     13  C   UNL     1       5.377   4.015  16.723  0.00  0.00    +0.000 C 
ATOM     14  N   UNL     1       4.826   5.215  17.328  0.00  0.00    +0.000 N 
ATOM     15  C   UNL     1       5.787   6.250  17.687  0.00  0.00    +0.000 C 
ATOM     16  C   UNL     1       3.465   5.190  17.658  0.00  0.00    +0.000 C 
ATOM     17  O   UNL     1       2.802   4.167  17.478  0.00  0.00    +0.000 OA
ENDBRANCH   1  16
BRANCH  11  18
ATOM     18  C   UNL     1       2.277   5.558  20.609  0.00  0.00    +0.000 C 
BRANCH  18  19
ATOM     19  C   UNL     1       1.154   4.526  20.526  0.00  0.00    +0.000 C 
BRANCH  19  20
ATOM     20  C   UNL     1       1.579   3.128  20.905  0.00  0.00    +0.000 C 
ATOM     21  O   UNL     1       1.607   2.663  22.033  0.00  0.00    +0.000 OA
BRANCH  20  22
ATOM     22  O   UNL     1       1.927   2.393  19.820  0.00  0.00    +0.000 OA
ATOM     23  H   UNL     1       1.444   1.547  19.755  0.00  0.00    +0.000 HD
ENDBRANCH  20  22
ENDBRANCH  19  20
ENDBRANCH  18  19
ENDBRANCH  11  18
TORSDOF 5
ENDMDL
MODEL 8
REMARK VINA RESULT:      -6.7      3.053      5.055
REMARK  Name = 
REMARK  7 active torsions:
REMARK  status: ('A' for Active; 'I' for Inactive)
REMARK    1  A    between atoms: C_1  and  N_2
REMARK    2  A    between atoms: N_2  and  C_3
REMARK    3  A    between atoms: C_4  and  C_6
REMARK    4  A    between atoms: C_16  and  C_17
REMARK    5  A    between atoms: C_17  and  C_18
REMARK    6  A    between atoms: C_18  and  C_19
REMARK    7  A    between atoms: C_19  and  O_21
REMARK                            x       y       z     vdW  Elec       q    Type
REMARK                         _______ _______ _______ _____ _____    ______ ____
ROOT
ATOM      1  C   UNL     1       3.836   6.291  17.741  0.00  0.00    +0.000 A 
ATOM      2  N   UNL     1       3.381   7.426  17.125  0.00  0.00    +0.000 N 
ATOM      3  C   UNL     1       2.615   8.186  17.965  0.00  0.00    +0.000 A 
ATOM      4  C   UNL     1       2.068   9.456  17.741  0.00  0.00    +0.000 A 
ATOM      5  C   UNL     1       1.258  10.004  18.735  0.00  0.00    +0.000 A 
ATOM      6 CL   UNL     1       0.567  11.562  18.488  0.00  0.00    +0.000 Cl
ATOM      7  C   UNL     1       0.988   9.308  19.901  0.00  0.00    +0.000 A 
ATOM      8  C   UNL     1       1.563   8.046  20.102  0.00  0.00    +0.000 A 
ATOM      9 CL   UNL     1       1.177   7.185  21.527  0.00  0.00    +0.000 Cl
ATOM     10  C   UNL     1       2.423   7.449  19.142  0.00  0.00    +0.000 A 
ATOM     11  C   UNL     1       3.217   6.238  18.997  0.00  0.00    +0.000 A 
ATOM     12  H   UNL     1       3.615   7.691  16.181  0.00  0.00    +0.000 HD
ENDROOT
BRANCH   1  16
ATOM     13  C   UNL     1       6.912   4.640  16.319  0.00  0.00    +0.000 C 
ATOM     14  N   UNL     1       6.080   5.612  17.006  0.00  0.00    +0.000 N 
ATOM     15  C   UNL     1       6.786   6.696  17.680  0.00  0.00    +0.000 C 
ATOM     16  C   UNL     1       4.712   5.325  17.097  0.00  0.00    +0.000 C 
ATOM     17  O   UNL     1       4.271   4.266  16.649  0.00  0.00    +0.000 OA
ENDBRANCH   1  16
BRANCH  11  18
ATOM     18  C   UNL     1       3.366   5.111  19.994  0.00  0.00    +0.000 C 
BRANCH  18  19
ATOM     19  C   UNL     1       2.520   3.865  19.738  0.00  0.00    +0.000 C 
BRANCH  19  20
ATOM     20  C   UNL     1       1.762   3.381  20.951  0.00  0.00    +0.000 C 
ATOM     21  O   UNL     1       2.199   3.291  22.087  0.00  0.00    +0.000 OA
BRANCH  20  22
ATOM     22  O   UNL     1       0.481   3.054  20.649  0.00  0.00    +0.000 OA
ATOM     23  H   UNL     1      -0.176   3.656  21.048  0.00  0.00    +0.000 HD
ENDBRANCH  20  22
ENDBRANCH  19  20
ENDBRANCH  18  19
ENDBRANCH  11  18
TORSDOF 5
ENDMDL
MODEL 9
REMARK VINA RESULT:      -6.7      3.213      5.131
REMARK  Name = 
REMARK  7 active torsions:
REMARK  status: ('A' for Active; 'I' for Inactive)
REMARK    1  A    between atoms: C_1  and  N_2
REMARK    2  A    between atoms: N_2  and  C_3
REMARK    3  A    between atoms: C_4  and  C_6
REMARK    4  A    between atoms: C_16  and  C_17
REMARK    5  A    between atoms: C_17  and  C_18
REMARK    6  A    between atoms: C_18  and  C_19
REMARK    7  A    between atoms: C_19  and  O_21
REMARK                            x       y       z     vdW  Elec       q    Type
REMARK                         _______ _______ _______ _____ _____    ______ ____
ROOT
ATOM      1  C   UNL     1       3.121   6.503  18.619  0.00  0.00    +0.000 A 
ATOM      2  N   UNL     1       2.955   7.610  17.832  0.00  0.00    +0.000 N 
ATOM      3  C   UNL     1       2.237   8.583  18.469  0.00  0.00    +0.000 A 
ATOM      4  C   UNL     1       1.956   9.886  18.040  0.00  0.00    +0.000 A 
ATOM      5  C   UNL     1       1.139  10.679  18.844  0.00  0.00    +0.000 A 
ATOM      6 CL   UNL     1       0.772  12.285  18.341  0.00  0.00    +0.000 Cl
ATOM      7  C   UNL     1       0.606  10.188  20.024  0.00  0.00    +0.000 A 
ATOM      8  C   UNL     1       0.918   8.886  20.435  0.00  0.00    +0.000 A 
ATOM      9 CL   UNL     1       0.211   8.285  21.870  0.00  0.00    +0.000 Cl
ATOM     10  C   UNL     1       1.772   8.041  19.676  0.00  0.00    +0.000 A 
ATOM     11  C   UNL     1       2.350   6.710  19.772  0.00  0.00    +0.000 A 
ATOM     12  H   UNL     1       3.348   7.713  16.909  0.00  0.00    +0.000 HD
ENDROOT
BRANCH   1  16
ATOM     13  C   UNL     1       3.996   3.059  17.362  0.00  0.00    +0.000 C 
ATOM     14  N   UNL     1       3.197   4.218  17.719  0.00  0.00    +0.000 N 
ATOM     15  C   UNL     1       1.785   4.157  17.361  0.00  0.00    +0.000 C 
ATOM     16  C   UNL     1       3.885   5.335  18.212  0.00  0.00    +0.000 C 
ATOM     17  O   UNL     1       5.115   5.323  18.282  0.00  0.00    +0.000 OA
ENDBRANCH   1  16
BRANCH  11  18
ATOM     18  C   UNL     1       2.171   5.708  20.891  0.00  0.00    +0.000 C 
BRANCH  18  19
ATOM     19  C   UNL     1       1.161   4.590  20.642  0.00  0.00    +0.000 C 
BRANCH  19  20
ATOM     20  C   UNL     1       1.671   3.214  20.999  0.00  0.00    +0.000 C 
ATOM     21  O   UNL     1       1.669   2.233  20.273  0.00  0.00    +0.000 OA
BRANCH  20  22
ATOM     22  O   UNL     1       2.171   3.171  22.258  0.00  0.00    +0.000 OA
ATOM     23  H   UNL     1       3.049   3.590  22.340  0.00  0.00    +0.000 HD
ENDBRANCH  20  22
ENDBRANCH  19  20
ENDBRANCH  18  19
ENDBRANCH  11  18
TORSDOF 5
ENDMDL
