MODEL 1
REMARK VINA RESULT:      -7.4      0.000      0.000
REMARK  Name = 
REMARK  7 active torsions:
REMARK  status: ('A' for Active; 'I' for Inactive)
REMARK    1  A    between atoms: C_1  and  C_2
REMARK    2  A    between atoms: C_5  and  C_6
REMARK    3  A    between atoms: N_7  and  N_8
REMARK    4  A    between atoms: N_8  and  C_9
REMARK    5  A    between atoms: C_9  and  C_10
REMARK    6  A    between atoms: C_13  and  O_14
REMARK    7  A    between atoms: C_16  and  O_17
REMARK                            x       y       z     vdW  Elec       q    Type
REMARK                         _______ _______ _______ _____ _____    ______ ____
ROOT
ATOM      1  N   UNL     1       4.430   4.519  17.361  0.00  0.00    +0.000 N 
ATOM      2  H   UNL     1       5.071   4.501  18.163  0.00  0.00    +0.000 HD
ENDROOT
BRANCH   1   4
ATOM      3  C   UNL     1       3.432   6.128  18.526  0.00  0.00    +0.000 C 
ATOM      4  N   UNL     1       3.665   5.641  17.347  0.00  0.00    +0.000 NA
BRANCH   3   9
ATOM      5  C   UNL     1       0.354  10.973  19.303  0.00  0.00    +0.000 C 
ATOM      6  C   UNL     1       1.130   9.699  19.113  0.00  0.00    +0.000 A 
ATOM      7  C   UNL     1       1.748   9.447  17.878  0.00  0.00    +0.000 A 
ATOM      8  C   UNL     1       2.491   8.281  17.679  0.00  0.00    +0.000 A 
ATOM      9  C   UNL     1       2.625   7.353  18.712  0.00  0.00    +0.000 A 
ATOM     10  C   UNL     1       2.008   7.580  19.943  0.00  0.00    +0.000 A 
ATOM     11  C   UNL     1       1.265   8.748  20.140  0.00  0.00    +0.000 A 
ATOM     12 CL   UNL     1       0.532   8.986  21.686  0.00  0.00    +0.000 Cl
ENDBRANCH   3   9
ENDBRANCH   1   4
BRANCH   1  13
ATOM     13  C   UNL     1       3.696   3.246  17.392  0.00  0.00    +0.000 C 
BRANCH  13  14
ATOM     14  C   UNL     1       3.033   2.995  18.728  0.00  0.00    +0.000 A 
ATOM     15  C   UNL     1       1.632   3.024  18.836  0.00  0.00    +0.000 A 
ATOM     16  C   UNL     1       1.003   2.822  20.067  0.00  0.00    +0.000 A 
ATOM     17  C   UNL     1       1.776   2.589  21.199  0.00  0.00    +0.000 A 
ATOM     18  C   UNL     1       3.164   2.561  21.123  0.00  0.00    +0.000 A 
ATOM     19  C   UNL     1       3.783   2.765  19.890  0.00  0.00    +0.000 A 
BRANCH  17  20
ATOM     20  O   UNL     1       1.205   2.383  22.421  0.00  0.00    +0.000 OA
ATOM     21  H   UNL     1       0.331   2.808  22.430  0.00  0.00    +0.000 HD
ENDBRANCH  17  20
BRANCH  19  22
ATOM     22  O   UNL     1       5.149   2.738  19.801  0.00  0.00    +0.000 OA
ATOM     23  H   UNL     1       5.474   3.654  19.840  0.00  0.00    +0.000 HD
ENDBRANCH  19  22
ENDBRANCH  13  14
ENDBRANCH   1  13
TORSDOF 6
ENDMDL
MODEL 2
REMARK VINA RESULT:      -7.2      2.408      4.000
REMARK  Name = 
REMARK  7 active torsions:
REMARK  status: ('A' for Active; 'I' for Inactive)
REMARK    1  A    between atoms: C_1  and  C_2
REMARK    2  A    between atoms: C_5  and  C_6
REMARK    3  A    between atoms: N_7  and  N_8
REMARK    4  A    between atoms: N_8  and  C_9
REMARK    5  A    between atoms: C_9  and  C_10
REMARK    6  A    between atoms: C_13  and  O_14
REMARK    7  A    between atoms: C_16  and  O_17
REMARK                            x       y       z     vdW  Elec       q    Type
REMARK                         _______ _______ _______ _____ _____    ______ ____
ROOT
ATOM      1  N   UNL     1       3.779   4.267  19.598  0.00  0.00    +0.000 N 
ATOM      2  H   UNL     1       3.653   3.574  20.345  0.00  0.00    +0.000 HD
ENDROOT
BRANCH   1   4
ATOM      3  C   UNL     1       3.235   6.384  19.196  0.00  0.00    +0.000 C 
ATOM      4  N   UNL     1       2.827   5.235  19.637  0.00  0.00    +0.000 NA
BRANCH   3   9
ATOM      5  C   UNL     1      -0.199  11.047  19.061  0.00  0.00    +0.000 C 
ATOM      6  C   UNL     1       0.670   9.821  19.111  0.00  0.00    +0.000 A 
ATOM      7  C   UNL     1       1.316   9.388  17.943  0.00  0.00    +0.000 A 
ATOM      8  C   UNL     1       2.145   8.264  17.963  0.00  0.00    +0.000 A 
ATOM      9  C   UNL     1       2.338   7.559  19.152  0.00  0.00    +0.000 A 
ATOM     10  C   UNL     1       1.694   7.968  20.321  0.00  0.00    +0.000 A 
ATOM     11  C   UNL     1       0.866   9.094  20.298  0.00  0.00    +0.000 A 
ATOM     12 CL   UNL     1       0.104   9.565  21.776  0.00  0.00    +0.000 Cl
ENDBRANCH   3   9
ENDBRANCH   1   4
BRANCH   1  13
ATOM     13  C   UNL     1       3.866   3.508  18.343  0.00  0.00    +0.000 C 
BRANCH  13  14
ATOM     14  C   UNL     1       4.906   4.073  17.400  0.00  0.00    +0.000 A 
ATOM     15  C   UNL     1       4.632   4.163  16.023  0.00  0.00    +0.000 A 
ATOM     16  C   UNL     1       5.590   4.654  15.133  0.00  0.00    +0.000 A 
ATOM     17  C   UNL     1       6.829   5.059  15.617  0.00  0.00    +0.000 A 
ATOM     18  C   UNL     1       7.129   4.975  16.972  0.00  0.00    +0.000 A 
ATOM     19  C   UNL     1       6.168   4.481  17.853  0.00  0.00    +0.000 A 
BRANCH  17  20
ATOM     20  O   UNL     1       7.793   5.549  14.785  0.00  0.00    +0.000 OA
ATOM     21  H   UNL     1       7.753   6.519  14.802  0.00  0.00    +0.000 HD
ENDBRANCH  17  20
BRANCH  19  22
ATOM     22  O   UNL     1       6.449   4.395  19.191  0.00  0.00    +0.000 OA
ATOM     23  H   UNL     1       6.496   5.298  19.550  0.00  0.00    +0.000 HD
ENDBRANCH  19  22
ENDBRANCH  13  14
ENDBRANCH   1  13
TORSDOF 6
ENDMDL
MODEL 3
REMARK VINA RESULT:      -7.1      1.133      1.565
REMARK  Name = 
REMARK  7 active torsions:
REMARK  status: ('A' for Active; 'I' for Inactive)
REMARK    1  A    between atoms: C_1  and  C_2
REMARK    2  A    between atoms: C_5  and  C_6
REMARK    3  A    between atoms: N_7  and  N_8
REMARK    4  A    between atoms: N_8  and  C_9
REMARK    5  A    between atoms: C_9  and  C_10
REMARK    6  A    between atoms: C_13  and  O_14
REMARK    7  A    between atoms: C_16  and  O_17
REMARK                            x       y       z     vdW  Elec       q    Type
REMARK                         _______ _______ _______ _____ _____    ______ ____
ROOT
ATOM      1  N   UNL     1       4.011   4.718  17.193  0.00  0.00    +0.000 N 
ATOM      2  H   UNL     1       4.926   4.985  17.576  0.00  0.00    +0.000 HD
ENDROOT
BRANCH   1   4
ATOM      3  C   UNL     1       3.450   6.698  18.030  0.00  0.00    +0.000 C 
ATOM      4  N   UNL     1       3.022   5.549  17.610  0.00  0.00    +0.000 NA
BRANCH   3   9
ATOM      5  C   UNL     1      -0.111  10.832  19.976  0.00  0.00    +0.000 C 
ATOM      6  C   UNL     1       0.794   9.738  19.483  0.00  0.00    +0.000 A 
ATOM      7  C   UNL     1       1.241   9.761  18.153  0.00  0.00    +0.000 A 
ATOM      8  C   UNL     1       2.098   8.769  17.672  0.00  0.00    +0.000 A 
ATOM      9  C   UNL     1       2.520   7.740  18.516  0.00  0.00    +0.000 A 
ATOM     10  C   UNL     1       2.077   7.693  19.838  0.00  0.00    +0.000 A 
ATOM     11  C   UNL     1       1.219   8.689  20.317  0.00  0.00    +0.000 A 
ATOM     12 CL   UNL     1       0.711   8.590  21.966  0.00  0.00    +0.000 Cl
ENDBRANCH   3   9
ENDBRANCH   1   4
BRANCH   1  13
ATOM     13  C   UNL     1       3.830   3.296  17.516  0.00  0.00    +0.000 C 
BRANCH  13  14
ATOM     14  C   UNL     1       3.100   3.090  18.825  0.00  0.00    +0.000 A 
ATOM     15  C   UNL     1       3.821   2.782  19.992  0.00  0.00    +0.000 A 
ATOM     16  C   UNL     1       3.161   2.560  21.204  0.00  0.00    +0.000 A 
ATOM     17  C   UNL     1       1.775   2.647  21.254  0.00  0.00    +0.000 A 
ATOM     18  C   UNL     1       1.037   2.945  20.114  0.00  0.00    +0.000 A 
ATOM     19  C   UNL     1       1.702   3.162  18.908  0.00  0.00    +0.000 A 
BRANCH  17  20
ATOM     20  O   UNL     1       1.090   2.443  22.416  0.00  0.00    +0.000 OA
ATOM     21  H   UNL     1       0.228   2.049  22.202  0.00  0.00    +0.000 HD
ENDBRANCH  17  20
BRANCH  19  22
ATOM     22  O   UNL     1       0.987   3.458  17.778  0.00  0.00    +0.000 OA
ATOM     23  H   UNL     1       0.397   2.708  17.587  0.00  0.00    +0.000 HD
ENDBRANCH  19  22
ENDBRANCH  13  14
ENDBRANCH   1  13
TORSDOF 6
ENDMDL
MODEL 4
REMARK VINA RESULT:      -7.1      6.794      7.475
REMARK  Name = 
REMARK  7 active torsions:
REMARK  status: ('A' for Active; 'I' for Inactive)
REMARK    1  A    between atoms: C_1  and  C_2
REMARK    2  A    between atoms: C_5  and  C_6
REMARK    3  A    between atoms: N_7  and  N_8
REMARK    4  A    between atoms: N_8  and  C_9
REMARK    5  A    between atoms: C_9  and  C_10
REMARK    6  A    between atoms: C_13  and  O_14
REMARK    7  A    between atoms: C_16  and  O_17
REMARK                            x       y       z     vdW  Elec       q    Type
REMARK                         _______ _______ _______ _____ _____    ______ ____
ROOT
ATOM      1  N   UNL     1       7.721   8.222  17.341  0.00  0.00    +0.000 N 
ATOM      2  H   UNL     1       8.279   8.035  16.500  0.00  0.00    +0.000 HD
ENDROOT
BRANCH   1   4
ATOM      3  C   UNL     1       9.023   9.507  18.603  0.00  0.00    +0.000 C 
ATOM      4  N   UNL     1       7.968   9.455  17.852  0.00  0.00    +0.000 NA
BRANCH   3   9
ATOM      5  C   UNL     1      10.640  14.490  21.075  0.00  0.00    +0.000 C 
ATOM      6  C   UNL     1      10.247  13.195  20.419  0.00  0.00    +0.000 A 
ATOM      7  C   UNL     1       9.672  12.178  21.196  0.00  0.00    +0.000 A 
ATOM      8  C   UNL     1       9.280  10.971  20.611  0.00  0.00    +0.000 A 
ATOM      9  C   UNL     1       9.459  10.767  19.242  0.00  0.00    +0.000 A 
ATOM     10  C   UNL     1      10.040  11.763  18.456  0.00  0.00    +0.000 A 
ATOM     11  C   UNL     1      10.430  12.970  19.044  0.00  0.00    +0.000 A 
ATOM     12 CL   UNL     1      11.133  14.174  18.022  0.00  0.00    +0.000 Cl
ENDBRANCH   3   9
ENDBRANCH   1   4
BRANCH   1  13
ATOM     13  C   UNL     1       7.960   7.094  18.252  0.00  0.00    +0.000 C 
BRANCH  13  14
ATOM     14  C   UNL     1       6.979   5.962  18.038  0.00  0.00    +0.000 A 
ATOM     15  C   UNL     1       6.230   5.465  19.120  0.00  0.00    +0.000 A 
ATOM     16  C   UNL     1       5.341   4.402  18.947  0.00  0.00    +0.000 A 
ATOM     17  C   UNL     1       5.195   3.830  17.688  0.00  0.00    +0.000 A 
ATOM     18  C   UNL     1       5.927   4.297  16.602  0.00  0.00    +0.000 A 
ATOM     19  C   UNL     1       6.814   5.357  16.784  0.00  0.00    +0.000 A 
BRANCH  17  20
ATOM     20  O   UNL     1       4.336   2.793  17.473  0.00  0.00    +0.000 OA
ATOM     21  H   UNL     1       4.791   1.963  17.692  0.00  0.00    +0.000 HD
ENDBRANCH  17  20
BRANCH  19  22
ATOM     22  O   UNL     1       7.540   5.829  15.723  0.00  0.00    +0.000 OA
ATOM     23  H   UNL     1       7.246   6.737  15.533  0.00  0.00    +0.000 HD
ENDBRANCH  19  22
ENDBRANCH  13  14
ENDBRANCH   1  13
TORSDOF 6
ENDMDL
MODEL 5
REMARK VINA RESULT:      -7.1      6.374      6.989
REMARK  Name = 
REMARK  7 active torsions:
REMARK  status: ('A' for Active; 'I' for Inactive)
REMARK    1  A    between atoms: C_1  and  C_2
REMARK    2  A    between atoms: C_5  and  C_6
REMARK    3  A    between atoms: N_7  and  N_8
REMARK    4  A    between atoms: N_8  and  C_9
REMARK    5  A    between atoms: C_9  and  C_10
REMARK    6  A    between atoms: C_13  and  O_14
REMARK    7  A    between atoms: C_16  and  O_17
REMARK                            x       y       z     vdW  Elec       q    Type
REMARK                         _______ _______ _______ _____ _____    ______ ____
ROOT
ATOM      1  N   UNL     1       7.058   7.395  17.300  0.00  0.00    +0.000 N 
ATOM      2  H   UNL     1       6.756   7.840  16.425  0.00  0.00    +0.000 HD
ENDROOT
BRANCH   1   4
ATOM      3  C   UNL     1       7.995   9.349  17.790  0.00  0.00    +0.000 C 
ATOM      4  N   UNL     1       8.089   8.060  17.880  0.00  0.00    +0.000 NA
BRANCH   3   9
ATOM      5  C   UNL     1      11.939  12.933  20.058  0.00  0.00    +0.000 C 
ATOM      6  C   UNL     1      10.936  11.994  19.448  0.00  0.00    +0.000 A 
ATOM      7  C   UNL     1      10.189  11.149  20.284  0.00  0.00    +0.000 A 
ATOM      8  C   UNL     1       9.236  10.279  19.748  0.00  0.00    +0.000 A 
ATOM      9  C   UNL     1       9.019  10.244  18.369  0.00  0.00    +0.000 A 
ATOM     10  C   UNL     1       9.761  11.068  17.522  0.00  0.00    +0.000 A 
ATOM     11  C   UNL     1      10.713  11.938  18.061  0.00  0.00    +0.000 A 
ATOM     12 CL   UNL     1      11.595  12.946  16.969  0.00  0.00    +0.000 Cl
ENDBRANCH   3   9
ENDBRANCH   1   4
BRANCH   1  13
ATOM     13  C   UNL     1       7.307   5.983  16.980  0.00  0.00    +0.000 C 
BRANCH  13  14
ATOM     14  C   UNL     1       6.199   5.076  17.466  0.00  0.00    +0.000 A 
ATOM     15  C   UNL     1       5.332   4.466  16.543  0.00  0.00    +0.000 A 
ATOM     16  C   UNL     1       4.284   3.649  16.975  0.00  0.00    +0.000 A 
ATOM     17  C   UNL     1       4.099   3.437  18.336  0.00  0.00    +0.000 A 
ATOM     18  C   UNL     1       4.938   4.032  19.272  0.00  0.00    +0.000 A 
ATOM     19  C   UNL     1       5.979   4.848  18.832  0.00  0.00    +0.000 A 
BRANCH  17  20
ATOM     20  O   UNL     1       3.092   2.644  18.803  0.00  0.00    +0.000 OA
ATOM     21  H   UNL     1       2.880   2.916  19.712  0.00  0.00    +0.000 HD
ENDBRANCH  17  20
BRANCH  19  22
ATOM     22  O   UNL     1       6.814   5.439  19.743  0.00  0.00    +0.000 OA
ATOM     23  H   UNL     1       7.410   4.756  20.096  0.00  0.00    +0.000 HD
ENDBRANCH  19  22
ENDBRANCH  13  14
ENDBRANCH   1  13
TORSDOF 6
ENDMDL
MODEL 6
REMARK VINA RESULT:      -7.0      1.278      1.764
REMARK  Name = 
REMARK  7 active torsions:
REMARK  status: ('A' for Active; 'I' for Inactive)
REMARK    1  A    between atoms: C_1  and  C_2
REMARK    2  A    between atoms: C_5  and  C_6
REMARK    3  A    between atoms: N_7  and  N_8
REMARK    4  A    between atoms: N_8  and  C_9
REMARK    5  A    between atoms: C_9  and  C_10
REMARK    6  A    between atoms: C_13  and  O_14
REMARK    7  A    between atoms: C_16  and  O_17
REMARK                            x       y       z     vdW  Elec       q    Type
REMARK                         _______ _______ _______ _____ _____    ______ ____
ROOT
ATOM      1  N   UNL     1       3.952   5.571  17.373  0.00  0.00    +0.000 N 
ATOM      2  H   UNL     1       4.978   5.591  17.395  0.00  0.00    +0.000 HD
ENDROOT
BRANCH   1   4
ATOM      3  C   UNL     1       2.679   7.288  17.984  0.00  0.00    +0.000 C 
ATOM      4  N   UNL     1       3.407   6.293  18.385  0.00  0.00    +0.000 NA
BRANCH   3   9
ATOM      5  C   UNL     1      -0.091  10.765  21.697  0.00  0.00    +0.000 C 
ATOM      6  C   UNL     1       0.646   9.886  20.725  0.00  0.00    +0.000 A 
ATOM      7  C   UNL     1       1.121   8.636  21.151  0.00  0.00    +0.000 A 
ATOM      8  C   UNL     1       1.792   7.790  20.264  0.00  0.00    +0.000 A 
ATOM      9  C   UNL     1       1.996   8.184  18.941  0.00  0.00    +0.000 A 
ATOM     10  C   UNL     1       1.542   9.428  18.503  0.00  0.00    +0.000 A 
ATOM     11  C   UNL     1       0.869  10.273  19.392  0.00  0.00    +0.000 A 
ATOM     12 CL   UNL     1       0.316  11.797  18.794  0.00  0.00    +0.000 Cl
ENDBRANCH   3   9
ENDBRANCH   1   4
BRANCH   1  13
ATOM     13  C   UNL     1       3.568   4.154  17.320  0.00  0.00    +0.000 C 
BRANCH  13  14
ATOM     14  C   UNL     1       2.967   3.671  18.621  0.00  0.00    +0.000 A 
ATOM     15  C   UNL     1       1.586   3.802  18.850  0.00  0.00    +0.000 A 
ATOM     16  C   UNL     1       1.017   3.387  20.057  0.00  0.00    +0.000 A 
ATOM     17  C   UNL     1       1.829   2.839  21.043  0.00  0.00    +0.000 A 
ATOM     18  C   UNL     1       3.199   2.702  20.846  0.00  0.00    +0.000 A 
ATOM     19  C   UNL     1       3.758   3.121  19.639  0.00  0.00    +0.000 A 
BRANCH  17  20
ATOM     20  O   UNL     1       1.317   2.417  22.235  0.00  0.00    +0.000 OA
ATOM     21  H   UNL     1       0.465   1.980  22.068  0.00  0.00    +0.000 HD
ENDBRANCH  17  20
BRANCH  19  22
ATOM     22  O   UNL     1       5.106   2.991  19.431  0.00  0.00    +0.000 OA
ATOM     23  H   UNL     1       5.425   2.244  19.966  0.00  0.00    +0.000 HD
ENDBRANCH  19  22
ENDBRANCH  13  14
ENDBRANCH   1  13
TORSDOF 6
ENDMDL
MODEL 7
REMARK VINA RESULT:      -7.0      6.642      7.288
REMARK  Name = 
REMARK  7 active torsions:
REMARK  status: ('A' for Active; 'I' for Inactive)
REMARK    1  A    between atoms: C_1  and  C_2
REMARK    2  A    between atoms: C_5  and  C_6
REMARK    3  A    between atoms: N_7  and  N_8
REMARK    4  A    between atoms: N_8  and  C_9
REMARK    5  A    between atoms: C_9  and  C_10
REMARK    6  A    between atoms: C_13  and  O_14
REMARK    7  A    between atoms: C_16  and  O_17
REMARK                            x       y       z     vdW  Elec       q    Type
REMARK                         _______ _______ _______ _____ _____    ______ ____
ROOT
ATOM      1  N   UNL     1       7.800   7.229  18.047  0.00  0.00    +0.000 N 
ATOM      2  H   UNL     1       8.013   7.066  17.055  0.00  0.00    +0.000 HD
ENDROOT
BRANCH   1   4
ATOM      3  C   UNL     1       8.463   9.346  18.169  0.00  0.00    +0.000 C 
ATOM      4  N   UNL     1       8.639   8.138  18.605  0.00  0.00    +0.000 NA
BRANCH   3   9
ATOM      5  C   UNL     1      11.571  13.836  20.102  0.00  0.00    +0.000 C 
ATOM      6  C   UNL     1      10.788  12.662  19.582  0.00  0.00    +0.000 A 
ATOM      7  C   UNL     1      10.140  11.811  20.490  0.00  0.00    +0.000 A 
ATOM      8  C   UNL     1       9.389  10.724  20.036  0.00  0.00    +0.000 A 
ATOM      9  C   UNL     1       9.277  10.475  18.667  0.00  0.00    +0.000 A 
ATOM     10  C   UNL     1       9.924  11.304  17.749  0.00  0.00    +0.000 A 
ATOM     11  C   UNL     1      10.674  12.392  18.207  0.00  0.00    +0.000 A 
ATOM     12 CL   UNL     1      11.444  13.393  17.028  0.00  0.00    +0.000 Cl
ENDBRANCH   3   9
ENDBRANCH   1   4
BRANCH   1  13
ATOM     13  C   UNL     1       7.776   5.905  18.685  0.00  0.00    +0.000 C 
BRANCH  13  14
ATOM     14  C   UNL     1       6.559   5.097  18.291  0.00  0.00    +0.000 A 
ATOM     15  C   UNL     1       5.538   4.860  19.228  0.00  0.00    +0.000 A 
ATOM     16  C   UNL     1       4.421   4.092  18.892  0.00  0.00    +0.000 A 
ATOM     17  C   UNL     1       4.319   3.557  17.613  0.00  0.00    +0.000 A 
ATOM     18  C   UNL     1       5.316   3.771  16.668  0.00  0.00    +0.000 A 
ATOM     19  C   UNL     1       6.429   4.537  17.013  0.00  0.00    +0.000 A 
BRANCH  17  20
ATOM     20  O   UNL     1       3.244   2.805  17.239  0.00  0.00    +0.000 OA
ATOM     21  H   UNL     1       3.027   3.012  16.315  0.00  0.00    +0.000 HD
ENDBRANCH  17  20
BRANCH  19  22
ATOM     22  O   UNL     1       7.418   4.757  16.091  0.00  0.00    +0.000 OA
ATOM     23  H   UNL     1       7.881   5.578  16.333  0.00  0.00    +0.000 HD
ENDBRANCH  19  22
ENDBRANCH  13  14
ENDBRANCH   1  13
TORSDOF 6
ENDMDL
MODEL 8
REMARK VINA RESULT:      -7.0      3.198      4.423
REMARK  Name = 
REMARK  7 active torsions:
REMARK  status: ('A' for Active; 'I' for Inactive)
REMARK    1  A    between atoms: C_1  and  C_2
REMARK    2  A    between atoms: C_5  and  C_6
REMARK    3  A    between atoms: N_7  and  N_8
REMARK    4  A    between atoms: N_8  and  C_9
REMARK    5  A    between atoms: C_9  and  C_10
REMARK    6  A    between atoms: C_13  and  O_14
REMARK    7  A    between atoms: C_16  and  O_17
REMARK                            x       y       z     vdW  Elec       q    Type
REMARK                         _______ _______ _______ _____ _____    ______ ____
ROOT
ATOM      1  N   UNL     1       3.758   4.288  17.737  0.00  0.00    +0.000 N 
ATOM      2  H   UNL     1       3.191   3.496  17.414  0.00  0.00    +0.000 HD
ENDROOT
BRANCH   1   4
ATOM      3  C   UNL     1       3.015   6.051  18.869  0.00  0.00    +0.000 C 
ATOM      4  N   UNL     1       3.060   5.453  17.720  0.00  0.00    +0.000 NA
BRANCH   3   9
ATOM      5  C   UNL     1       0.333  11.132  19.601  0.00  0.00    +0.000 C 
ATOM      6  C   UNL     1       1.006   9.799  19.425  0.00  0.00    +0.000 A 
ATOM      7  C   UNL     1       1.524   9.451  18.169  0.00  0.00    +0.000 A 
ATOM      8  C   UNL     1       2.171   8.227  17.979  0.00  0.00    +0.000 A 
ATOM      9  C   UNL     1       2.308   7.337  19.046  0.00  0.00    +0.000 A 
ATOM     10  C   UNL     1       1.789   7.661  20.300  0.00  0.00    +0.000 A 
ATOM     11  C   UNL     1       1.142   8.887  20.486  0.00  0.00    +0.000 A 
ATOM     12 CL   UNL     1       0.529   9.244  22.062  0.00  0.00    +0.000 Cl
ENDBRANCH   3   9
ENDBRANCH   1   4
BRANCH   1  13
ATOM     13  C   UNL     1       4.989   4.269  16.935  0.00  0.00    +0.000 C 
BRANCH  13  14
ATOM     14  C   UNL     1       6.018   5.258  17.435  0.00  0.00    +0.000 A 
ATOM     15  C   UNL     1       6.834   4.930  18.533  0.00  0.00    +0.000 A 
ATOM     16  C   UNL     1       7.770   5.841  19.027  0.00  0.00    +0.000 A 
ATOM     17  C   UNL     1       7.896   7.088  18.424  0.00  0.00    +0.000 A 
ATOM     18  C   UNL     1       7.098   7.441  17.342  0.00  0.00    +0.000 A 
ATOM     19  C   UNL     1       6.164   6.526  16.856  0.00  0.00    +0.000 A 
BRANCH  17  20
ATOM     20  O   UNL     1       8.799   8.007  18.871  0.00  0.00    +0.000 OA
ATOM     21  H   UNL     1       9.694   7.660  18.722  0.00  0.00    +0.000 HD
ENDBRANCH  17  20
BRANCH  19  22
ATOM     22  O   UNL     1       5.374   6.860  15.789  0.00  0.00    +0.000 OA
ATOM     23  H   UNL     1       4.517   7.172  16.131  0.00  0.00    +0.000 HD
ENDBRANCH  19  22
ENDBRANCH  13  14
ENDBRANCH   1  13
TORSDOF 6
ENDMDL
MODEL 9
REMARK VINA RESULT:      -6.9      5.524      6.077
REMARK  Name = 
REMARK  7 active torsions:
REMARK  status: ('A' for Active; 'I' for Inactive)
REMARK    1  A    between atoms: C_1  and  C_2
REMARK    2  A    between atoms: C_5  and  C_6
REMARK    3  A    between atoms: N_7  and  N_8
REMARK    4  A    between atoms: N_8  and  C_9
REMARK    5  A    between atoms: C_9  and  C_10
REMARK    6  A    between atoms: C_13  and  O_14
REMARK    7  A    between atoms: C_16  and  O_17
REMARK                            x       y       z     vdW  Elec       q    Type
REMARK                         _______ _______ _______ _____ _____    ______ ____
ROOT
ATOM      1  N   UNL     1       7.445   6.642  16.996  0.00  0.00    +0.000 N 
ATOM      2  H   UNL     1       7.580   6.186  17.906  0.00  0.00    +0.000 HD
ENDROOT
BRANCH   1   4
ATOM      3  C   UNL     1       8.319   8.386  18.060  0.00  0.00    +0.000 C 
ATOM      4  N   UNL     1       7.568   7.991  17.080  0.00  0.00    +0.000 NA
BRANCH   3   9
ATOM      5  C   UNL     1       9.434  13.995  18.981  0.00  0.00    +0.000 C 
ATOM      6  C   UNL     1       9.136  12.537  18.771  0.00  0.00    +0.000 A 
ATOM      7  C   UNL     1       8.355  12.145  17.674  0.00  0.00    +0.000 A 
ATOM      8  C   UNL     1       8.078  10.795  17.443  0.00  0.00    +0.000 A 
ATOM      9  C   UNL     1       8.580   9.820  18.307  0.00  0.00    +0.000 A 
ATOM     10  C   UNL     1       9.349  10.192  19.410  0.00  0.00    +0.000 A 
ATOM     11  C   UNL     1       9.625  11.544  19.638  0.00  0.00    +0.000 A 
ATOM     12 CL   UNL     1      10.593  11.948  21.012  0.00  0.00    +0.000 Cl
ENDBRANCH   3   9
ENDBRANCH   1   4
BRANCH   1  13
ATOM     13  C   UNL     1       6.163   6.149  16.475  0.00  0.00    +0.000 C 
BRANCH  13  14
ATOM     14  C   UNL     1       5.105   6.043  17.551  0.00  0.00    +0.000 A 
ATOM     15  C   UNL     1       4.020   6.937  17.563  0.00  0.00    +0.000 A 
ATOM     16  C   UNL     1       3.049   6.872  18.565  0.00  0.00    +0.000 A 
ATOM     17  C   UNL     1       3.160   5.910  19.563  0.00  0.00    +0.000 A 
ATOM     18  C   UNL     1       4.225   5.017  19.580  0.00  0.00    +0.000 A 
ATOM     19  C   UNL     1       5.191   5.090  18.576  0.00  0.00    +0.000 A 
BRANCH  17  20
ATOM     20  O   UNL     1       2.233   5.808  20.559  0.00  0.00    +0.000 OA
ATOM     21  H   UNL     1       1.920   6.700  20.783  0.00  0.00    +0.000 HD
ENDBRANCH  17  20
BRANCH  19  22
ATOM     22  O   UNL     1       6.245   4.216  18.580  0.00  0.00    +0.000 OA
ATOM     23  H   UNL     1       6.350   3.864  17.678  0.00  0.00    +0.000 HD
ENDBRANCH  19  22
ENDBRANCH  13  14
ENDBRANCH   1  13
TORSDOF 6
ENDMDL
