MODEL 1
REMARK VINA RESULT:      -5.1      0.000      0.000
REMARK  Name = 
REMARK  0 active torsions:
REMARK  status: ('A' for Active; 'I' for Inactive)
REMARK                            x       y       z     vdW  Elec       q    Type
REMARK                         _______ _______ _______ _____ _____    ______ ____
ROOT
ATOM      1  C   UNL     1       5.594   4.557  18.608  0.00  0.00    +0.000 A 
ATOM      2  C   UNL     1       4.896   5.739  18.445  0.00  0.00    +0.000 A 
ATOM      3  N   UNL     1       3.664   5.930  18.960  0.00  0.00    +0.000 NA
ATOM      4  C   UNL     1       3.142   4.883  19.653  0.00  0.00    +0.000 A 
ATOM      5  C   UNL     1       3.858   3.694  19.837  0.00  0.00    +0.000 A 
ATOM      6  N   UNL     1       5.093   3.511  19.302  0.00  0.00    +0.000 NA
ATOM      7  C   UNL     1       3.267   2.527  20.581  0.00  0.00    +0.000 C 
ATOM      8  C   UNL     1       2.089   2.918  21.468  0.00  0.00    +0.000 C 
ATOM      9  C   UNL     1       1.112   3.788  20.687  0.00  0.00    +0.000 C 
ATOM     10  C   UNL     1       1.788   5.093  20.271  0.00  0.00    +0.000 C 
ENDROOT
TORSDOF 0
ENDMDL
MODEL 2
REMARK VINA RESULT:      -5.1      0.054      2.149
REMARK  Name = 
REMARK  0 active torsions:
REMARK  status: ('A' for Active; 'I' for Inactive)
REMARK                            x       y       z     vdW  Elec       q    Type
REMARK                         _______ _______ _______ _____ _____    ______ ____
ROOT
ATOM      1  C   UNL     1       4.919   5.680  18.382  0.00  0.00    +0.000 A 
ATOM      2  C   UNL     1       5.600   4.492  18.567  0.00  0.00    +0.000 A 
ATOM      3  N   UNL     1       5.093   3.471  19.288  0.00  0.00    +0.000 NA
ATOM      4  C   UNL     1       3.863   3.681  19.829  0.00  0.00    +0.000 A 
ATOM      5  C   UNL     1       3.164   4.876  19.623  0.00  0.00    +0.000 A 
ATOM      6  N   UNL     1       3.693   5.901  18.904  0.00  0.00    +0.000 NA
ATOM      7  C   UNL     1       1.815   5.116  20.245  0.00  0.00    +0.000 C 
ATOM      8  C   UNL     1       1.124   3.829  20.688  0.00  0.00    +0.000 C 
ATOM      9  C   UNL     1       2.093   2.962  21.483  0.00  0.00    +0.000 C 
ATOM     10  C   UNL     1       3.264   2.538  20.600  0.00  0.00    +0.000 C 
ENDROOT
TORSDOF 0
ENDMDL
MODEL 3
REMARK VINA RESULT:      -5.0      1.454      1.494
REMARK  Name = 
REMARK  0 active torsions:
REMARK  status: ('A' for Active; 'I' for Inactive)
REMARK                            x       y       z     vdW  Elec       q    Type
REMARK                         _______ _______ _______ _____ _____    ______ ____
ROOT
ATOM      1  C   UNL     1       5.750   4.547  18.518  0.00  0.00    +0.000 A 
ATOM      2  C   UNL     1       5.077   5.202  17.504  0.00  0.00    +0.000 A 
ATOM      3  N   UNL     1       3.754   5.041  17.291  0.00  0.00    +0.000 NA
ATOM      4  C   UNL     1       3.118   4.188  18.137  0.00  0.00    +0.000 A 
ATOM      5  C   UNL     1       3.796   3.542  19.177  0.00  0.00    +0.000 A 
ATOM      6  N   UNL     1       5.130   3.705  19.373  0.00  0.00    +0.000 NA
ATOM      7  C   UNL     1       3.094   2.577  20.095  0.00  0.00    +0.000 C 
ATOM      8  C   UNL     1       1.576   2.737  20.082  0.00  0.00    +0.000 C 
ATOM      9  C   UNL     1       1.068   2.799  18.646  0.00  0.00    +0.000 C 
ATOM     10  C   UNL     1       1.636   4.029  17.941  0.00  0.00    +0.000 C 
ENDROOT
TORSDOF 0
ENDMDL
MODEL 4
REMARK VINA RESULT:      -5.0      1.511      1.682
REMARK  Name = 
REMARK  0 active torsions:
REMARK  status: ('A' for Active; 'I' for Inactive)
REMARK                            x       y       z     vdW  Elec       q    Type
REMARK                         _______ _______ _______ _____ _____    ______ ____
ROOT
ATOM      1  C   UNL     1       4.872   4.056  17.301  0.00  0.00    +0.000 A 
ATOM      2  C   UNL     1       5.290   4.843  18.358  0.00  0.00    +0.000 A 
ATOM      3  N   UNL     1       4.521   5.061  19.446  0.00  0.00    +0.000 NA
ATOM      4  C   UNL     1       3.303   4.459  19.441  0.00  0.00    +0.000 A 
ATOM      5  C   UNL     1       2.889   3.644  18.379  0.00  0.00    +0.000 A 
ATOM      6  N   UNL     1       3.669   3.443  17.285  0.00  0.00    +0.000 NA
ATOM      7  C   UNL     1       1.529   3.002  18.364  0.00  0.00    +0.000 C 
ATOM      8  C   UNL     1       0.883   2.936  19.745  0.00  0.00    +0.000 C 
ATOM      9  C   UNL     1       0.985   4.291  20.435  0.00  0.00    +0.000 C 
ATOM     10  C   UNL     1       2.450   4.655  20.663  0.00  0.00    +0.000 C 
ENDROOT
TORSDOF 0
ENDMDL
MODEL 5
REMARK VINA RESULT:      -5.0      1.546      1.964
REMARK  Name = 
REMARK  0 active torsions:
REMARK  status: ('A' for Active; 'I' for Inactive)
REMARK                            x       y       z     vdW  Elec       q    Type
REMARK                         _______ _______ _______ _____ _____    ______ ____
ROOT
ATOM      1  C   UNL     1       5.112   5.351  18.307  0.00  0.00    +0.000 A 
ATOM      2  C   UNL     1       4.709   4.672  17.172  0.00  0.00    +0.000 A 
ATOM      3  N   UNL     1       3.557   3.972  17.119  0.00  0.00    +0.000 NA
ATOM      4  C   UNL     1       2.811   3.971  18.255  0.00  0.00    +0.000 A 
ATOM      5  C   UNL     1       3.209   4.677  19.396  0.00  0.00    +0.000 A 
ATOM      6  N   UNL     1       4.377   5.368  19.440  0.00  0.00    +0.000 NA
ATOM      7  C   UNL     1       2.394   4.651  20.661  0.00  0.00    +0.000 C 
ATOM      8  C   UNL     1       0.951   4.209  20.435  0.00  0.00    +0.000 C 
ATOM      9  C   UNL     1       0.918   2.947  19.581  0.00  0.00    +0.000 C 
ATOM     10  C   UNL     1       1.503   3.231  18.200  0.00  0.00    +0.000 C 
ENDROOT
TORSDOF 0
ENDMDL
MODEL 6
REMARK VINA RESULT:      -5.0      1.412      2.419
REMARK  Name = 
REMARK  0 active torsions:
REMARK  status: ('A' for Active; 'I' for Inactive)
REMARK                            x       y       z     vdW  Elec       q    Type
REMARK                         _______ _______ _______ _____ _____    ______ ____
ROOT
ATOM      1  C   UNL     1       5.070   5.523  17.700  0.00  0.00    +0.000 A 
ATOM      2  C   UNL     1       5.772   4.740  18.597  0.00  0.00    +0.000 A 
ATOM      3  N   UNL     1       5.185   3.767  19.324  0.00  0.00    +0.000 NA
ATOM      4  C   UNL     1       3.851   3.600  19.122  0.00  0.00    +0.000 A 
ATOM      5  C   UNL     1       3.144   4.378  18.197  0.00  0.00    +0.000 A 
ATOM      6  N   UNL     1       3.747   5.363  17.481  0.00  0.00    +0.000 NA
ATOM      7  C   UNL     1       1.663   4.209  17.996  0.00  0.00    +0.000 C 
ATOM      8  C   UNL     1       1.138   2.871  18.510  0.00  0.00    +0.000 C 
ATOM      9  C   UNL     1       1.666   2.607  19.915  0.00  0.00    +0.000 C 
ATOM     10  C   UNL     1       3.188   2.491  19.891  0.00  0.00    +0.000 C 
ENDROOT
TORSDOF 0
ENDMDL
MODEL 7
REMARK VINA RESULT:      -4.9      2.336      4.415
REMARK  Name = 
REMARK  0 active torsions:
REMARK  status: ('A' for Active; 'I' for Inactive)
REMARK                            x       y       z     vdW  Elec       q    Type
REMARK                         _______ _______ _______ _____ _____    ______ ____
ROOT
ATOM      1  C   UNL     1       4.277   3.038  19.028  0.00  0.00    +0.000 A 
ATOM      2  C   UNL     1       3.675   3.304  17.813  0.00  0.00    +0.000 A 
ATOM      3  N   UNL     1       4.093   4.295  16.999  0.00  0.00    +0.000 NA
ATOM      4  C   UNL     1       5.148   5.025  17.448  0.00  0.00    +0.000 A 
ATOM      5  C   UNL     1       5.772   4.742  18.669  0.00  0.00    +0.000 A 
ATOM      6  N   UNL     1       5.333   3.747  19.484  0.00  0.00    +0.000 NA
ATOM      7  C   UNL     1       6.923   5.569  19.175  0.00  0.00    +0.000 C 
ATOM      8  C   UNL     1       7.604   6.381  18.078  0.00  0.00    +0.000 C 
ATOM      9  C   UNL     1       6.559   7.113  17.243  0.00  0.00    +0.000 C 
ATOM     10  C   UNL     1       5.655   6.107  16.535  0.00  0.00    +0.000 C 
ENDROOT
TORSDOF 0
ENDMDL
MODEL 8
REMARK VINA RESULT:      -4.8      1.919      2.573
REMARK  Name = 
REMARK  0 active torsions:
REMARK  status: ('A' for Active; 'I' for Inactive)
REMARK                            x       y       z     vdW  Elec       q    Type
REMARK                         _______ _______ _______ _____ _____    ______ ____
ROOT
ATOM      1  C   UNL     1       5.829   4.809  16.906  0.00  0.00    +0.000 A 
ATOM      2  C   UNL     1       6.372   4.656  18.168  0.00  0.00    +0.000 A 
ATOM      3  N   UNL     1       5.705   4.053  19.175  0.00  0.00    +0.000 NA
ATOM      4  C   UNL     1       4.459   3.602  18.874  0.00  0.00    +0.000 A 
ATOM      5  C   UNL     1       3.918   3.737  17.590  0.00  0.00    +0.000 A 
ATOM      6  N   UNL     1       4.596   4.357  16.589  0.00  0.00    +0.000 NA
ATOM      7  C   UNL     1       2.528   3.261  17.267  0.00  0.00    +0.000 C 
ATOM      8  C   UNL     1       1.991   2.251  18.278  0.00  0.00    +0.000 C 
ATOM      9  C   UNL     1       2.222   2.759  19.696  0.00  0.00    +0.000 C 
ATOM     10  C   UNL     1       3.719   2.889  19.971  0.00  0.00    +0.000 C 
ENDROOT
TORSDOF 0
ENDMDL
MODEL 9
REMARK VINA RESULT:      -4.8      1.403      2.423
REMARK  Name = 
REMARK  0 active torsions:
REMARK  status: ('A' for Active; 'I' for Inactive)
REMARK                            x       y       z     vdW  Elec       q    Type
REMARK                         _______ _______ _______ _____ _____    ______ ____
ROOT
ATOM      1  C   UNL     1       4.265   5.294  17.277  0.00  0.00    +0.000 A 
ATOM      2  C   UNL     1       4.427   3.972  16.909  0.00  0.00    +0.000 A 
ATOM      3  N   UNL     1       3.790   2.962  17.536  0.00  0.00    +0.000 NA
ATOM      4  C   UNL     1       2.974   3.322  18.561  0.00  0.00    +0.000 A 
ATOM      5  C   UNL     1       2.792   4.663  18.921  0.00  0.00    +0.000 A 
ATOM      6  N   UNL     1       3.450   5.670  18.287  0.00  0.00    +0.000 NA
ATOM      7  C   UNL     1       1.909   5.057  20.074  0.00  0.00    +0.000 C 
ATOM      8  C   UNL     1       0.922   3.963  20.472  0.00  0.00    +0.000 C 
ATOM      9  C   UNL     1       1.645   2.627  20.597  0.00  0.00    +0.000 C 
ATOM     10  C   UNL     1       2.222   2.214  19.244  0.00  0.00    +0.000 C 
ENDROOT
TORSDOF 0
ENDMDL
