MODEL 1
REMARK VINA RESULT:      -7.5      0.000      0.000
REMARK  Name = 
REMARK  3 active torsions:
REMARK  status: ('A' for Active; 'I' for Inactive)
REMARK    1  A    between atoms: C_2  and  C_4
REMARK    2  A    between atoms: C_5  and  C_6
REMARK    3  A    between atoms: C_12  and  C_13
REMARK                            x       y       z     vdW  Elec       q    Type
REMARK                         _______ _______ _______ _____ _____    ______ ____
ROOT
ATOM      1  C   UNL     1       2.290   5.779  19.476  0.00  0.00    +0.000 A 
ATOM      2  C   UNL     1       3.255   5.197  18.568  0.00  0.00    +0.000 A 
ATOM      3  C   UNL     1       3.814   6.053  17.537  0.00  0.00    +0.000 A 
ATOM      4  C   UNL     1       3.412   7.413  17.496  0.00  0.00    +0.000 A 
ATOM      5  C   UNL     1       2.504   7.952  18.414  0.00  0.00    +0.000 A 
ATOM      6  C   UNL     1       2.205   9.417  18.391  0.00  0.00    +0.000 A 
ATOM      7  O   UNL     1       2.741  10.145  17.569  0.00  0.00    +0.000 OA
ATOM      8  C   UNL     1       1.271   9.970  19.401  0.00  0.00    +0.000 A 
ATOM      9  C   UNL     1       1.016  11.340  19.472  0.00  0.00    +0.000 A 
ATOM     10  C   UNL     1       0.146  11.838  20.450  0.00  0.00    +0.000 A 
ATOM     11  C   UNL     1      -0.469  10.957  21.347  0.00  0.00    +0.000 A 
ATOM     12  C   UNL     1      -0.205   9.594  21.277  0.00  0.00    +0.000 A 
ATOM     13  C   UNL     1       0.651   9.087  20.290  0.00  0.00    +0.000 A 
ATOM     14  N   UNL     1       0.988   7.737  20.282  0.00  0.00    +0.000 N 
ATOM     15  C   UNL     1       1.892   7.139  19.370  0.00  0.00    +0.000 A 
ATOM     16  H   UNL     1       0.315   7.104  20.716  0.00  0.00    +0.000 HD
ENDROOT
BRANCH   2  17
ATOM     17  C   UNL     1       3.709   3.765  18.722  0.00  0.00    +0.000 A 
ATOM     18  C   UNL     1       4.537   3.359  19.780  0.00  0.00    +0.000 A 
ATOM     19  C   UNL     1       4.982   2.040  19.924  0.00  0.00    +0.000 A 
ATOM     20  C   UNL     1       4.473   1.044  19.105  0.00  0.00    +0.000 A 
ATOM     21  C   UNL     1       3.577   1.387  18.101  0.00  0.00    +0.000 A 
ATOM     22  C   UNL     1       3.263   2.734  17.867  0.00  0.00    +0.000 A 
ENDBRANCH   2  17
BRANCH   3  23
ATOM     23  C   UNL     1       4.877   5.634  16.557  0.00  0.00    +0.000 A 
ATOM     24  C   UNL     1       4.589   4.914  15.384  0.00  0.00    +0.000 A 
ATOM     25  C   UNL     1       5.596   4.259  14.663  0.00  0.00    +0.000 A 
ATOM     26  C   UNL     1       6.931   4.415  15.020  0.00  0.00    +0.000 A 
ATOM     27  C   UNL     1       7.258   5.262  16.072  0.00  0.00    +0.000 A 
ATOM     28  C   UNL     1       6.245   5.856  16.834  0.00  0.00    +0.000 A 
ENDBRANCH   3  23
BRANCH   1  30
ATOM     29  N   UNL     1       0.579   4.227  20.315  0.00  0.00    +0.000 N 
ATOM     30  C   UNL     1       1.655   5.021  20.616  0.00  0.00    +0.000 C 
ATOM     31  O   UNL     1       2.116   4.966  21.745  0.00  0.00    +0.000 OA
ATOM     32  H   UNL     1       0.220   3.643  21.059  0.00  0.00    +0.000 HD
ATOM     33  H   UNL     1       0.258   4.070  19.369  0.00  0.00    +0.000 HD
ENDBRANCH   1  30
TORSDOF 3
ENDMDL
MODEL 2
REMARK VINA RESULT:      -7.2      3.577     10.758
REMARK  Name = 
REMARK  3 active torsions:
REMARK  status: ('A' for Active; 'I' for Inactive)
REMARK    1  A    between atoms: C_2  and  C_4
REMARK    2  A    between atoms: C_5  and  C_6
REMARK    3  A    between atoms: C_12  and  C_13
REMARK                            x       y       z     vdW  Elec       q    Type
REMARK                         _______ _______ _______ _____ _____    ______ ____
ROOT
ATOM      1  C   UNL     1      -0.227  12.496  19.767  0.00  0.00    +0.000 A 
ATOM      2  C   UNL     1      -0.884  13.260  20.805  0.00  0.00    +0.000 A 
ATOM      3  C   UNL     1      -1.143  12.596  22.070  0.00  0.00    +0.000 A 
ATOM      4  C   UNL     1      -0.712  11.254  22.230  0.00  0.00    +0.000 A 
ATOM      5  C   UNL     1      -0.046  10.557  21.217  0.00  0.00    +0.000 A 
ATOM      6  C   UNL     1       0.485   9.185  21.482  0.00  0.00    +0.000 A 
ATOM      7  O   UNL     1       0.331   8.663  22.576  0.00  0.00    +0.000 OA
ATOM      8  C   UNL     1       1.224   8.484  20.405  0.00  0.00    +0.000 A 
ATOM      9  C   UNL     1       1.804   7.234  20.624  0.00  0.00    +0.000 A 
ATOM     10  C   UNL     1       2.515   6.606  19.595  0.00  0.00    +0.000 A 
ATOM     11  C   UNL     1       2.634   7.231  18.348  0.00  0.00    +0.000 A 
ATOM     12  C   UNL     1       2.061   8.480  18.138  0.00  0.00    +0.000 A 
ATOM     13  C   UNL     1       1.333   9.108  19.158  0.00  0.00    +0.000 A 
ATOM     14  N   UNL     1       0.843  10.397  18.976  0.00  0.00    +0.000 N 
ATOM     15  C   UNL     1       0.153  11.141  19.964  0.00  0.00    +0.000 A 
ATOM     16  H   UNL     1       0.672  10.680  18.010  0.00  0.00    +0.000 HD
ENDROOT
BRANCH   2  17
ATOM     17  C   UNL     1      -1.236  14.715  20.602  0.00  0.00    +0.000 A 
ATOM     18  C   UNL     1      -2.567  15.162  20.595  0.00  0.00    +0.000 A 
ATOM     19  C   UNL     1      -2.909  16.503  20.388  0.00  0.00    +0.000 A 
ATOM     20  C   UNL     1      -1.918  17.472  20.350  0.00  0.00    +0.000 A 
ATOM     21  C   UNL     1      -0.588  17.084  20.446  0.00  0.00    +0.000 A 
ATOM     22  C   UNL     1      -0.254  15.722  20.493  0.00  0.00    +0.000 A 
ENDBRANCH   2  17
BRANCH   3  23
ATOM     23  C   UNL     1      -1.751  13.257  23.278  0.00  0.00    +0.000 A 
ATOM     24  C   UNL     1      -3.022  12.916  23.773  0.00  0.00    +0.000 A 
ATOM     25  C   UNL     1      -3.702  13.745  24.676  0.00  0.00    +0.000 A 
ATOM     26  C   UNL     1      -3.075  14.867  25.208  0.00  0.00    +0.000 A 
ATOM     27  C   UNL     1      -1.754  15.132  24.869  0.00  0.00    +0.000 A 
ATOM     28  C   UNL     1      -1.105  14.343  23.912  0.00  0.00    +0.000 A 
ENDBRANCH   3  23
BRANCH   1  30
ATOM     29  N   UNL     1      -0.861  13.150  17.484  0.00  0.00    +0.000 N 
ATOM     30  C   UNL     1       0.139  13.066  18.417  0.00  0.00    +0.000 C 
ATOM     31  O   UNL     1       1.218  13.573  18.156  0.00  0.00    +0.000 OA
ATOM     32  H   UNL     1      -0.639  13.625  16.618  0.00  0.00    +0.000 HD
ATOM     33  H   UNL     1      -1.826  12.929  17.690  0.00  0.00    +0.000 HD
ENDBRANCH   1  30
TORSDOF 3
ENDMDL
MODEL 3
REMARK VINA RESULT:      -7.0      0.317      1.274
REMARK  Name = 
REMARK  3 active torsions:
REMARK  status: ('A' for Active; 'I' for Inactive)
REMARK    1  A    between atoms: C_2  and  C_4
REMARK    2  A    between atoms: C_5  and  C_6
REMARK    3  A    between atoms: C_12  and  C_13
REMARK                            x       y       z     vdW  Elec       q    Type
REMARK                         _______ _______ _______ _____ _____    ______ ____
ROOT
ATOM      1  C   UNL     1       2.330   5.564  19.514  0.00  0.00    +0.000 A 
ATOM      2  C   UNL     1       3.297   4.916  18.654  0.00  0.00    +0.000 A 
ATOM      3  C   UNL     1       3.890   5.705  17.590  0.00  0.00    +0.000 A 
ATOM      4  C   UNL     1       3.518   7.069  17.471  0.00  0.00    +0.000 A 
ATOM      5  C   UNL     1       2.607   7.674  18.344  0.00  0.00    +0.000 A 
ATOM      6  C   UNL     1       2.340   9.142  18.240  0.00  0.00    +0.000 A 
ATOM      7  O   UNL     1       2.904   9.814  17.391  0.00  0.00    +0.000 OA
ATOM      8  C   UNL     1       1.402   9.766  19.203  0.00  0.00    +0.000 A 
ATOM      9  C   UNL     1       1.174  11.142  19.199  0.00  0.00    +0.000 A 
ATOM     10  C   UNL     1       0.301  11.708  20.135  0.00  0.00    +0.000 A 
ATOM     11  C   UNL     1      -0.348  10.888  21.066  0.00  0.00    +0.000 A 
ATOM     12  C   UNL     1      -0.111   9.518  21.072  0.00  0.00    +0.000 A 
ATOM     13  C   UNL     1       0.750   8.943  20.127  0.00  0.00    +0.000 A 
ATOM     14  N   UNL     1       1.058   7.588  20.195  0.00  0.00    +0.000 N 
ATOM     15  C   UNL     1       1.963   6.925  19.330  0.00  0.00    +0.000 A 
ATOM     16  H   UNL     1       0.364   6.992  20.650  0.00  0.00    +0.000 HD
ENDROOT
BRANCH   2  17
ATOM     17  C   UNL     1       3.718   3.485  18.890  0.00  0.00    +0.000 A 
ATOM     18  C   UNL     1       3.409   2.461  17.982  0.00  0.00    +0.000 A 
ATOM     19  C   UNL     1       3.775   1.128  18.198  0.00  0.00    +0.000 A 
ATOM     20  C   UNL     1       4.613   0.802  19.252  0.00  0.00    +0.000 A 
ATOM     21  C   UNL     1       5.020   1.801  20.126  0.00  0.00    +0.000 A 
ATOM     22  C   UNL     1       4.517   3.104  19.990  0.00  0.00    +0.000 A 
ENDBRANCH   2  17
BRANCH   3  23
ATOM     23  C   UNL     1       4.960   5.214  16.651  0.00  0.00    +0.000 A 
ATOM     24  C   UNL     1       6.331   5.418  16.887  0.00  0.00    +0.000 A 
ATOM     25  C   UNL     1       7.280   5.252  15.869  0.00  0.00    +0.000 A 
ATOM     26  C   UNL     1       6.900   4.750  14.629  0.00  0.00    +0.000 A 
ATOM     27  C   UNL     1       5.578   4.375  14.425  0.00  0.00    +0.000 A 
ATOM     28  C   UNL     1       4.621   4.611  15.418  0.00  0.00    +0.000 A 
ENDBRANCH   3  23
BRANCH   1  30
ATOM     29  N   UNL     1       0.550   4.126  20.409  0.00  0.00    +0.000 N 
ATOM     30  C   UNL     1       1.661   4.880  20.681  0.00  0.00    +0.000 C 
ATOM     31  O   UNL     1       2.120   4.847  21.812  0.00  0.00    +0.000 OA
ATOM     32  H   UNL     1       0.165   3.587  21.174  0.00  0.00    +0.000 HD
ATOM     33  H   UNL     1       0.222   3.948  19.469  0.00  0.00    +0.000 HD
ENDBRANCH   1  30
TORSDOF 3
ENDMDL
MODEL 4
REMARK VINA RESULT:      -7.0      2.764      8.701
REMARK  Name = 
REMARK  3 active torsions:
REMARK  status: ('A' for Active; 'I' for Inactive)
REMARK    1  A    between atoms: C_2  and  C_4
REMARK    2  A    between atoms: C_5  and  C_6
REMARK    3  A    between atoms: C_12  and  C_13
REMARK                            x       y       z     vdW  Elec       q    Type
REMARK                         _______ _______ _______ _____ _____    ______ ____
ROOT
ATOM      1  C   UNL     1       0.572  10.175  21.519  0.00  0.00    +0.000 A 
ATOM      2  C   UNL     1       0.387  11.553  21.118  0.00  0.00    +0.000 A 
ATOM      3  C   UNL     1       0.860  11.942  19.802  0.00  0.00    +0.000 A 
ATOM      4  C   UNL     1       1.444  10.950  18.973  0.00  0.00    +0.000 A 
ATOM      5  C   UNL     1       1.573   9.618  19.378  0.00  0.00    +0.000 A 
ATOM      6  C   UNL     1       2.092   8.595  18.419  0.00  0.00    +0.000 A 
ATOM      7  O   UNL     1       2.415   8.918  17.286  0.00  0.00    +0.000 OA
ATOM      8  C   UNL     1       2.181   7.182  18.861  0.00  0.00    +0.000 A 
ATOM      9  C   UNL     1       2.587   6.177  17.983  0.00  0.00    +0.000 A 
ATOM     10  C   UNL     1       2.639   4.848  18.421  0.00  0.00    +0.000 A 
ATOM     11  C   UNL     1       2.292   4.535  19.740  0.00  0.00    +0.000 A 
ATOM     12  C   UNL     1       1.880   5.541  20.609  0.00  0.00    +0.000 A 
ATOM     13  C   UNL     1       1.840   6.875  20.183  0.00  0.00    +0.000 A 
ATOM     14  N   UNL     1       1.338   7.864  21.022  0.00  0.00    +0.000 N 
ATOM     15  C   UNL     1       1.197   9.227  20.665  0.00  0.00    +0.000 A 
ATOM     16  H   UNL     1       1.395   7.673  22.024  0.00  0.00    +0.000 HD
ENDROOT
BRANCH   2  17
ATOM     17  C   UNL     1      -0.325  12.539  22.013  0.00  0.00    +0.000 A 
ATOM     18  C   UNL     1       0.194  13.819  22.268  0.00  0.00    +0.000 A 
ATOM     19  C   UNL     1      -0.444  14.735  23.111  0.00  0.00    +0.000 A 
ATOM     20  C   UNL     1      -1.714  14.462  23.596  0.00  0.00    +0.000 A 
ATOM     21  C   UNL     1      -2.307  13.243  23.292  0.00  0.00    +0.000 A 
ATOM     22  C   UNL     1      -1.590  12.271  22.579  0.00  0.00    +0.000 A 
ENDBRANCH   2  17
BRANCH   3  23
ATOM     23  C   UNL     1       0.687  13.310  19.198  0.00  0.00    +0.000 A 
ATOM     24  C   UNL     1       1.774  14.145  18.884  0.00  0.00    +0.000 A 
ATOM     25  C   UNL     1       1.596  15.513  18.635  0.00  0.00    +0.000 A 
ATOM     26  C   UNL     1       0.316  16.054  18.563  0.00  0.00    +0.000 A 
ATOM     27  C   UNL     1      -0.783  15.215  18.696  0.00  0.00    +0.000 A 
ATOM     28  C   UNL     1      -0.600  13.865  19.017  0.00  0.00    +0.000 A 
ENDBRANCH   3  23
BRANCH   1  30
ATOM     29  N   UNL     1      -1.080   8.919  22.838  0.00  0.00    +0.000 N 
ATOM     30  C   UNL     1       0.098   9.620  22.841  0.00  0.00    +0.000 C 
ATOM     31  O   UNL     1       0.757   9.641  23.869  0.00  0.00    +0.000 OA
ATOM     32  H   UNL     1      -1.342   8.463  23.702  0.00  0.00    +0.000 HD
ATOM     33  H   UNL     1      -1.584   8.695  21.991  0.00  0.00    +0.000 HD
ENDBRANCH   1  30
TORSDOF 3
ENDMDL
MODEL 5
REMARK VINA RESULT:      -6.9      9.042     10.445
REMARK  Name = 
REMARK  3 active torsions:
REMARK  status: ('A' for Active; 'I' for Inactive)
REMARK    1  A    between atoms: C_2  and  C_4
REMARK    2  A    between atoms: C_5  and  C_6
REMARK    3  A    between atoms: C_12  and  C_13
REMARK                            x       y       z     vdW  Elec       q    Type
REMARK                         _______ _______ _______ _____ _____    ______ ____
ROOT
ATOM      1  C   UNL     1       7.124  14.767  19.411  0.00  0.00    +0.000 A 
ATOM      2  C   UNL     1       7.790  14.143  20.534  0.00  0.00    +0.000 A 
ATOM      3  C   UNL     1       7.097  14.136  21.810  0.00  0.00    +0.000 A 
ATOM      4  C   UNL     1       5.801  14.708  21.879  0.00  0.00    +0.000 A 
ATOM      5  C   UNL     1       5.171  15.271  20.764  0.00  0.00    +0.000 A 
ATOM      6  C   UNL     1       3.761  15.755  20.870  0.00  0.00    +0.000 A 
ATOM      7  O   UNL     1       3.158  15.674  21.930  0.00  0.00    +0.000 OA
ATOM      8  C   UNL     1       3.103  16.309  19.663  0.00  0.00    +0.000 A 
ATOM      9  C   UNL     1       1.766  16.707  19.689  0.00  0.00    +0.000 A 
ATOM     10  C   UNL     1       1.164  17.205  18.527  0.00  0.00    +0.000 A 
ATOM     11  C   UNL     1       1.909  17.311  17.347  0.00  0.00    +0.000 A 
ATOM     12  C   UNL     1       3.240  16.906  17.325  0.00  0.00    +0.000 A 
ATOM     13  C   UNL     1       3.853  16.421  18.488  0.00  0.00    +0.000 A 
ATOM     14  N   UNL     1       5.153  15.929  18.440  0.00  0.00    +0.000 N 
ATOM     15  C   UNL     1       5.840  15.360  19.541  0.00  0.00    +0.000 A 
ATOM     16  H   UNL     1       5.745  16.296  17.692  0.00  0.00    +0.000 HD
ENDROOT
BRANCH   2  17
ATOM     17  C   UNL     1       9.133  13.471  20.373  0.00  0.00    +0.000 A 
ATOM     18  C   UNL     1       9.248  12.094  20.130  0.00  0.00    +0.000 A 
ATOM     19  C   UNL     1      10.486  11.454  19.999  0.00  0.00    +0.000 A 
ATOM     20  C   UNL     1      11.650  12.204  19.938  0.00  0.00    +0.000 A 
ATOM     21  C   UNL     1      11.574  13.584  20.081  0.00  0.00    +0.000 A 
ATOM     22  C   UNL     1      10.345  14.195  20.372  0.00  0.00    +0.000 A 
ENDBRANCH   2  17
BRANCH   3  23
ATOM     23  C   UNL     1       7.608  13.472  23.060  0.00  0.00    +0.000 A 
ATOM     24  C   UNL     1       7.376  12.115  23.350  0.00  0.00    +0.000 A 
ATOM     25  C   UNL     1       7.567  11.600  24.639  0.00  0.00    +0.000 A 
ATOM     26  C   UNL     1       8.121  12.394  25.638  0.00  0.00    +0.000 A 
ATOM     27  C   UNL     1       8.522  13.689  25.332  0.00  0.00    +0.000 A 
ATOM     28  C   UNL     1       8.262  14.221  24.065  0.00  0.00    +0.000 A 
ENDBRANCH   3  23
BRANCH   1  30
ATOM     29  N   UNL     1       7.551  13.702  17.237  0.00  0.00    +0.000 N 
ATOM     30  C   UNL     1       7.707  14.817  18.019  0.00  0.00    +0.000 C 
ATOM     31  O   UNL     1       8.180  15.820  17.509  0.00  0.00    +0.000 OA
ATOM     32  H   UNL     1       7.851  13.775  16.274  0.00  0.00    +0.000 HD
ATOM     33  H   UNL     1       7.002  12.903  17.522  0.00  0.00    +0.000 HD
ENDBRANCH   1  30
TORSDOF 3
ENDMDL
MODEL 6
REMARK VINA RESULT:      -6.8      3.904     11.046
REMARK  Name = 
REMARK  3 active torsions:
REMARK  status: ('A' for Active; 'I' for Inactive)
REMARK    1  A    between atoms: C_2  and  C_4
REMARK    2  A    between atoms: C_5  and  C_6
REMARK    3  A    between atoms: C_12  and  C_13
REMARK                            x       y       z     vdW  Elec       q    Type
REMARK                         _______ _______ _______ _____ _____    ______ ____
ROOT
ATOM      1  C   UNL     1      -0.155  12.911  19.899  0.00  0.00    +0.000 A 
ATOM      2  C   UNL     1      -0.771  13.779  20.879  0.00  0.00    +0.000 A 
ATOM      3  C   UNL     1      -1.102  13.210  22.173  0.00  0.00    +0.000 A 
ATOM      4  C   UNL     1      -0.776  11.851  22.416  0.00  0.00    +0.000 A 
ATOM      5  C   UNL     1      -0.146  11.049  21.458  0.00  0.00    +0.000 A 
ATOM      6  C   UNL     1       0.275   9.659  21.811  0.00  0.00    +0.000 A 
ATOM      7  O   UNL     1       0.062   9.214  22.928  0.00  0.00    +0.000 OA
ATOM      8  C   UNL     1       0.977   8.845  20.790  0.00  0.00    +0.000 A 
ATOM      9  C   UNL     1       1.457   7.570  21.090  0.00  0.00    +0.000 A 
ATOM     10  C   UNL     1       2.136   6.833  20.113  0.00  0.00    +0.000 A 
ATOM     11  C   UNL     1       2.323   7.375  18.836  0.00  0.00    +0.000 A 
ATOM     12  C   UNL     1       1.850   8.649  18.545  0.00  0.00    +0.000 A 
ATOM     13  C   UNL     1       1.155   9.387  19.512  0.00  0.00    +0.000 A 
ATOM     14  N   UNL     1       0.766  10.696  19.249  0.00  0.00    +0.000 N 
ATOM     15  C   UNL     1       0.117  11.545  20.179  0.00  0.00    +0.000 A 
ATOM     16  H   UNL     1       0.634  10.935  18.265  0.00  0.00    +0.000 HD
ENDROOT
BRANCH   2  17
ATOM     17  C   UNL     1      -1.009  15.242  20.588  0.00  0.00    +0.000 A 
ATOM     18  C   UNL     1      -2.297  15.756  20.369  0.00  0.00    +0.000 A 
ATOM     19  C   UNL     1      -2.530  17.104  20.079  0.00  0.00    +0.000 A 
ATOM     20  C   UNL     1      -1.493  18.020  20.165  0.00  0.00    +0.000 A 
ATOM     21  C   UNL     1      -0.216  17.570  20.470  0.00  0.00    +0.000 A 
ATOM     22  C   UNL     1       0.033  16.195  20.602  0.00  0.00    +0.000 A 
ENDBRANCH   2  17
BRANCH   3  23
ATOM     23  C   UNL     1      -1.678  13.983  23.329  0.00  0.00    +0.000 A 
ATOM     24  C   UNL     1      -0.924  14.898  24.083  0.00  0.00    +0.000 A 
ATOM     25  C   UNL     1      -1.366  15.356  25.332  0.00  0.00    +0.000 A 
ATOM     26  C   UNL     1      -2.632  15.014  25.798  0.00  0.00    +0.000 A 
ATOM     27  C   UNL     1      -3.468  14.251  24.992  0.00  0.00    +0.000 A 
ATOM     28  C   UNL     1      -2.995  13.737  23.780  0.00  0.00    +0.000 A 
ENDBRANCH   3  23
BRANCH   1  30
ATOM     29  N   UNL     1      -0.675  13.370  17.541  0.00  0.00    +0.000 N 
ATOM     30  C   UNL     1       0.275  13.374  18.528  0.00  0.00    +0.000 C 
ATOM     31  O   UNL     1       1.363  13.872  18.282  0.00  0.00    +0.000 OA
ATOM     32  H   UNL     1      -0.412  13.776  16.652  0.00  0.00    +0.000 HD
ATOM     33  H   UNL     1      -1.648  13.154  17.714  0.00  0.00    +0.000 HD
ENDBRANCH   1  30
TORSDOF 3
ENDMDL
MODEL 7
REMARK VINA RESULT:      -6.8      9.598     11.689
REMARK  Name = 
REMARK  3 active torsions:
REMARK  status: ('A' for Active; 'I' for Inactive)
REMARK    1  A    between atoms: C_2  and  C_4
REMARK    2  A    between atoms: C_5  and  C_6
REMARK    3  A    between atoms: C_12  and  C_13
REMARK                            x       y       z     vdW  Elec       q    Type
REMARK                         _______ _______ _______ _____ _____    ______ ____
ROOT
ATOM      1  C   UNL     1       9.072  15.334  22.651  0.00  0.00    +0.000 A 
ATOM      2  C   UNL     1       9.739  14.742  21.511  0.00  0.00    +0.000 A 
ATOM      3  C   UNL     1       9.729  13.295  21.400  0.00  0.00    +0.000 A 
ATOM      4  C   UNL     1       9.043  12.545  22.391  0.00  0.00    +0.000 A 
ATOM      5  C   UNL     1       8.377  13.153  23.460  0.00  0.00    +0.000 A 
ATOM      6  C   UNL     1       7.576  12.318  24.408  0.00  0.00    +0.000 A 
ATOM      7  O   UNL     1       7.510  11.108  24.261  0.00  0.00    +0.000 OA
ATOM      8  C   UNL     1       6.846  12.991  25.509  0.00  0.00    +0.000 A 
ATOM      9  C   UNL     1       6.025  12.270  26.376  0.00  0.00    +0.000 A 
ATOM     10  C   UNL     1       5.330  12.935  27.393  0.00  0.00    +0.000 A 
ATOM     11  C   UNL     1       5.468  14.320  27.540  0.00  0.00    +0.000 A 
ATOM     12  C   UNL     1       6.281  15.035  26.668  0.00  0.00    +0.000 A 
ATOM     13  C   UNL     1       6.993  14.375  25.658  0.00  0.00    +0.000 A 
ATOM     14  N   UNL     1       7.729  15.103  24.730  0.00  0.00    +0.000 N 
ATOM     15  C   UNL     1       8.430  14.537  23.637  0.00  0.00    +0.000 A 
ATOM     16  H   UNL     1       8.055  16.020  25.036  0.00  0.00    +0.000 HD
ENDROOT
BRANCH   2  17
ATOM     17  C   UNL     1      10.373  15.601  20.443  0.00  0.00    +0.000 A 
ATOM     18  C   UNL     1      11.736  15.934  20.470  0.00  0.00    +0.000 A 
ATOM     19  C   UNL     1      12.332  16.745  19.499  0.00  0.00    +0.000 A 
ATOM     20  C   UNL     1      11.617  17.114  18.370  0.00  0.00    +0.000 A 
ATOM     21  C   UNL     1      10.288  16.728  18.256  0.00  0.00    +0.000 A 
ATOM     22  C   UNL     1       9.658  16.051  19.312  0.00  0.00    +0.000 A 
ENDBRANCH   2  17
BRANCH   3  23
ATOM     23  C   UNL     1      10.310  12.518  20.249  0.00  0.00    +0.000 A 
ATOM     24  C   UNL     1      11.639  12.061  20.234  0.00  0.00    +0.000 A 
ATOM     25  C   UNL     1      12.252  11.636  19.047  0.00  0.00    +0.000 A 
ATOM     26  C   UNL     1      11.515  11.533  17.872  0.00  0.00    +0.000 A 
ATOM     27  C   UNL     1      10.154  11.813  17.899  0.00  0.00    +0.000 A 
ATOM     28  C   UNL     1       9.563  12.306  19.068  0.00  0.00    +0.000 A 
ENDBRANCH   3  23
BRANCH   1  30
ATOM     29  N   UNL     1       7.977  17.489  22.208  0.00  0.00    +0.000 N 
ATOM     30  C   UNL     1       8.970  16.823  22.877  0.00  0.00    +0.000 C 
ATOM     31  O   UNL     1       9.620  17.437  23.709  0.00  0.00    +0.000 OA
ATOM     32  H   UNL     1       7.846  18.466  22.439  0.00  0.00    +0.000 HD
ATOM     33  H   UNL     1       7.277  17.018  21.651  0.00  0.00    +0.000 HD
ENDBRANCH   1  30
TORSDOF 3
ENDMDL
MODEL 8
REMARK VINA RESULT:      -6.6      7.603     12.628
REMARK  Name = 
REMARK  3 active torsions:
REMARK  status: ('A' for Active; 'I' for Inactive)
REMARK    1  A    between atoms: C_2  and  C_4
REMARK    2  A    between atoms: C_5  and  C_6
REMARK    3  A    between atoms: C_12  and  C_13
REMARK                            x       y       z     vdW  Elec       q    Type
REMARK                         _______ _______ _______ _____ _____    ______ ____
ROOT
ATOM      1  C   UNL     1      -4.962  13.815  20.323  0.00  0.00    +0.000 A 
ATOM      2  C   UNL     1      -4.508  14.361  21.583  0.00  0.00    +0.000 A 
ATOM      3  C   UNL     1      -3.256  13.861  22.124  0.00  0.00    +0.000 A 
ATOM      4  C   UNL     1      -2.535  12.895  21.376  0.00  0.00    +0.000 A 
ATOM      5  C   UNL     1      -2.986  12.416  20.142  0.00  0.00    +0.000 A 
ATOM      6  C   UNL     1      -2.128  11.484  19.347  0.00  0.00    +0.000 A 
ATOM      7  O   UNL     1      -1.040  11.129  19.774  0.00  0.00    +0.000 OA
ATOM      8  C   UNL     1      -2.611  11.023  18.023  0.00  0.00    +0.000 A 
ATOM      9  C   UNL     1      -1.819  10.214  17.209  0.00  0.00    +0.000 A 
ATOM     10  C   UNL     1      -2.291   9.812  15.954  0.00  0.00    +0.000 A 
ATOM     11  C   UNL     1      -3.560  10.218  15.525  0.00  0.00    +0.000 A 
ATOM     12  C   UNL     1      -4.343  11.031  16.337  0.00  0.00    +0.000 A 
ATOM     13  C   UNL     1      -3.884  11.424  17.602  0.00  0.00    +0.000 A 
ATOM     14  N   UNL     1      -4.626  12.313  18.371  0.00  0.00    +0.000 N 
ATOM     15  C   UNL     1      -4.221  12.820  19.630  0.00  0.00    +0.000 A 
ATOM     16  H   UNL     1      -5.630  12.334  18.189  0.00  0.00    +0.000 HD
ENDROOT
BRANCH   2  17
ATOM     17  C   UNL     1      -5.278  15.455  22.285  0.00  0.00    +0.000 A 
ATOM     18  C   UNL     1      -4.946  16.810  22.133  0.00  0.00    +0.000 A 
ATOM     19  C   UNL     1      -5.638  17.833  22.792  0.00  0.00    +0.000 A 
ATOM     20  C   UNL     1      -6.796  17.543  23.497  0.00  0.00    +0.000 A 
ATOM     21  C   UNL     1      -7.214  16.222  23.597  0.00  0.00    +0.000 A 
ATOM     22  C   UNL     1      -6.424  15.192  23.065  0.00  0.00    +0.000 A 
ENDBRANCH   2  17
BRANCH   3  23
ATOM     23  C   UNL     1      -2.602  14.366  23.382  0.00  0.00    +0.000 A 
ATOM     24  C   UNL     1      -3.194  14.239  24.651  0.00  0.00    +0.000 A 
ATOM     25  C   UNL     1      -2.743  14.986  25.747  0.00  0.00    +0.000 A 
ATOM     26  C   UNL     1      -1.606  15.780  25.635  0.00  0.00    +0.000 A 
ATOM     27  C   UNL     1      -0.899  15.789  24.439  0.00  0.00    +0.000 A 
ATOM     28  C   UNL     1      -1.395  15.099  23.327  0.00  0.00    +0.000 A 
ENDBRANCH   3  23
BRANCH   1  30
ATOM     29  N   UNL     1      -6.141  15.398  18.858  0.00  0.00    +0.000 N 
ATOM     30  C   UNL     1      -6.223  14.265  19.625  0.00  0.00    +0.000 C 
ATOM     31  O   UNL     1      -7.258  13.618  19.593  0.00  0.00    +0.000 OA
ATOM     32  H   UNL     1      -6.958  15.639  18.311  0.00  0.00    +0.000 HD
ATOM     33  H   UNL     1      -5.271  15.881  18.681  0.00  0.00    +0.000 HD
ENDBRANCH   1  30
TORSDOF 3
ENDMDL
MODEL 9
REMARK VINA RESULT:      -6.6      4.103     11.273
REMARK  Name = 
REMARK  3 active torsions:
REMARK  status: ('A' for Active; 'I' for Inactive)
REMARK    1  A    between atoms: C_2  and  C_4
REMARK    2  A    between atoms: C_5  and  C_6
REMARK    3  A    between atoms: C_12  and  C_13
REMARK                            x       y       z     vdW  Elec       q    Type
REMARK                         _______ _______ _______ _____ _____    ______ ____
ROOT
ATOM      1  C   UNL     1      -0.345  13.149  20.121  0.00  0.00    +0.000 A 
ATOM      2  C   UNL     1      -0.966  13.961  21.145  0.00  0.00    +0.000 A 
ATOM      3  C   UNL     1      -1.267  13.329  22.417  0.00  0.00    +0.000 A 
ATOM      4  C   UNL     1      -0.909  11.968  22.598  0.00  0.00    +0.000 A 
ATOM      5  C   UNL     1      -0.275  11.223  21.598  0.00  0.00    +0.000 A 
ATOM      6  C   UNL     1       0.182   9.828  21.886  0.00  0.00    +0.000 A 
ATOM      7  O   UNL     1      -0.007   9.331  22.985  0.00  0.00    +0.000 OA
ATOM      8  C   UNL     1       0.888   9.075  20.822  0.00  0.00    +0.000 A 
ATOM      9  C   UNL     1       1.399   7.799  21.061  0.00  0.00    +0.000 A 
ATOM     10  C   UNL     1       2.082   7.120  20.045  0.00  0.00    +0.000 A 
ATOM     11  C   UNL     1       2.240   7.720  18.791  0.00  0.00    +0.000 A 
ATOM     12  C   UNL     1       1.735   8.995  18.560  0.00  0.00    +0.000 A 
ATOM     13  C   UNL     1       1.037   9.675  19.567  0.00  0.00    +0.000 A 
ATOM     14  N   UNL     1       0.616  10.985  19.366  0.00  0.00    +0.000 N 
ATOM     15  C   UNL     1      -0.039  11.779  20.339  0.00  0.00    +0.000 A 
ATOM     16  H   UNL     1       0.466  11.264  18.395  0.00  0.00    +0.000 HD
ENDROOT
BRANCH   2  17
ATOM     17  C   UNL     1      -1.240  15.429  20.921  0.00  0.00    +0.000 A 
ATOM     18  C   UNL     1      -2.499  15.895  20.514  0.00  0.00    +0.000 A 
ATOM     19  C   UNL     1      -2.761  17.250  20.283  0.00  0.00    +0.000 A 
ATOM     20  C   UNL     1      -1.814  18.205  20.616  0.00  0.00    +0.000 A 
ATOM     21  C   UNL     1      -0.583  17.794  21.110  0.00  0.00    +0.000 A 
ATOM     22  C   UNL     1      -0.277  16.426  21.187  0.00  0.00    +0.000 A 
ENDBRANCH   2  17
BRANCH   3  23
ATOM     23  C   UNL     1      -1.846  14.038  23.612  0.00  0.00    +0.000 A 
ATOM     24  C   UNL     1      -3.221  14.036  23.905  0.00  0.00    +0.000 A 
ATOM     25  C   UNL     1      -3.776  14.950  24.811  0.00  0.00    +0.000 A 
ATOM     26  C   UNL     1      -2.955  15.800  25.545  0.00  0.00    +0.000 A 
ATOM     27  C   UNL     1      -1.576  15.701  25.403  0.00  0.00    +0.000 A 
ATOM     28  C   UNL     1      -1.031  14.839  24.444  0.00  0.00    +0.000 A 
ENDBRANCH   3  23
BRANCH   1  30
ATOM     29  N   UNL     1       1.247  14.357  18.690  0.00  0.00    +0.000 N 
ATOM     30  C   UNL     1       0.058  13.680  18.767  0.00  0.00    +0.000 C 
ATOM     31  O   UNL     1      -0.534  13.429  17.728  0.00  0.00    +0.000 OA
ATOM     32  H   UNL     1       1.563  14.622  17.765  0.00  0.00    +0.000 HD
ATOM     33  H   UNL     1       1.886  14.438  19.469  0.00  0.00    +0.000 HD
ENDBRANCH   1  30
TORSDOF 3
ENDMDL
