MODEL 1
REMARK VINA RESULT:      -7.5      0.000      0.000
REMARK  Name = 
REMARK  6 active torsions:
REMARK  status: ('A' for Active; 'I' for Inactive)
REMARK    1  A    between atoms: C_2  and  C_3
REMARK    2  A    between atoms: C_3  and  C_4
REMARK    3  A    between atoms: C_7  and  N_8
REMARK    4  A    between atoms: N_13  and  O_14
REMARK    5  A    between atoms: O_14  and  C_15
REMARK    6  A    between atoms: C_15  and  C_17
REMARK                            x       y       z     vdW  Elec       q    Type
REMARK                         _______ _______ _______ _____ _____    ______ ____
ROOT
ATOM      1  N   UNL     1       4.103   0.728  18.324  0.00  0.00    +0.000 N 
ATOM      2  C   UNL     1       3.225   1.780  18.287  0.00  0.00    +0.000 C 
ATOM      3  N   UNL     1       2.280   1.800  19.186  0.00  0.00    +0.000 NA
ATOM      4  H   UNL     1       5.035   0.864  17.951  0.00  0.00    +0.000 HD
ATOM      5  H   UNL     1       4.069   0.203  19.192  0.00  0.00    +0.000 HD
ENDROOT
BRANCH   2   6
ATOM      6  C   UNL     1       3.422   2.837  17.201  0.00  0.00    +0.000 C 
BRANCH   6   7
ATOM      7  C   UNL     1       4.525   3.857  17.419  0.00  0.00    +0.000 A 
ATOM      8  C   UNL     1       5.034   4.181  18.685  0.00  0.00    +0.000 A 
ATOM      9  C   UNL     1       5.972   5.203  18.843  0.00  0.00    +0.000 A 
ATOM     10  C   UNL     1       6.440   5.890  17.719  0.00  0.00    +0.000 A 
ATOM     11  C   UNL     1       5.987   5.550  16.441  0.00  0.00    +0.000 A 
ATOM     12  C   UNL     1       5.032   4.539  16.297  0.00  0.00    +0.000 A 
BRANCH  10  13
ATOM     13  N   UNL     1       7.411   6.977  17.891  0.00  0.00    +0.000 N 
ATOM     14  O   UNL     1       8.284   6.841  18.757  0.00  0.00    +0.000 OA
ATOM     15  O   UNL     1       7.300   7.970  17.154  0.00  0.00    +0.000 OA
ENDBRANCH  10  13
ENDBRANCH   6   7
ENDBRANCH   2   6
BRANCH   3  16
ATOM     16  O   UNL     1       1.440   2.924  19.053  0.00  0.00    +0.000 OA
BRANCH  16  17
ATOM     17  C   UNL     1       1.316   3.577  20.257  0.00  0.00    +0.000 C 
ATOM     18  O   UNL     1       0.999   3.069  21.330  0.00  0.00    +0.000 OA
BRANCH  17  19
ATOM     19  C   UNL     1       1.638   4.977  20.087  0.00  0.00    +0.000 A 
ATOM     20  C   UNL     1       1.562   6.032  20.981  0.00  0.00    +0.000 A 
ATOM     21  C   UNL     1       2.006   7.187  20.292  0.00  0.00    +0.000 A 
ATOM     22  C   UNL     1       2.339   6.769  19.024  0.00  0.00    +0.000 A 
ATOM     23 BR   UNL     1       2.998   7.868  17.668  0.00  0.00    +0.000 Br
ATOM     24  O   UNL     1       2.119   5.436  18.889  0.00  0.00    +0.000 OA
ENDBRANCH  17  19
ENDBRANCH  16  17
ENDBRANCH   3  16
TORSDOF 6
ENDMDL
MODEL 2
REMARK VINA RESULT:      -7.4      1.226      1.493
REMARK  Name = 
REMARK  6 active torsions:
REMARK  status: ('A' for Active; 'I' for Inactive)
REMARK    1  A    between atoms: C_2  and  C_3
REMARK    2  A    between atoms: C_3  and  C_4
REMARK    3  A    between atoms: C_7  and  N_8
REMARK    4  A    between atoms: N_13  and  O_14
REMARK    5  A    between atoms: O_14  and  C_15
REMARK    6  A    between atoms: C_15  and  C_17
REMARK                            x       y       z     vdW  Elec       q    Type
REMARK                         _______ _______ _______ _____ _____    ______ ____
ROOT
ATOM      1  N   UNL     1       3.819   0.766  18.543  0.00  0.00    +0.000 N 
ATOM      2  C   UNL     1       3.151   1.963  18.557  0.00  0.00    +0.000 C 
ATOM      3  N   UNL     1       2.366   2.196  19.573  0.00  0.00    +0.000 NA
ATOM      4  H   UNL     1       4.696   0.708  18.039  0.00  0.00    +0.000 HD
ATOM      5  H   UNL     1       3.817   0.291  19.441  0.00  0.00    +0.000 HD
ENDROOT
BRANCH   2   6
ATOM      6  C   UNL     1       3.376   2.920  17.387  0.00  0.00    +0.000 C 
BRANCH   6   7
ATOM      7  C   UNL     1       4.550   3.876  17.491  0.00  0.00    +0.000 A 
ATOM      8  C   UNL     1       5.288   4.063  18.669  0.00  0.00    +0.000 A 
ATOM      9  C   UNL     1       6.290   5.033  18.744  0.00  0.00    +0.000 A 
ATOM     10  C   UNL     1       6.589   5.805  17.617  0.00  0.00    +0.000 A 
ATOM     11  C   UNL     1       5.903   5.602  16.416  0.00  0.00    +0.000 A 
ATOM     12  C   UNL     1       4.887   4.642  16.359  0.00  0.00    +0.000 A 
BRANCH  10  13
ATOM     13  N   UNL     1       7.628   6.837  17.704  0.00  0.00    +0.000 N 
ATOM     14  O   UNL     1       7.891   7.480  16.680  0.00  0.00    +0.000 OA
ATOM     15  O   UNL     1       8.182   7.006  18.801  0.00  0.00    +0.000 OA
ENDBRANCH  10  13
ENDBRANCH   6   7
ENDBRANCH   2   6
BRANCH   3  16
ATOM     16  O   UNL     1       1.734   3.452  19.482  0.00  0.00    +0.000 OA
BRANCH  16  17
ATOM     17  C   UNL     1       2.006   4.210  20.597  0.00  0.00    +0.000 C 
ATOM     18  O   UNL     1       2.227   3.784  21.729  0.00  0.00    +0.000 OA
BRANCH  17  19
ATOM     19  C   UNL     1       2.016   5.612  20.243  0.00  0.00    +0.000 A 
ATOM     20  C   UNL     1       2.596   6.263  19.167  0.00  0.00    +0.000 A 
ATOM     21  C   UNL     1       2.290   7.639  19.305  0.00  0.00    +0.000 A 
ATOM     22  C   UNL     1       1.531   7.747  20.448  0.00  0.00    +0.000 A 
ATOM     23 BR   UNL     1       0.830   9.337  21.128  0.00  0.00    +0.000 Br
ATOM     24  O   UNL     1       1.361   6.528  21.023  0.00  0.00    +0.000 OA
ENDBRANCH  17  19
ENDBRANCH  16  17
ENDBRANCH   3  16
TORSDOF 6
ENDMDL
MODEL 3
REMARK VINA RESULT:      -6.9      3.542      6.235
REMARK  Name = 
REMARK  6 active torsions:
REMARK  status: ('A' for Active; 'I' for Inactive)
REMARK    1  A    between atoms: C_2  and  C_3
REMARK    2  A    between atoms: C_3  and  C_4
REMARK    3  A    between atoms: C_7  and  N_8
REMARK    4  A    between atoms: N_13  and  O_14
REMARK    5  A    between atoms: O_14  and  C_15
REMARK    6  A    between atoms: C_15  and  C_17
REMARK                            x       y       z     vdW  Elec       q    Type
REMARK                         _______ _______ _______ _____ _____    ______ ____
ROOT
ATOM      1  N   UNL     1       3.295   4.244  20.126  0.00  0.00    +0.000 N 
ATOM      2  C   UNL     1       4.034   4.943  19.207  0.00  0.00    +0.000 C 
ATOM      3  N   UNL     1       5.333   4.877  19.313  0.00  0.00    +0.000 NA
ATOM      4  H   UNL     1       2.366   3.936  19.864  0.00  0.00    +0.000 HD
ATOM      5  H   UNL     1       3.836   3.558  20.643  0.00  0.00    +0.000 HD
ENDROOT
BRANCH   2   6
ATOM      6  C   UNL     1       3.282   5.741  18.143  0.00  0.00    +0.000 C 
BRANCH   6   7
ATOM      7  C   UNL     1       2.640   7.045  18.581  0.00  0.00    +0.000 A 
ATOM      8  C   UNL     1       2.140   7.261  19.874  0.00  0.00    +0.000 A 
ATOM      9  C   UNL     1       1.461   8.438  20.195  0.00  0.00    +0.000 A 
ATOM     10  C   UNL     1       1.310   9.434  19.226  0.00  0.00    +0.000 A 
ATOM     11  C   UNL     1       1.844   9.265  17.946  0.00  0.00    +0.000 A 
ATOM     12  C   UNL     1       2.503   8.073  17.628  0.00  0.00    +0.000 A 
BRANCH  10  13
ATOM     13  N   UNL     1       0.579  10.662  19.561  0.00  0.00    +0.000 N 
ATOM     14  O   UNL     1       1.210  11.582  20.095  0.00  0.00    +0.000 OA
ATOM     15  O   UNL     1      -0.631  10.705  19.287  0.00  0.00    +0.000 OA
ENDBRANCH  10  13
ENDBRANCH   6   7
ENDBRANCH   2   6
BRANCH   3  16
ATOM     16  O   UNL     1       5.988   5.632  18.318  0.00  0.00    +0.000 OA
BRANCH  16  17
ATOM     17  C   UNL     1       7.016   4.906  17.762  0.00  0.00    +0.000 C 
ATOM     18  O   UNL     1       8.013   4.492  18.348  0.00  0.00    +0.000 OA
BRANCH  17  19
ATOM     19  C   UNL     1       6.745   4.675  16.360  0.00  0.00    +0.000 A 
ATOM     20  C   UNL     1       5.747   3.937  15.747  0.00  0.00    +0.000 A 
ATOM     21  C   UNL     1       5.947   4.056  14.350  0.00  0.00    +0.000 A 
ATOM     22  C   UNL     1       7.047   4.867  14.191  0.00  0.00    +0.000 A 
ATOM     23 BR   UNL     1       7.776   5.381  12.552  0.00  0.00    +0.000 Br
ATOM     24  O   UNL     1       7.538   5.245  15.399  0.00  0.00    +0.000 OA
ENDBRANCH  17  19
ENDBRANCH  16  17
ENDBRANCH   3  16
TORSDOF 6
ENDMDL
MODEL 4
REMARK VINA RESULT:      -6.9      3.317      6.798
REMARK  Name = 
REMARK  6 active torsions:
REMARK  status: ('A' for Active; 'I' for Inactive)
REMARK    1  A    between atoms: C_2  and  C_3
REMARK    2  A    between atoms: C_3  and  C_4
REMARK    3  A    between atoms: C_7  and  N_8
REMARK    4  A    between atoms: N_13  and  O_14
REMARK    5  A    between atoms: O_14  and  C_15
REMARK    6  A    between atoms: C_15  and  C_17
REMARK                            x       y       z     vdW  Elec       q    Type
REMARK                         _______ _______ _______ _____ _____    ______ ____
ROOT
ATOM      1  N   UNL     1       7.804   7.030  18.135  0.00  0.00    +0.000 N 
ATOM      2  C   UNL     1       6.925   6.675  17.145  0.00  0.00    +0.000 C 
ATOM      3  N   UNL     1       7.406   6.009  16.131  0.00  0.00    +0.000 NA
ATOM      4  H   UNL     1       7.446   7.166  19.073  0.00  0.00    +0.000 HD
ATOM      5  H   UNL     1       8.687   6.531  18.089  0.00  0.00    +0.000 HD
ENDROOT
BRANCH   2   6
ATOM      6  C   UNL     1       5.462   7.088  17.307  0.00  0.00    +0.000 C 
BRANCH   6   7
ATOM      7  C   UNL     1       4.542   6.112  18.016  0.00  0.00    +0.000 A 
ATOM      8  C   UNL     1       5.007   5.049  18.804  0.00  0.00    +0.000 A 
ATOM      9  C   UNL     1       4.123   4.114  19.346  0.00  0.00    +0.000 A 
ATOM     10  C   UNL     1       2.749   4.259  19.133  0.00  0.00    +0.000 A 
ATOM     11  C   UNL     1       2.256   5.340  18.395  0.00  0.00    +0.000 A 
ATOM     12  C   UNL     1       3.153   6.257  17.839  0.00  0.00    +0.000 A 
BRANCH  10  13
ATOM     13  N   UNL     1       1.823   3.264  19.687  0.00  0.00    +0.000 N 
ATOM     14  O   UNL     1       0.805   3.677  20.256  0.00  0.00    +0.000 OA
ATOM     15  O   UNL     1       2.117   2.067  19.551  0.00  0.00    +0.000 OA
ENDBRANCH  10  13
ENDBRANCH   6   7
ENDBRANCH   2   6
BRANCH   3  16
ATOM     16  O   UNL     1       6.413   5.699  15.178  0.00  0.00    +0.000 OA
BRANCH  16  17
ATOM     17  C   UNL     1       6.239   4.337  15.091  0.00  0.00    +0.000 C 
ATOM     18  O   UNL     1       6.226   3.545  16.030  0.00  0.00    +0.000 OA
BRANCH  17  19
ATOM     19  C   UNL     1       6.050   3.959  13.708  0.00  0.00    +0.000 A 
ATOM     20  C   UNL     1       6.976   3.638  12.729  0.00  0.00    +0.000 A 
ATOM     21  C   UNL     1       6.243   3.336  11.555  0.00  0.00    +0.000 A 
ATOM     22  C   UNL     1       4.916   3.478  11.887  0.00  0.00    +0.000 A 
ATOM     23 BR   UNL     1       3.481   3.199  10.727  0.00  0.00    +0.000 Br
ATOM     24  O   UNL     1       4.788   3.855  13.185  0.00  0.00    +0.000 OA
ENDBRANCH  17  19
ENDBRANCH  16  17
ENDBRANCH   3  16
TORSDOF 6
ENDMDL
MODEL 5
REMARK VINA RESULT:      -6.9      3.461      6.240
REMARK  Name = 
REMARK  6 active torsions:
REMARK  status: ('A' for Active; 'I' for Inactive)
REMARK    1  A    between atoms: C_2  and  C_3
REMARK    2  A    between atoms: C_3  and  C_4
REMARK    3  A    between atoms: C_7  and  N_8
REMARK    4  A    between atoms: N_13  and  O_14
REMARK    5  A    between atoms: O_14  and  C_15
REMARK    6  A    between atoms: C_15  and  C_17
REMARK                            x       y       z     vdW  Elec       q    Type
REMARK                         _______ _______ _______ _____ _____    ______ ____
ROOT
ATOM      1  N   UNL     1       3.023   3.826  19.665  0.00  0.00    +0.000 N 
ATOM      2  C   UNL     1       3.838   4.662  18.946  0.00  0.00    +0.000 C 
ATOM      3  N   UNL     1       5.122   4.569  19.157  0.00  0.00    +0.000 NA
ATOM      4  H   UNL     1       2.124   3.573  19.273  0.00  0.00    +0.000 HD
ATOM      5  H   UNL     1       3.519   3.060  20.109  0.00  0.00    +0.000 HD
ENDROOT
BRANCH   2   6
ATOM      6  C   UNL     1       3.180   5.631  17.964  0.00  0.00    +0.000 C 
BRANCH   6   7
ATOM      7  C   UNL     1       2.492   6.849  18.551  0.00  0.00    +0.000 A 
ATOM      8  C   UNL     1       2.177   7.992  17.801  0.00  0.00    +0.000 A 
ATOM      9  C   UNL     1       1.642   9.128  18.411  0.00  0.00    +0.000 A 
ATOM     10  C   UNL     1       1.381   9.116  19.784  0.00  0.00    +0.000 A 
ATOM     11  C   UNL     1       1.638   7.972  20.545  0.00  0.00    +0.000 A 
ATOM     12  C   UNL     1       2.193   6.847  19.928  0.00  0.00    +0.000 A 
BRANCH  10  13
ATOM     13  N   UNL     1       0.838  10.319  20.426  0.00  0.00    +0.000 N 
ATOM     14  O   UNL     1       0.191  11.106  19.724  0.00  0.00    +0.000 OA
ATOM     15  O   UNL     1       1.060  10.476  21.637  0.00  0.00    +0.000 OA
ENDBRANCH  10  13
ENDBRANCH   6   7
ENDBRANCH   2   6
BRANCH   3  16
ATOM     16  O   UNL     1       5.859   5.472  18.365  0.00  0.00    +0.000 OA
BRANCH  16  17
ATOM     17  C   UNL     1       6.943   4.842  17.798  0.00  0.00    +0.000 C 
ATOM     18  O   UNL     1       7.960   4.476  18.384  0.00  0.00    +0.000 OA
BRANCH  17  19
ATOM     19  C   UNL     1       6.707   4.645  16.385  0.00  0.00    +0.000 A 
ATOM     20  C   UNL     1       5.711   3.940  15.729  0.00  0.00    +0.000 A 
ATOM     21  C   UNL     1       5.953   4.084  14.341  0.00  0.00    +0.000 A 
ATOM     22  C   UNL     1       7.073   4.876  14.229  0.00  0.00    +0.000 A 
ATOM     23 BR   UNL     1       7.856   5.409  12.622  0.00  0.00    +0.000 Br
ATOM     24  O   UNL     1       7.537   5.219  15.458  0.00  0.00    +0.000 OA
ENDBRANCH  17  19
ENDBRANCH  16  17
ENDBRANCH   3  16
TORSDOF 6
ENDMDL
MODEL 6
REMARK VINA RESULT:      -6.8      2.762      5.027
REMARK  Name = 
REMARK  6 active torsions:
REMARK  status: ('A' for Active; 'I' for Inactive)
REMARK    1  A    between atoms: C_2  and  C_3
REMARK    2  A    between atoms: C_3  and  C_4
REMARK    3  A    between atoms: C_7  and  N_8
REMARK    4  A    between atoms: N_13  and  O_14
REMARK    5  A    between atoms: O_14  and  C_15
REMARK    6  A    between atoms: C_15  and  C_17
REMARK                            x       y       z     vdW  Elec       q    Type
REMARK                         _______ _______ _______ _____ _____    ______ ____
ROOT
ATOM      1  N   UNL     1       0.418   3.236  20.485  0.00  0.00    +0.000 N 
ATOM      2  C   UNL     1       1.704   3.308  20.016  0.00  0.00    +0.000 C 
ATOM      3  N   UNL     1       2.091   2.373  19.192  0.00  0.00    +0.000 NA
ATOM      4  H   UNL     1      -0.041   4.094  20.771  0.00  0.00    +0.000 HD
ATOM      5  H   UNL     1      -0.171   2.599  19.958  0.00  0.00    +0.000 HD
ENDROOT
BRANCH   2   6
ATOM      6  C   UNL     1       2.575   4.469  20.495  0.00  0.00    +0.000 C 
BRANCH   6   7
ATOM      7  C   UNL     1       2.259   5.846  19.940  0.00  0.00    +0.000 A 
ATOM      8  C   UNL     1       2.534   6.225  18.618  0.00  0.00    +0.000 A 
ATOM      9  C   UNL     1       2.324   7.536  18.187  0.00  0.00    +0.000 A 
ATOM     10  C   UNL     1       1.797   8.478  19.075  0.00  0.00    +0.000 A 
ATOM     11  C   UNL     1       1.465   8.113  20.383  0.00  0.00    +0.000 A 
ATOM     12  C   UNL     1       1.700   6.802  20.810  0.00  0.00    +0.000 A 
BRANCH  10  13
ATOM     13  N   UNL     1       1.596   9.861  18.625  0.00  0.00    +0.000 N 
ATOM     14  O   UNL     1       2.074  10.188  17.532  0.00  0.00    +0.000 OA
ATOM     15  O   UNL     1       0.956  10.621  19.368  0.00  0.00    +0.000 OA
ENDBRANCH  10  13
ENDBRANCH   6   7
ENDBRANCH   2   6
BRANCH   3  16
ATOM     16  O   UNL     1       3.426   2.549  18.775  0.00  0.00    +0.000 OA
BRANCH  16  17
ATOM     17  C   UNL     1       3.468   3.076  17.505  0.00  0.00    +0.000 C 
ATOM     18  O   UNL     1       2.573   3.020  16.665  0.00  0.00    +0.000 OA
BRANCH  17  19
ATOM     19  C   UNL     1       4.736   3.740  17.295  0.00  0.00    +0.000 A 
ATOM     20  C   UNL     1       5.471   3.928  16.138  0.00  0.00    +0.000 A 
ATOM     21  C   UNL     1       6.634   4.651  16.502  0.00  0.00    +0.000 A 
ATOM     22  C   UNL     1       6.535   4.873  17.856  0.00  0.00    +0.000 A 
ATOM     23 BR   UNL     1       7.787   5.792  18.890  0.00  0.00    +0.000 Br
ATOM     24  O   UNL     1       5.393   4.325  18.346  0.00  0.00    +0.000 OA
ENDBRANCH  17  19
ENDBRANCH  16  17
ENDBRANCH   3  16
TORSDOF 6
ENDMDL
MODEL 7
REMARK VINA RESULT:      -6.7      3.881      7.132
REMARK  Name = 
REMARK  6 active torsions:
REMARK  status: ('A' for Active; 'I' for Inactive)
REMARK    1  A    between atoms: C_2  and  C_3
REMARK    2  A    between atoms: C_3  and  C_4
REMARK    3  A    between atoms: C_7  and  N_8
REMARK    4  A    between atoms: N_13  and  O_14
REMARK    5  A    between atoms: O_14  and  C_15
REMARK    6  A    between atoms: C_15  and  C_17
REMARK                            x       y       z     vdW  Elec       q    Type
REMARK                         _______ _______ _______ _____ _____    ______ ____
ROOT
ATOM      1  N   UNL     1       7.838   4.327  17.623  0.00  0.00    +0.000 N 
ATOM      2  C   UNL     1       7.070   4.599  16.521  0.00  0.00    +0.000 C 
ATOM      3  N   UNL     1       7.560   5.433  15.644  0.00  0.00    +0.000 NA
ATOM      4  H   UNL     1       7.711   3.438  18.093  0.00  0.00    +0.000 HD
ATOM      5  H   UNL     1       8.805   4.618  17.524  0.00  0.00    +0.000 HD
ENDROOT
BRANCH   2   6
ATOM      6  C   UNL     1       5.710   3.911  16.409  0.00  0.00    +0.000 C 
BRANCH   6   7
ATOM      7  C   UNL     1       4.695   4.204  17.499  0.00  0.00    +0.000 A 
ATOM      8  C   UNL     1       4.058   3.204  18.248  0.00  0.00    +0.000 A 
ATOM      9  C   UNL     1       3.053   3.521  19.163  0.00  0.00    +0.000 A 
ATOM     10  C   UNL     1       2.700   4.859  19.365  0.00  0.00    +0.000 A 
ATOM     11  C   UNL     1       3.356   5.878  18.669  0.00  0.00    +0.000 A 
ATOM     12  C   UNL     1       4.346   5.548  17.739  0.00  0.00    +0.000 A 
BRANCH  10  13
ATOM     13  N   UNL     1       1.629   5.188  20.313  0.00  0.00    +0.000 N 
ATOM     14  O   UNL     1       1.609   6.329  20.789  0.00  0.00    +0.000 OA
ATOM     15  O   UNL     1       0.804   4.300  20.580  0.00  0.00    +0.000 OA
ENDBRANCH  10  13
ENDBRANCH   6   7
ENDBRANCH   2   6
BRANCH   3  16
ATOM     16  O   UNL     1       6.688   5.635  14.555  0.00  0.00    +0.000 OA
BRANCH  16  17
ATOM     17  C   UNL     1       7.271   5.206  13.385  0.00  0.00    +0.000 C 
ATOM     18  O   UNL     1       8.339   5.596  12.920  0.00  0.00    +0.000 OA
BRANCH  17  19
ATOM     19  C   UNL     1       6.441   4.192  12.772  0.00  0.00    +0.000 A 
ATOM     20  C   UNL     1       5.073   4.154  12.566  0.00  0.00    +0.000 A 
ATOM     21  C   UNL     1       4.789   2.928  11.914  0.00  0.00    +0.000 A 
ATOM     22  C   UNL     1       6.001   2.297  11.748  0.00  0.00    +0.000 A 
ATOM     23 BR   UNL     1       6.244   0.636  10.934  0.00  0.00    +0.000 Br
ATOM     24  O   UNL     1       7.005   3.051  12.264  0.00  0.00    +0.000 OA
ENDBRANCH  17  19
ENDBRANCH  16  17
ENDBRANCH   3  16
TORSDOF 6
ENDMDL
MODEL 8
REMARK VINA RESULT:      -6.7      3.237      6.615
REMARK  Name = 
REMARK  6 active torsions:
REMARK  status: ('A' for Active; 'I' for Inactive)
REMARK    1  A    between atoms: C_2  and  C_3
REMARK    2  A    between atoms: C_3  and  C_4
REMARK    3  A    between atoms: C_7  and  N_8
REMARK    4  A    between atoms: N_13  and  O_14
REMARK    5  A    between atoms: O_14  and  C_15
REMARK    6  A    between atoms: C_15  and  C_17
REMARK                            x       y       z     vdW  Elec       q    Type
REMARK                         _______ _______ _______ _____ _____    ______ ____
ROOT
ATOM      1  N   UNL     1       6.729   4.530  15.047  0.00  0.00    +0.000 N 
ATOM      2  C   UNL     1       6.485   5.661  15.781  0.00  0.00    +0.000 C 
ATOM      3  N   UNL     1       7.520   6.301  16.252  0.00  0.00    +0.000 NA
ATOM      4  H   UNL     1       6.047   4.247  14.354  0.00  0.00    +0.000 HD
ATOM      5  H   UNL     1       7.695   4.443  14.747  0.00  0.00    +0.000 HD
ENDROOT
BRANCH   2   6
ATOM      6  C   UNL     1       5.029   6.077  15.989  0.00  0.00    +0.000 C 
BRANCH   6   7
ATOM      7  C   UNL     1       4.314   5.508  17.201  0.00  0.00    +0.000 A 
ATOM      8  C   UNL     1       4.300   4.142  17.517  0.00  0.00    +0.000 A 
ATOM      9  C   UNL     1       3.538   3.657  18.582  0.00  0.00    +0.000 A 
ATOM     10  C   UNL     1       2.806   4.550  19.370  0.00  0.00    +0.000 A 
ATOM     11  C   UNL     1       2.845   5.922  19.109  0.00  0.00    +0.000 A 
ATOM     12  C   UNL     1       3.595   6.395  18.027  0.00  0.00    +0.000 A 
BRANCH  10  13
ATOM     13  N   UNL     1       1.991   4.035  20.476  0.00  0.00    +0.000 N 
ATOM     14  O   UNL     1       0.764   4.185  20.407  0.00  0.00    +0.000 OA
ATOM     15  O   UNL     1       2.579   3.478  21.415  0.00  0.00    +0.000 OA
ENDBRANCH  10  13
ENDBRANCH   6   7
ENDBRANCH   2   6
BRANCH   3  16
ATOM     16  O   UNL     1       7.149   7.446  16.988  0.00  0.00    +0.000 OA
BRANCH  16  17
ATOM     17  C   UNL     1       7.923   7.561  18.119  0.00  0.00    +0.000 C 
ATOM     18  O   UNL     1       8.219   6.654  18.893  0.00  0.00    +0.000 OA
BRANCH  17  19
ATOM     19  C   UNL     1       8.368   8.929  18.267  0.00  0.00    +0.000 A 
ATOM     20  C   UNL     1       8.166  10.033  17.455  0.00  0.00    +0.000 A 
ATOM     21  C   UNL     1       8.816  11.126  18.078  0.00  0.00    +0.000 A 
ATOM     22  C   UNL     1       9.366  10.631  19.238  0.00  0.00    +0.000 A 
ATOM     23 BR   UNL     1      10.342  11.628  20.477  0.00  0.00    +0.000 Br
ATOM     24  O   UNL     1       9.102   9.304  19.362  0.00  0.00    +0.000 OA
ENDBRANCH  17  19
ENDBRANCH  16  17
ENDBRANCH   3  16
TORSDOF 6
ENDMDL
MODEL 9
REMARK VINA RESULT:      -6.7      3.174      5.877
REMARK  Name = 
REMARK  6 active torsions:
REMARK  status: ('A' for Active; 'I' for Inactive)
REMARK    1  A    between atoms: C_2  and  C_3
REMARK    2  A    between atoms: C_3  and  C_4
REMARK    3  A    between atoms: C_7  and  N_8
REMARK    4  A    between atoms: N_13  and  O_14
REMARK    5  A    between atoms: O_14  and  C_15
REMARK    6  A    between atoms: C_15  and  C_17
REMARK                            x       y       z     vdW  Elec       q    Type
REMARK                         _______ _______ _______ _____ _____    ______ ____
ROOT
ATOM      1  N   UNL     1       4.179   2.893  18.115  0.00  0.00    +0.000 N 
ATOM      2  C   UNL     1       4.860   4.048  18.400  0.00  0.00    +0.000 C 
ATOM      3  N   UNL     1       5.792   3.982  19.310  0.00  0.00    +0.000 NA
ATOM      4  H   UNL     1       3.768   2.789  17.195  0.00  0.00    +0.000 HD
ATOM      5  H   UNL     1       4.633   2.058  18.471  0.00  0.00    +0.000 HD
ENDROOT
BRANCH   2   6
ATOM      6  C   UNL     1       4.472   5.313  17.634  0.00  0.00    +0.000 C 
BRANCH   6   7
ATOM      7  C   UNL     1       3.478   6.247  18.300  0.00  0.00    +0.000 A 
ATOM      8  C   UNL     1       3.120   7.495  17.769  0.00  0.00    +0.000 A 
ATOM      9  C   UNL     1       2.284   8.364  18.474  0.00  0.00    +0.000 A 
ATOM     10  C   UNL     1       1.766   7.970  19.711  0.00  0.00    +0.000 A 
ATOM     11  C   UNL     1       2.067   6.711  20.238  0.00  0.00    +0.000 A 
ATOM     12  C   UNL     1       2.921   5.858  19.533  0.00  0.00    +0.000 A 
BRANCH  10  13
ATOM     13  N   UNL     1       0.905   8.894  20.459  0.00  0.00    +0.000 N 
ATOM     14  O   UNL     1       0.805  10.055  20.044  0.00  0.00    +0.000 OA
ATOM     15  O   UNL     1       0.325   8.454  21.464  0.00  0.00    +0.000 OA
ENDBRANCH  10  13
ENDBRANCH   6   7
ENDBRANCH   2   6
BRANCH   3  16
ATOM     16  O   UNL     1       6.423   5.226  19.518  0.00  0.00    +0.000 OA
BRANCH  16  17
ATOM     17  C   UNL     1       7.540   5.337  18.723  0.00  0.00    +0.000 C 
ATOM     18  O   UNL     1       8.271   4.417  18.362  0.00  0.00    +0.000 OA
BRANCH  17  19
ATOM     19  C   UNL     1       7.731   6.719  18.343  0.00  0.00    +0.000 A 
ATOM     20  C   UNL     1       7.193   7.446  17.294  0.00  0.00    +0.000 A 
ATOM     21  C   UNL     1       7.713   8.760  17.396  0.00  0.00    +0.000 A 
ATOM     22  C   UNL     1       8.526   8.763  18.505  0.00  0.00    +0.000 A 
ATOM     23 BR   UNL     1       9.478  10.238  19.137  0.00  0.00    +0.000 Br
ATOM     24  O   UNL     1       8.546   7.535  19.084  0.00  0.00    +0.000 OA
ENDBRANCH  17  19
ENDBRANCH  16  17
ENDBRANCH   3  16
TORSDOF 6
ENDMDL
