MODEL 1
REMARK VINA RESULT:      -7.6      0.000      0.000
REMARK  Name = 
REMARK  6 active torsions:
REMARK  status: ('A' for Active; 'I' for Inactive)
REMARK    1  A    between atoms: C_1  and  C_2
REMARK    2  A    between atoms: C_5  and  C_6
REMARK    3  A    between atoms: C_6  and  C_7
REMARK    4  A    between atoms: C_6  and  N_8
REMARK    5  A    between atoms: C_14  and  C_15
REMARK    6  A    between atoms: C_16  and  C_17
REMARK                            x       y       z     vdW  Elec       q    Type
REMARK                         _______ _______ _______ _____ _____    ______ ____
ROOT
ATOM      1  N   UNL     1       5.472   5.606  17.359  0.00  0.00    +0.000 NA
ATOM      2  C   UNL     1       5.468   5.948  18.792  0.00  0.00    +0.000 C 
ATOM      3  C   UNL     1       4.804   4.923  19.721  0.00  0.00    +0.000 C 
ATOM      4  N   UNL     1       3.647   4.306  19.105  0.00  0.00    +0.000 N 
ATOM      5  C   UNL     1       3.262   4.540  17.807  0.00  0.00    +0.000 A 
ATOM      6  N   UNL     1       2.128   3.921  17.548  0.00  0.00    +0.000 NA
ATOM      7  C   UNL     1       1.838   3.181  18.673  0.00  0.00    +0.000 A 
ATOM      8  C   UNL     1       0.630   2.325  18.726  0.00  0.00    +0.000 C 
ATOM      9  C   UNL     1       2.833   3.334  19.623  0.00  0.00    +0.000 A 
ATOM     10  C   UNL     1       3.085   2.647  20.910  0.00  0.00    +0.000 C 
ATOM     11  C   UNL     1       4.090   5.376  16.884  0.00  0.00    +0.000 C 
ENDROOT
BRANCH   1  12
ATOM     12  C   UNL     1       6.443   4.572  16.920  0.00  0.00    +0.000 C 
ATOM     13  C   UNL     1       7.783   4.481  17.666  0.00  0.00    +0.000 C 
BRANCH  12  18
ATOM     14  C   UNL     1       6.159   3.310  12.224  0.00  0.00    +0.000 C 
ATOM     15  C   UNL     1       6.597   4.091  13.393  0.00  0.00    +0.000 A 
ATOM     16  N   UNL     1       7.424   5.112  13.450  0.00  0.00    +0.000 NA
ATOM     17  N   UNL     1       7.502   5.474  14.776  0.00  0.00    +0.000 NA
ATOM     18  C   UNL     1       6.721   4.644  15.438  0.00  0.00    +0.000 A 
ATOM     19  O   UNL     1       6.106   3.729  14.620  0.00  0.00    +0.000 OA
ENDBRANCH  12  18
ENDBRANCH   1  12
TORSDOF 2
ENDMDL
MODEL 2
REMARK VINA RESULT:      -7.0      1.015      1.123
REMARK  Name = 
REMARK  6 active torsions:
REMARK  status: ('A' for Active; 'I' for Inactive)
REMARK    1  A    between atoms: C_1  and  C_2
REMARK    2  A    between atoms: C_5  and  C_6
REMARK    3  A    between atoms: C_6  and  C_7
REMARK    4  A    between atoms: C_6  and  N_8
REMARK    5  A    between atoms: C_14  and  C_15
REMARK    6  A    between atoms: C_16  and  C_17
REMARK                            x       y       z     vdW  Elec       q    Type
REMARK                         _______ _______ _______ _____ _____    ______ ____
ROOT
ATOM      1  N   UNL     1       5.346   5.547  17.350  0.00  0.00    +0.000 NA
ATOM      2  C   UNL     1       5.289   5.959  18.764  0.00  0.00    +0.000 C 
ATOM      3  C   UNL     1       4.618   4.965  19.721  0.00  0.00    +0.000 C 
ATOM      4  N   UNL     1       3.495   4.292  19.102  0.00  0.00    +0.000 N 
ATOM      5  C   UNL     1       3.147   4.453  17.783  0.00  0.00    +0.000 A 
ATOM      6  N   UNL     1       2.035   3.796  17.520  0.00  0.00    +0.000 NA
ATOM      7  C   UNL     1       1.726   3.105  18.671  0.00  0.00    +0.000 A 
ATOM      8  C   UNL     1       0.536   2.225  18.729  0.00  0.00    +0.000 C 
ATOM      9  C   UNL     1       2.687   3.327  19.642  0.00  0.00    +0.000 A 
ATOM     10  C   UNL     1       2.913   2.711  20.969  0.00  0.00    +0.000 C 
ATOM     11  C   UNL     1       3.985   5.263  16.845  0.00  0.00    +0.000 C 
ENDROOT
BRANCH   1  12
ATOM     12  C   UNL     1       6.353   4.517  16.993  0.00  0.00    +0.000 C 
ATOM     13  C   UNL     1       7.721   4.577  17.688  0.00  0.00    +0.000 C 
BRANCH  12  18
ATOM     14  C   UNL     1       8.209   5.681  12.643  0.00  0.00    +0.000 C 
ATOM     15  C   UNL     1       7.383   4.938  13.608  0.00  0.00    +0.000 A 
ATOM     16  N   UNL     1       6.543   3.948  13.396  0.00  0.00    +0.000 NA
ATOM     17  N   UNL     1       6.020   3.613  14.625  0.00  0.00    +0.000 NA
ATOM     18  C   UNL     1       6.573   4.428  15.502  0.00  0.00    +0.000 A 
ATOM     19  O   UNL     1       7.458   5.304  14.926  0.00  0.00    +0.000 OA
ENDBRANCH  12  18
ENDBRANCH   1  12
TORSDOF 2
ENDMDL
MODEL 3
REMARK VINA RESULT:      -6.5      2.787      6.116
REMARK  Name = 
REMARK  6 active torsions:
REMARK  status: ('A' for Active; 'I' for Inactive)
REMARK    1  A    between atoms: C_1  and  C_2
REMARK    2  A    between atoms: C_5  and  C_6
REMARK    3  A    between atoms: C_6  and  C_7
REMARK    4  A    between atoms: C_6  and  N_8
REMARK    5  A    between atoms: C_14  and  C_15
REMARK    6  A    between atoms: C_16  and  C_17
REMARK                            x       y       z     vdW  Elec       q    Type
REMARK                         _______ _______ _______ _____ _____    ______ ____
ROOT
ATOM      1  N   UNL     1       3.861   4.854  16.838  0.00  0.00    +0.000 NA
ATOM      2  C   UNL     1       4.763   3.782  17.293  0.00  0.00    +0.000 C 
ATOM      3  C   UNL     1       5.869   4.211  18.268  0.00  0.00    +0.000 C 
ATOM      4  N   UNL     1       6.384   5.528  17.955  0.00  0.00    +0.000 N 
ATOM      5  C   UNL     1       5.867   6.331  16.969  0.00  0.00    +0.000 A 
ATOM      6  N   UNL     1       6.589   7.427  16.846  0.00  0.00    +0.000 NA
ATOM      7  C   UNL     1       7.525   7.375  17.856  0.00  0.00    +0.000 A 
ATOM      8  C   UNL     1       8.502   8.474  18.039  0.00  0.00    +0.000 C 
ATOM      9  C   UNL     1       7.347   6.237  18.622  0.00  0.00    +0.000 A 
ATOM     10  C   UNL     1       7.963   5.796  19.894  0.00  0.00    +0.000 C 
ATOM     11  C   UNL     1       4.638   5.944  16.208  0.00  0.00    +0.000 C 
ENDROOT
BRANCH   1  12
ATOM     12  C   UNL     1       2.835   5.322  17.803  0.00  0.00    +0.000 C 
ATOM     13  C   UNL     1       3.252   6.372  18.844  0.00  0.00    +0.000 C 
BRANCH  12  18
ATOM     14  C   UNL     1       1.534   2.503  21.557  0.00  0.00    +0.000 C 
ATOM     15  C   UNL     1       1.596   2.949  20.155  0.00  0.00    +0.000 A 
ATOM     16  N   UNL     1       1.060   2.405  19.084  0.00  0.00    +0.000 NA
ATOM     17  N   UNL     1       1.422   3.203  18.022  0.00  0.00    +0.000 NA
ATOM     18  C   UNL     1       2.161   4.176  18.518  0.00  0.00    +0.000 A 
ATOM     19  O   UNL     1       2.317   4.081  19.878  0.00  0.00    +0.000 OA
ENDBRANCH  12  18
ENDBRANCH   1  12
TORSDOF 2
ENDMDL
MODEL 4
REMARK VINA RESULT:      -6.3      1.246      2.006
REMARK  Name = 
REMARK  6 active torsions:
REMARK  status: ('A' for Active; 'I' for Inactive)
REMARK    1  A    between atoms: C_1  and  C_2
REMARK    2  A    between atoms: C_5  and  C_6
REMARK    3  A    between atoms: C_6  and  C_7
REMARK    4  A    between atoms: C_6  and  N_8
REMARK    5  A    between atoms: C_14  and  C_15
REMARK    6  A    between atoms: C_16  and  C_17
REMARK                            x       y       z     vdW  Elec       q    Type
REMARK                         _______ _______ _______ _____ _____    ______ ____
ROOT
ATOM      1  N   UNL     1       6.154   5.560  18.181  0.00  0.00    +0.000 NA
ATOM      2  C   UNL     1       6.357   4.107  18.044  0.00  0.00    +0.000 C 
ATOM      3  C   UNL     1       5.081   3.267  17.898  0.00  0.00    +0.000 C 
ATOM      4  N   UNL     1       3.995   3.789  18.702  0.00  0.00    +0.000 N 
ATOM      5  C   UNL     1       4.077   4.956  19.422  0.00  0.00    +0.000 A 
ATOM      6  N   UNL     1       2.979   5.135  20.129  0.00  0.00    +0.000 NA
ATOM      7  C   UNL     1       2.128   4.114  19.765  0.00  0.00    +0.000 A 
ATOM      8  C   UNL     1       0.770   4.015  20.351  0.00  0.00    +0.000 C 
ATOM      9  C   UNL     1       2.713   3.317  18.797  0.00  0.00    +0.000 A 
ATOM     10  C   UNL     1       2.178   2.214  17.969  0.00  0.00    +0.000 C 
ATOM     11  C   UNL     1       5.275   5.847  19.336  0.00  0.00    +0.000 C 
ENDROOT
BRANCH   1  12
ATOM     12  C   UNL     1       5.798   6.307  16.948  0.00  0.00    +0.000 C 
ATOM     13  C   UNL     1       4.312   6.599  16.689  0.00  0.00    +0.000 C 
BRANCH  12  18
ATOM     14  C   UNL     1       5.901   3.665  12.857  0.00  0.00    +0.000 C 
ATOM     15  C   UNL     1       6.431   4.525  13.928  0.00  0.00    +0.000 A 
ATOM     16  N   UNL     1       7.654   4.976  14.105  0.00  0.00    +0.000 NA
ATOM     17  N   UNL     1       7.626   5.727  15.259  0.00  0.00    +0.000 NA
ATOM     18  C   UNL     1       6.388   5.677  15.710  0.00  0.00    +0.000 A 
ATOM     19  O   UNL     1       5.564   4.926  14.911  0.00  0.00    +0.000 OA
ENDBRANCH  12  18
ENDBRANCH   1  12
TORSDOF 2
ENDMDL
MODEL 5
REMARK VINA RESULT:      -6.1      1.469      2.239
REMARK  Name = 
REMARK  6 active torsions:
REMARK  status: ('A' for Active; 'I' for Inactive)
REMARK    1  A    between atoms: C_1  and  C_2
REMARK    2  A    between atoms: C_5  and  C_6
REMARK    3  A    between atoms: C_6  and  C_7
REMARK    4  A    between atoms: C_6  and  N_8
REMARK    5  A    between atoms: C_14  and  C_15
REMARK    6  A    between atoms: C_16  and  C_17
REMARK                            x       y       z     vdW  Elec       q    Type
REMARK                         _______ _______ _______ _____ _____    ______ ____
ROOT
ATOM      1  N   UNL     1       4.311   3.498  16.864  0.00  0.00    +0.000 NA
ATOM      2  C   UNL     1       3.203   4.443  16.633  0.00  0.00    +0.000 C 
ATOM      3  C   UNL     1       2.577   5.055  17.894  0.00  0.00    +0.000 C 
ATOM      4  N   UNL     1       2.524   4.106  18.987  0.00  0.00    +0.000 N 
ATOM      5  C   UNL     1       3.068   2.846  18.925  0.00  0.00    +0.000 A 
ATOM      6  N   UNL     1       2.790   2.174  20.024  0.00  0.00    +0.000 NA
ATOM      7  C   UNL     1       2.148   3.064  20.857  0.00  0.00    +0.000 A 
ATOM      8  C   UNL     1       1.708   2.653  22.210  0.00  0.00    +0.000 C 
ATOM      9  C   UNL     1       2.061   4.310  20.260  0.00  0.00    +0.000 A 
ATOM     10  C   UNL     1       1.624   5.626  20.777  0.00  0.00    +0.000 C 
ATOM     11  C   UNL     1       3.868   2.395  17.744  0.00  0.00    +0.000 C 
ENDROOT
BRANCH   1  12
ATOM     12  C   UNL     1       5.623   4.083  17.237  0.00  0.00    +0.000 C 
ATOM     13  C   UNL     1       5.640   5.192  18.300  0.00  0.00    +0.000 C 
BRANCH  12  18
ATOM     14  C   UNL     1       7.052   4.245  12.583  0.00  0.00    +0.000 C 
ATOM     15  C   UNL     1       7.021   4.626  14.005  0.00  0.00    +0.000 A 
ATOM     16  N   UNL     1       7.736   5.529  14.641  0.00  0.00    +0.000 NA
ATOM     17  N   UNL     1       7.330   5.489  15.956  0.00  0.00    +0.000 NA
ATOM     18  C   UNL     1       6.399   4.558  16.033  0.00  0.00    +0.000 A 
ATOM     19  O   UNL     1       6.146   3.961  14.824  0.00  0.00    +0.000 OA
ENDBRANCH  12  18
ENDBRANCH   1  12
TORSDOF 2
ENDMDL
MODEL 6
REMARK VINA RESULT:      -6.1      1.461      2.388
REMARK  Name = 
REMARK  6 active torsions:
REMARK  status: ('A' for Active; 'I' for Inactive)
REMARK    1  A    between atoms: C_1  and  C_2
REMARK    2  A    between atoms: C_5  and  C_6
REMARK    3  A    between atoms: C_6  and  C_7
REMARK    4  A    between atoms: C_6  and  N_8
REMARK    5  A    between atoms: C_14  and  C_15
REMARK    6  A    between atoms: C_16  and  C_17
REMARK                            x       y       z     vdW  Elec       q    Type
REMARK                         _______ _______ _______ _____ _____    ______ ____
ROOT
ATOM      1  N   UNL     1       6.452   4.677  17.051  0.00  0.00    +0.000 NA
ATOM      2  C   UNL     1       5.755   3.400  16.813  0.00  0.00    +0.000 C 
ATOM      3  C   UNL     1       4.231   3.430  16.988  0.00  0.00    +0.000 C 
ATOM      4  N   UNL     1       3.828   4.302  18.073  0.00  0.00    +0.000 N 
ATOM      5  C   UNL     1       4.705   5.083  18.784  0.00  0.00    +0.000 A 
ATOM      6  N   UNL     1       4.078   5.697  19.767  0.00  0.00    +0.000 NA
ATOM      7  C   UNL     1       2.744   5.388  19.611  0.00  0.00    +0.000 A 
ATOM      8  C   UNL     1       1.727   5.938  20.538  0.00  0.00    +0.000 C 
ATOM      9  C   UNL     1       2.558   4.593  18.494  0.00  0.00    +0.000 A 
ATOM     10  C   UNL     1       1.334   4.130  17.802  0.00  0.00    +0.000 C 
ATOM     11  C   UNL     1       6.150   5.179  18.409  0.00  0.00    +0.000 C 
ENDROOT
BRANCH   1  12
ATOM     12  C   UNL     1       6.346   5.706  15.987  0.00  0.00    +0.000 C 
ATOM     13  C   UNL     1       5.049   6.525  15.905  0.00  0.00    +0.000 C 
BRANCH  12  18
ATOM     14  C   UNL     1       5.661   3.049  11.962  0.00  0.00    +0.000 C 
ATOM     15  C   UNL     1       6.348   3.986  12.866  0.00  0.00    +0.000 A 
ATOM     16  N   UNL     1       7.501   4.599  12.710  0.00  0.00    +0.000 NA
ATOM     17  N   UNL     1       7.695   5.356  13.844  0.00  0.00    +0.000 NA
ATOM     18  C   UNL     1       6.648   5.146  14.618  0.00  0.00    +0.000 A 
ATOM     19  O   UNL     1       5.742   4.280  14.059  0.00  0.00    +0.000 OA
ENDBRANCH  12  18
ENDBRANCH   1  12
TORSDOF 2
ENDMDL
MODEL 7
REMARK VINA RESULT:      -6.1      2.492      3.941
REMARK  Name = 
REMARK  6 active torsions:
REMARK  status: ('A' for Active; 'I' for Inactive)
REMARK    1  A    between atoms: C_1  and  C_2
REMARK    2  A    between atoms: C_5  and  C_6
REMARK    3  A    between atoms: C_6  and  C_7
REMARK    4  A    between atoms: C_6  and  N_8
REMARK    5  A    between atoms: C_14  and  C_15
REMARK    6  A    between atoms: C_16  and  C_17
REMARK                            x       y       z     vdW  Elec       q    Type
REMARK                         _______ _______ _______ _____ _____    ______ ____
ROOT
ATOM      1  N   UNL     1       5.602   4.425  17.215  0.00  0.00    +0.000 NA
ATOM      2  C   UNL     1       4.715   3.610  16.366  0.00  0.00    +0.000 C 
ATOM      3  C   UNL     1       3.279   3.435  16.878  0.00  0.00    +0.000 C 
ATOM      4  N   UNL     1       3.230   3.322  18.322  0.00  0.00    +0.000 N 
ATOM      5  C   UNL     1       4.330   3.462  19.132  0.00  0.00    +0.000 A 
ATOM      6  N   UNL     1       4.008   3.217  20.386  0.00  0.00    +0.000 NA
ATOM      7  C   UNL     1       2.643   3.026  20.393  0.00  0.00    +0.000 A 
ATOM      8  C   UNL     1       1.924   2.752  21.659  0.00  0.00    +0.000 C 
ATOM      9  C   UNL     1       2.125   3.186  19.120  0.00  0.00    +0.000 A 
ATOM     10  C   UNL     1       0.734   3.249  18.620  0.00  0.00    +0.000 C 
ATOM     11  C   UNL     1       5.662   3.861  18.581  0.00  0.00    +0.000 C 
ENDROOT
BRANCH   1  12
ATOM     12  C   UNL     1       5.404   5.895  17.174  0.00  0.00    +0.000 C 
ATOM     13  C   UNL     1       4.990   6.528  15.837  0.00  0.00    +0.000 C 
BRANCH  12  18
ATOM     14  C   UNL     1       8.463   9.636  17.786  0.00  0.00    +0.000 C 
ATOM     15  C   UNL     1       7.928   8.278  17.978  0.00  0.00    +0.000 A 
ATOM     16  N   UNL     1       8.405   7.291  18.705  0.00  0.00    +0.000 NA
ATOM     17  N   UNL     1       7.539   6.233  18.538  0.00  0.00    +0.000 NA
ATOM     18  C   UNL     1       6.596   6.647  17.714  0.00  0.00    +0.000 A 
ATOM     19  O   UNL     1       6.777   7.947  17.313  0.00  0.00    +0.000 OA
ENDBRANCH  12  18
ENDBRANCH   1  12
TORSDOF 2
ENDMDL
MODEL 8
REMARK VINA RESULT:      -5.9      2.548      3.450
REMARK  Name = 
REMARK  6 active torsions:
REMARK  status: ('A' for Active; 'I' for Inactive)
REMARK    1  A    between atoms: C_1  and  C_2
REMARK    2  A    between atoms: C_5  and  C_6
REMARK    3  A    between atoms: C_6  and  C_7
REMARK    4  A    between atoms: C_6  and  N_8
REMARK    5  A    between atoms: C_14  and  C_15
REMARK    6  A    between atoms: C_16  and  C_17
REMARK                            x       y       z     vdW  Elec       q    Type
REMARK                         _______ _______ _______ _____ _____    ______ ____
ROOT
ATOM      1  N   UNL     1       5.148   4.614  17.055  0.00  0.00    +0.000 NA
ATOM      2  C   UNL     1       4.255   5.776  16.899  0.00  0.00    +0.000 C 
ATOM      3  C   UNL     1       3.367   6.101  18.108  0.00  0.00    +0.000 C 
ATOM      4  N   UNL     1       2.909   4.902  18.781  0.00  0.00    +0.000 N 
ATOM      5  C   UNL     1       3.313   3.636  18.433  0.00  0.00    +0.000 A 
ATOM      6  N   UNL     1       2.668   2.737  19.150  0.00  0.00    +0.000 NA
ATOM      7  C   UNL     1       1.915   3.451  20.057  0.00  0.00    +0.000 A 
ATOM      8  C   UNL     1       1.071   2.753  21.054  0.00  0.00    +0.000 C 
ATOM      9  C   UNL     1       2.130   4.809  19.903  0.00  0.00    +0.000 A 
ATOM     10  C   UNL     1       1.706   5.974  20.710  0.00  0.00    +0.000 C 
ATOM     11  C   UNL     1       4.362   3.407  17.391  0.00  0.00    +0.000 C 
ENDROOT
BRANCH   1  12
ATOM     12  C   UNL     1       6.355   4.805  17.897  0.00  0.00    +0.000 C 
ATOM     13  C   UNL     1       6.187   4.736  19.423  0.00  0.00    +0.000 C 
BRANCH  12  18
ATOM     14  C   UNL     1       8.646   9.032  18.681  0.00  0.00    +0.000 C 
ATOM     15  C   UNL     1       8.093   7.915  17.896  0.00  0.00    +0.000 A 
ATOM     16  N   UNL     1       8.082   7.740  16.592  0.00  0.00    +0.000 NA
ATOM     17  N   UNL     1       7.439   6.543  16.368  0.00  0.00    +0.000 NA
ATOM     18  C   UNL     1       7.096   6.074  17.552  0.00  0.00    +0.000 A 
ATOM     19  O   UNL     1       7.482   6.897  18.579  0.00  0.00    +0.000 OA
ENDBRANCH  12  18
ENDBRANCH   1  12
TORSDOF 2
ENDMDL
MODEL 9
REMARK VINA RESULT:      -5.9      1.367      1.492
REMARK  Name = 
REMARK  6 active torsions:
REMARK  status: ('A' for Active; 'I' for Inactive)
REMARK    1  A    between atoms: C_1  and  C_2
REMARK    2  A    between atoms: C_5  and  C_6
REMARK    3  A    between atoms: C_6  and  C_7
REMARK    4  A    between atoms: C_6  and  N_8
REMARK    5  A    between atoms: C_14  and  C_15
REMARK    6  A    between atoms: C_16  and  C_17
REMARK                            x       y       z     vdW  Elec       q    Type
REMARK                         _______ _______ _______ _____ _____    ______ ____
ROOT
ATOM      1  N   UNL     1       5.420   5.762  17.059  0.00  0.00    +0.000 NA
ATOM      2  C   UNL     1       6.229   5.321  18.209  0.00  0.00    +0.000 C 
ATOM      3  C   UNL     1       5.560   4.303  19.143  0.00  0.00    +0.000 C 
ATOM      4  N   UNL     1       4.141   4.556  19.291  0.00  0.00    +0.000 N 
ATOM      5  C   UNL     1       3.467   5.528  18.593  0.00  0.00    +0.000 A 
ATOM      6  N   UNL     1       2.213   5.594  18.996  0.00  0.00    +0.000 NA
ATOM      7  C   UNL     1       2.054   4.563  19.895  0.00  0.00    +0.000 A 
ATOM      8  C   UNL     1       0.742   4.316  20.538  0.00  0.00    +0.000 C 
ATOM      9  C   UNL     1       3.227   3.840  20.018  0.00  0.00    +0.000 A 
ATOM     10  C   UNL     1       3.539   2.570  20.710  0.00  0.00    +0.000 C 
ATOM     11  C   UNL     1       4.137   6.333  17.525  0.00  0.00    +0.000 C 
ENDROOT
BRANCH   1  12
ATOM     12  C   UNL     1       5.283   4.808  15.930  0.00  0.00    +0.000 C 
ATOM     13  C   UNL     1       5.179   3.312  16.262  0.00  0.00    +0.000 C 
BRANCH  12  18
ATOM     14  C   UNL     1       7.489   4.382  11.608  0.00  0.00    +0.000 C 
ATOM     15  C   UNL     1       7.321   4.809  13.007  0.00  0.00    +0.000 A 
ATOM     16  N   UNL     1       8.143   5.493  13.773  0.00  0.00    +0.000 NA
ATOM     17  N   UNL     1       7.519   5.620  14.994  0.00  0.00    +0.000 NA
ATOM     18  C   UNL     1       6.361   4.997  14.891  0.00  0.00    +0.000 A 
ATOM     19  O   UNL     1       6.163   4.452  13.647  0.00  0.00    +0.000 OA
ENDBRANCH  12  18
ENDBRANCH   1  12
TORSDOF 2
ENDMDL
