MODEL 1
REMARK VINA RESULT:      -8.3      0.000      0.000
REMARK  Name = 
REMARK  5 active torsions:
REMARK  status: ('A' for Active; 'I' for Inactive)
REMARK    1  A    between atoms: C_1  and  C_2
REMARK    2  A    between atoms: N_5  and  C_6
REMARK    3  A    between atoms: C_6  and  C_7
REMARK    4  A    between atoms: N_11  and  C_12
REMARK    5  A    between atoms: C_12  and  C_13
REMARK                            x       y       z     vdW  Elec       q    Type
REMARK                         _______ _______ _______ _____ _____    ______ ____
ROOT
ATOM      1  C   UNL     1       3.937   3.058  18.288  0.00  0.00    +0.000 C 
ENDROOT
BRANCH   1   2
ATOM      2  C   UNL     1       4.958   4.159  18.028  0.00  0.00    +0.000 A 
ATOM      3  N   UNL     1       5.886   4.526  18.860  0.00  0.00    +0.000 NA
ATOM      4  C   UNL     1       6.657   5.662  18.518  0.00  0.00    +0.000 A 
ATOM      5  C   UNL     1       7.738   6.032  19.320  0.00  0.00    +0.000 A 
ATOM      6  C   UNL     1       8.483   7.187  19.033  0.00  0.00    +0.000 A 
ATOM      7  C   UNL     1       8.136   8.005  17.957  0.00  0.00    +0.000 A 
ATOM      8  C   UNL     1       7.073   7.644  17.137  0.00  0.00    +0.000 A 
ATOM      9  C   UNL     1       6.370   6.465  17.405  0.00  0.00    +0.000 A 
ATOM     10  C   UNL     1       5.339   5.992  16.480  0.00  0.00    +0.000 A 
ATOM     11  O   UNL     1       5.065   6.584  15.444  0.00  0.00    +0.000 OA
ATOM     12  N   UNL     1       4.715   4.835  16.854  0.00  0.00    +0.000 N 
ATOM     13  H   UNL     1       4.135   4.398  16.144  0.00  0.00    +0.000 HD
ENDBRANCH   1   2
BRANCH   1  18
ATOM     14  C   UNL     1       1.869   4.203  19.293  0.00  0.00    +0.000 C 
ATOM     15  C   UNL     1       0.996   3.263  20.129  0.00  0.00    +0.000 C 
ATOM     16  C   UNL     1       0.630   2.143  19.185  0.00  0.00    +0.000 C 
ATOM     17  C   UNL     1       1.748   2.113  18.158  0.00  0.00    +0.000 C 
ATOM     18  N   UNL     1       2.507   3.386  18.241  0.00  0.00    +0.000 NA
BRANCH  14  19
ATOM     19  C   UNL     1       2.607   5.256  20.144  0.00  0.00    +0.000 C 
BRANCH  19  24
ATOM     20  C   UNL     1       1.863   9.598  17.780  0.00  0.00    +0.000 C 
ATOM     21  C   UNL     1       1.944   8.538  18.806  0.00  0.00    +0.000 A 
ATOM     22  C   UNL     1       1.375   8.533  20.097  0.00  0.00    +0.000 A 
ATOM     23  N   UNL     1       1.623   7.404  20.764  0.00  0.00    +0.000 NA
ATOM     24  N   UNL     1       2.302   6.647  19.878  0.00  0.00    +0.000 N 
ATOM     25  C   UNL     1       2.577   7.316  18.715  0.00  0.00    +0.000 A 
ENDBRANCH  19  24
ENDBRANCH  14  19
ENDBRANCH   1  18
TORSDOF 4
ENDMDL
MODEL 2
REMARK VINA RESULT:      -8.0      2.796      6.764
REMARK  Name = 
REMARK  5 active torsions:
REMARK  status: ('A' for Active; 'I' for Inactive)
REMARK    1  A    between atoms: C_1  and  C_2
REMARK    2  A    between atoms: N_5  and  C_6
REMARK    3  A    between atoms: C_6  and  C_7
REMARK    4  A    between atoms: N_11  and  C_12
REMARK    5  A    between atoms: C_12  and  C_13
REMARK                            x       y       z     vdW  Elec       q    Type
REMARK                         _______ _______ _______ _____ _____    ______ ____
ROOT
ATOM      1  C   UNL     1       4.831   6.665  16.312  0.00  0.00    +0.000 C 
ENDROOT
BRANCH   1   2
ATOM      2  C   UNL     1       4.051   6.007  17.444  0.00  0.00    +0.000 A 
ATOM      3  N   UNL     1       3.789   4.737  17.528  0.00  0.00    +0.000 NA
ATOM      4  C   UNL     1       2.929   4.316  18.569  0.00  0.00    +0.000 A 
ATOM      5  C   UNL     1       2.705   2.953  18.773  0.00  0.00    +0.000 A 
ATOM      6  C   UNL     1       1.813   2.513  19.764  0.00  0.00    +0.000 A 
ATOM      7  C   UNL     1       1.108   3.431  20.543  0.00  0.00    +0.000 A 
ATOM      8  C   UNL     1       1.331   4.793  20.366  0.00  0.00    +0.000 A 
ATOM      9  C   UNL     1       2.259   5.217  19.409  0.00  0.00    +0.000 A 
ATOM     10  C   UNL     1       2.612   6.632  19.299  0.00  0.00    +0.000 A 
ATOM     11  O   UNL     1       2.136   7.487  20.034  0.00  0.00    +0.000 OA
ATOM     12  N   UNL     1       3.522   6.926  18.322  0.00  0.00    +0.000 N 
ATOM     13  H   UNL     1       3.914   7.862  18.351  0.00  0.00    +0.000 HD
ENDBRANCH   1   2
BRANCH   1  18
ATOM     14  C   UNL     1       6.998   5.284  16.351  0.00  0.00    +0.000 C 
ATOM     15  C   UNL     1       7.599   5.129  17.751  0.00  0.00    +0.000 C 
ATOM     16  C   UNL     1       7.810   6.544  18.233  0.00  0.00    +0.000 C 
ATOM     17  C   UNL     1       6.795   7.377  17.470  0.00  0.00    +0.000 C 
ATOM     18  N   UNL     1       6.297   6.585  16.318  0.00  0.00    +0.000 NA
BRANCH  14  19
ATOM     19  C   UNL     1       6.416   3.968  15.796  0.00  0.00    +0.000 C 
BRANCH  19  24
ATOM     20  C   UNL     1       4.496   3.343  11.222  0.00  0.00    +0.000 C 
ATOM     21  C   UNL     1       5.407   3.620  12.352  0.00  0.00    +0.000 A 
ATOM     22  C   UNL     1       6.669   4.250  12.316  0.00  0.00    +0.000 A 
ATOM     23  N   UNL     1       7.222   4.364  13.524  0.00  0.00    +0.000 NA
ATOM     24  N   UNL     1       6.286   3.863  14.357  0.00  0.00    +0.000 N 
ATOM     25  C   UNL     1       5.211   3.342  13.688  0.00  0.00    +0.000 A 
ENDBRANCH  19  24
ENDBRANCH  14  19
ENDBRANCH   1  18
TORSDOF 4
ENDMDL
MODEL 3
REMARK VINA RESULT:      -7.8      1.980      2.921
REMARK  Name = 
REMARK  5 active torsions:
REMARK  status: ('A' for Active; 'I' for Inactive)
REMARK    1  A    between atoms: C_1  and  C_2
REMARK    2  A    between atoms: N_5  and  C_6
REMARK    3  A    between atoms: C_6  and  C_7
REMARK    4  A    between atoms: N_11  and  C_12
REMARK    5  A    between atoms: C_12  and  C_13
REMARK                            x       y       z     vdW  Elec       q    Type
REMARK                         _______ _______ _______ _____ _____    ______ ____
ROOT
ATOM      1  C   UNL     1       4.034   4.122  18.312  0.00  0.00    +0.000 C 
ENDROOT
BRANCH   1   2
ATOM      2  C   UNL     1       4.815   4.452  17.046  0.00  0.00    +0.000 A 
ATOM      3  N   UNL     1       4.692   3.831  15.912  0.00  0.00    +0.000 NA
ATOM      4  C   UNL     1       5.598   4.173  14.880  0.00  0.00    +0.000 A 
ATOM      5  C   UNL     1       5.440   3.618  13.609  0.00  0.00    +0.000 A 
ATOM      6  C   UNL     1       6.358   3.898  12.584  0.00  0.00    +0.000 A 
ATOM      7  C   UNL     1       7.465   4.711  12.827  0.00  0.00    +0.000 A 
ATOM      8  C   UNL     1       7.631   5.286  14.082  0.00  0.00    +0.000 A 
ATOM      9  C   UNL     1       6.683   5.039  15.080  0.00  0.00    +0.000 A 
ATOM     10  C   UNL     1       6.758   5.740  16.362  0.00  0.00    +0.000 A 
ATOM     11  O   UNL     1       7.626   6.568  16.607  0.00  0.00    +0.000 OA
ATOM     12  N   UNL     1       5.783   5.408  17.260  0.00  0.00    +0.000 N 
ATOM     13  H   UNL     1       5.710   6.010  18.074  0.00  0.00    +0.000 HD
ENDBRANCH   1   2
BRANCH   1  18
ATOM     14  C   UNL     1       1.730   4.467  19.395  0.00  0.00    +0.000 C 
ATOM     15  C   UNL     1       1.143   3.192  20.004  0.00  0.00    +0.000 C 
ATOM     16  C   UNL     1       1.099   2.208  18.860  0.00  0.00    +0.000 C 
ATOM     17  C   UNL     1       2.184   2.667  17.903  0.00  0.00    +0.000 C 
ATOM     18  N   UNL     1       2.568   4.059  18.249  0.00  0.00    +0.000 NA
BRANCH  14  19
ATOM     19  C   UNL     1       2.151   5.504  20.455  0.00  0.00    +0.000 C 
BRANCH  19  24
ATOM     20  C   UNL     1       1.857   9.776  17.875  0.00  0.00    +0.000 C 
ATOM     21  C   UNL     1       1.813   8.762  18.948  0.00  0.00    +0.000 A 
ATOM     22  C   UNL     1       1.197   8.864  20.214  0.00  0.00    +0.000 A 
ATOM     23  N   UNL     1       1.325   7.751  20.939  0.00  0.00    +0.000 NA
ATOM     24  N   UNL     1       1.972   6.901  20.116  0.00  0.00    +0.000 N 
ATOM     25  C   UNL     1       2.345   7.490  18.937  0.00  0.00    +0.000 A 
ENDBRANCH  19  24
ENDBRANCH  14  19
ENDBRANCH   1  18
TORSDOF 4
ENDMDL
MODEL 4
REMARK VINA RESULT:      -7.7      3.074      7.102
REMARK  Name = 
REMARK  5 active torsions:
REMARK  status: ('A' for Active; 'I' for Inactive)
REMARK    1  A    between atoms: C_1  and  C_2
REMARK    2  A    between atoms: N_5  and  C_6
REMARK    3  A    between atoms: C_6  and  C_7
REMARK    4  A    between atoms: N_11  and  C_12
REMARK    5  A    between atoms: C_12  and  C_13
REMARK                            x       y       z     vdW  Elec       q    Type
REMARK                         _______ _______ _______ _____ _____    ______ ____
ROOT
ATOM      1  C   UNL     1       4.761   6.991  17.268  0.00  0.00    +0.000 C 
ENDROOT
BRANCH   1   2
ATOM      2  C   UNL     1       3.877   5.991  18.003  0.00  0.00    +0.000 A 
ATOM      3  N   UNL     1       3.594   4.796  17.580  0.00  0.00    +0.000 NA
ATOM      4  C   UNL     1       2.642   4.051  18.315  0.00  0.00    +0.000 A 
ATOM      5  C   UNL     1       2.384   2.724  17.970  0.00  0.00    +0.000 A 
ATOM      6  C   UNL     1       1.404   1.983  18.650  0.00  0.00    +0.000 A 
ATOM      7  C   UNL     1       0.646   2.570  19.663  0.00  0.00    +0.000 A 
ATOM      8  C   UNL     1       0.900   3.887  20.033  0.00  0.00    +0.000 A 
ATOM      9  C   UNL     1       1.912   4.598  19.381  0.00  0.00    +0.000 A 
ATOM     10  C   UNL     1       2.292   5.934  19.843  0.00  0.00    +0.000 A 
ATOM     11  O   UNL     1       1.764   6.469  20.809  0.00  0.00    +0.000 OA
ATOM     12  N   UNL     1       3.286   6.534  19.122  0.00  0.00    +0.000 N 
ATOM     13  H   UNL     1       3.685   7.371  19.533  0.00  0.00    +0.000 HD
ENDBRANCH   1   2
BRANCH   1  18
ATOM     14  C   UNL     1       6.477   5.648  15.907  0.00  0.00    +0.000 C 
ATOM     15  C   UNL     1       6.941   4.366  16.603  0.00  0.00    +0.000 C 
ATOM     16  C   UNL     1       7.495   4.831  17.928  0.00  0.00    +0.000 C 
ATOM     17  C   UNL     1       6.779   6.138  18.218  0.00  0.00    +0.000 C 
ATOM     18  N   UNL     1       6.150   6.627  16.965  0.00  0.00    +0.000 NA
BRANCH  14  19
ATOM     19  C   UNL     1       5.597   5.379  14.670  0.00  0.00    +0.000 C 
BRANCH  19  24
ATOM     20  C   UNL     1       6.096   1.790  11.225  0.00  0.00    +0.000 C 
ATOM     21  C   UNL     1       6.331   2.953  12.105  0.00  0.00    +0.000 A 
ATOM     22  C   UNL     1       7.331   3.941  11.990  0.00  0.00    +0.000 A 
ATOM     23  N   UNL     1       7.249   4.871  12.944  0.00  0.00    +0.000 NA
ATOM     24  N   UNL     1       6.151   4.519  13.644  0.00  0.00    +0.000 N 
ATOM     25  C   UNL     1       5.610   3.335  13.217  0.00  0.00    +0.000 A 
ENDBRANCH  19  24
ENDBRANCH  14  19
ENDBRANCH   1  18
TORSDOF 4
ENDMDL
MODEL 5
REMARK VINA RESULT:      -7.7      0.740      1.216
REMARK  Name = 
REMARK  5 active torsions:
REMARK  status: ('A' for Active; 'I' for Inactive)
REMARK    1  A    between atoms: C_1  and  C_2
REMARK    2  A    between atoms: N_5  and  C_6
REMARK    3  A    between atoms: C_6  and  C_7
REMARK    4  A    between atoms: N_11  and  C_12
REMARK    5  A    between atoms: C_12  and  C_13
REMARK                            x       y       z     vdW  Elec       q    Type
REMARK                         _______ _______ _______ _____ _____    ______ ____
ROOT
ATOM      1  C   UNL     1       3.854   3.111  17.949  0.00  0.00    +0.000 C 
ENDROOT
BRANCH   1   2
ATOM      2  C   UNL     1       4.891   4.211  17.761  0.00  0.00    +0.000 A 
ATOM      3  N   UNL     1       5.821   4.514  18.617  0.00  0.00    +0.000 NA
ATOM      4  C   UNL     1       6.609   5.657  18.349  0.00  0.00    +0.000 A 
ATOM      5  C   UNL     1       7.691   5.962  19.176  0.00  0.00    +0.000 A 
ATOM      6  C   UNL     1       8.453   7.121  18.962  0.00  0.00    +0.000 A 
ATOM      7  C   UNL     1       8.123   8.009  17.938  0.00  0.00    +0.000 A 
ATOM      8  C   UNL     1       7.059   7.714  17.093  0.00  0.00    +0.000 A 
ATOM      9  C   UNL     1       6.338   6.531  17.285  0.00  0.00    +0.000 A 
ATOM     10  C   UNL     1       5.305   6.130  16.329  0.00  0.00    +0.000 A 
ATOM     11  O   UNL     1       5.044   6.789  15.331  0.00  0.00    +0.000 OA
ATOM     12  N   UNL     1       4.663   4.961  16.629  0.00  0.00    +0.000 N 
ATOM     13  H   UNL     1       4.081   4.577  15.892  0.00  0.00    +0.000 HD
ENDBRANCH   1   2
BRANCH   1  18
ATOM     14  C   UNL     1       1.953   4.531  18.934  0.00  0.00    +0.000 C 
ATOM     15  C   UNL     1       1.197   3.836  20.069  0.00  0.00    +0.000 C 
ATOM     16  C   UNL     1       0.696   2.548  19.462  0.00  0.00    +0.000 C 
ATOM     17  C   UNL     1       1.661   2.246  18.329  0.00  0.00    +0.000 C 
ATOM     18  N   UNL     1       2.434   3.475  18.019  0.00  0.00    +0.000 NA
BRANCH  14  19
ATOM     19  C   UNL     1       2.810   5.718  19.418  0.00  0.00    +0.000 C 
BRANCH  19  24
ATOM     20  C   UNL     1       0.524   9.491  21.771  0.00  0.00    +0.000 C 
ATOM     21  C   UNL     1       1.148   8.630  20.746  0.00  0.00    +0.000 A 
ATOM     22  C   UNL     1       1.550   8.985  19.441  0.00  0.00    +0.000 A 
ATOM     23  N   UNL     1       2.103   7.967  18.778  0.00  0.00    +0.000 NA
ATOM     24  N   UNL     1       2.117   6.964  19.679  0.00  0.00    +0.000 N 
ATOM     25  C   UNL     1       1.491   7.298  20.850  0.00  0.00    +0.000 A 
ENDBRANCH  19  24
ENDBRANCH  14  19
ENDBRANCH   1  18
TORSDOF 4
ENDMDL
MODEL 6
REMARK VINA RESULT:      -7.6      2.421      5.833
REMARK  Name = 
REMARK  5 active torsions:
REMARK  status: ('A' for Active; 'I' for Inactive)
REMARK    1  A    between atoms: C_1  and  C_2
REMARK    2  A    between atoms: N_5  and  C_6
REMARK    3  A    between atoms: C_6  and  C_7
REMARK    4  A    between atoms: N_11  and  C_12
REMARK    5  A    between atoms: C_12  and  C_13
REMARK                            x       y       z     vdW  Elec       q    Type
REMARK                         _______ _______ _______ _____ _____    ______ ____
ROOT
ATOM      1  C   UNL     1       4.582   5.960  17.793  0.00  0.00    +0.000 C 
ENDROOT
BRANCH   1   2
ATOM      2  C   UNL     1       3.433   6.824  18.298  0.00  0.00    +0.000 A 
ATOM      3  N   UNL     1       3.106   7.985  17.815  0.00  0.00    +0.000 NA
ATOM      4  C   UNL     1       2.104   8.716  18.496  0.00  0.00    +0.000 A 
ATOM      5  C   UNL     1       1.637   9.916  17.958  0.00  0.00    +0.000 A 
ATOM      6  C   UNL     1       0.684  10.687  18.643  0.00  0.00    +0.000 A 
ATOM      7  C   UNL     1       0.210  10.284  19.892  0.00  0.00    +0.000 A 
ATOM      8  C   UNL     1       0.651   9.083  20.436  0.00  0.00    +0.000 A 
ATOM      9  C   UNL     1       1.563   8.300  19.721  0.00  0.00    +0.000 A 
ATOM     10  C   UNL     1       1.937   6.971  20.206  0.00  0.00    +0.000 A 
ATOM     11  O   UNL     1       1.465   6.488  21.228  0.00  0.00    +0.000 OA
ATOM     12  N   UNL     1       2.843   6.305  19.428  0.00  0.00    +0.000 N 
ATOM     13  H   UNL     1       2.972   5.322  19.645  0.00  0.00    +0.000 HD
ENDBRANCH   1   2
BRANCH   1  18
ATOM     14  C   UNL     1       4.730   3.868  16.310  0.00  0.00    +0.000 C 
ATOM     15  C   UNL     1       6.060   3.739  15.564  0.00  0.00    +0.000 C 
ATOM     16  C   UNL     1       6.176   5.017  14.768  0.00  0.00    +0.000 C 
ATOM     17  C   UNL     1       5.344   6.033  15.530  0.00  0.00    +0.000 C 
ATOM     18  N   UNL     1       4.462   5.311  16.482  0.00  0.00    +0.000 NA
BRANCH  14  19
ATOM     19  C   UNL     1       4.556   2.812  17.421  0.00  0.00    +0.000 C 
BRANCH  19  24
ATOM     20  C   UNL     1       1.126   2.968  21.055  0.00  0.00    +0.000 C 
ATOM     21  C   UNL     1       1.797   2.910  19.740  0.00  0.00    +0.000 A 
ATOM     22  C   UNL     1       1.228   3.115  18.465  0.00  0.00    +0.000 A 
ATOM     23  N   UNL     1       2.122   3.011  17.480  0.00  0.00    +0.000 NA
ATOM     24  N   UNL     1       3.289   2.800  18.123  0.00  0.00    +0.000 N 
ATOM     25  C   UNL     1       3.128   2.663  19.476  0.00  0.00    +0.000 A 
ENDBRANCH  19  24
ENDBRANCH  14  19
ENDBRANCH   1  18
TORSDOF 4
ENDMDL
MODEL 7
REMARK VINA RESULT:      -7.6      1.913      5.719
REMARK  Name = 
REMARK  5 active torsions:
REMARK  status: ('A' for Active; 'I' for Inactive)
REMARK    1  A    between atoms: C_1  and  C_2
REMARK    2  A    between atoms: N_5  and  C_6
REMARK    3  A    between atoms: C_6  and  C_7
REMARK    4  A    between atoms: N_11  and  C_12
REMARK    5  A    between atoms: C_12  and  C_13
REMARK                            x       y       z     vdW  Elec       q    Type
REMARK                         _______ _______ _______ _____ _____    ______ ____
ROOT
ATOM      1  C   UNL     1       2.824   6.107  18.374  0.00  0.00    +0.000 C 
ENDROOT
BRANCH   1   2
ATOM      2  C   UNL     1       2.266   7.330  19.091  0.00  0.00    +0.000 A 
ATOM      3  N   UNL     1       1.840   7.344  20.319  0.00  0.00    +0.000 NA
ATOM      4  C   UNL     1       1.220   8.528  20.781  0.00  0.00    +0.000 A 
ATOM      5  C   UNL     1       0.846   8.636  22.121  0.00  0.00    +0.000 A 
ATOM      6  C   UNL     1       0.180   9.779  22.591  0.00  0.00    +0.000 A 
ATOM      7  C   UNL     1      -0.151  10.816  21.718  0.00  0.00    +0.000 A 
ATOM      8  C   UNL     1       0.228  10.734  20.382  0.00  0.00    +0.000 A 
ATOM      9  C   UNL     1       0.935   9.613  19.938  0.00  0.00    +0.000 A 
ATOM     10  C   UNL     1       1.464   9.564  18.575  0.00  0.00    +0.000 A 
ATOM     11  O   UNL     1       1.330  10.490  17.785  0.00  0.00    +0.000 OA
ATOM     12  N   UNL     1       2.128   8.414  18.253  0.00  0.00    +0.000 N 
ATOM     13  H   UNL     1       2.655   8.436  17.386  0.00  0.00    +0.000 HD
ENDBRANCH   1   2
BRANCH   1  18
ATOM     14  C   UNL     1       4.075   3.874  18.602  0.00  0.00    +0.000 C 
ATOM     15  C   UNL     1       3.190   2.650  18.354  0.00  0.00    +0.000 C 
ATOM     16  C   UNL     1       2.066   2.783  19.353  0.00  0.00    +0.000 C 
ATOM     17  C   UNL     1       1.968   4.271  19.639  0.00  0.00    +0.000 C 
ATOM     18  N   UNL     1       3.210   4.931  19.165  0.00  0.00    +0.000 NA
BRANCH  14  19
ATOM     19  C   UNL     1       5.115   4.103  17.487  0.00  0.00    +0.000 C 
BRANCH  19  24
ATOM     20  C   UNL     1       7.918   8.237  17.704  0.00  0.00    +0.000 C 
ATOM     21  C   UNL     1       7.393   6.869  17.888  0.00  0.00    +0.000 A 
ATOM     22  C   UNL     1       7.795   5.905  18.837  0.00  0.00    +0.000 A 
ATOM     23  N   UNL     1       7.098   4.771  18.746  0.00  0.00    +0.000 NA
ATOM     24  N   UNL     1       6.196   5.023  17.776  0.00  0.00    +0.000 N 
ATOM     25  C   UNL     1       6.383   6.245  17.186  0.00  0.00    +0.000 A 
ENDBRANCH  19  24
ENDBRANCH  14  19
ENDBRANCH   1  18
TORSDOF 4
ENDMDL
MODEL 8
REMARK VINA RESULT:      -7.6      2.145      3.141
REMARK  Name = 
REMARK  5 active torsions:
REMARK  status: ('A' for Active; 'I' for Inactive)
REMARK    1  A    between atoms: C_1  and  C_2
REMARK    2  A    between atoms: N_5  and  C_6
REMARK    3  A    between atoms: C_6  and  C_7
REMARK    4  A    between atoms: N_11  and  C_12
REMARK    5  A    between atoms: C_12  and  C_13
REMARK                            x       y       z     vdW  Elec       q    Type
REMARK                         _______ _______ _______ _____ _____    ______ ____
ROOT
ATOM      1  C   UNL     1       4.125   4.260  18.367  0.00  0.00    +0.000 C 
ENDROOT
BRANCH   1   2
ATOM      2  C   UNL     1       4.868   4.553  17.070  0.00  0.00    +0.000 A 
ATOM      3  N   UNL     1       4.735   3.879  15.966  0.00  0.00    +0.000 NA
ATOM      4  C   UNL     1       5.608   4.196  14.899  0.00  0.00    +0.000 A 
ATOM      5  C   UNL     1       5.435   3.582  13.658  0.00  0.00    +0.000 A 
ATOM      6  C   UNL     1       6.322   3.838  12.600  0.00  0.00    +0.000 A 
ATOM      7  C   UNL     1       7.414   4.687  12.780  0.00  0.00    +0.000 A 
ATOM      8  C   UNL     1       7.594   5.321  14.005  0.00  0.00    +0.000 A 
ATOM      9  C   UNL     1       6.675   5.096  15.035  0.00  0.00    +0.000 A 
ATOM     10  C   UNL     1       6.763   5.855  16.283  0.00  0.00    +0.000 A 
ATOM     11  O   UNL     1       7.614   6.714  16.471  0.00  0.00    +0.000 OA
ATOM     12  N   UNL     1       5.816   5.540  17.218  0.00  0.00    +0.000 N 
ATOM     13  H   UNL     1       5.747   6.176  18.006  0.00  0.00    +0.000 HD
ENDBRANCH   1   2
BRANCH   1  18
ATOM     14  C   UNL     1       1.906   5.145  19.314  0.00  0.00    +0.000 C 
ATOM     15  C   UNL     1       1.275   4.220  20.357  0.00  0.00    +0.000 C 
ATOM     16  C   UNL     1       1.109   2.899  19.644  0.00  0.00    +0.000 C 
ATOM     17  C   UNL     1       2.170   2.902  18.558  0.00  0.00    +0.000 C 
ATOM     18  N   UNL     1       2.657   4.291  18.370  0.00  0.00    +0.000 NA
BRANCH  14  19
ATOM     19  C   UNL     1       2.446   6.456  19.918  0.00  0.00    +0.000 C 
BRANCH  19  24
ATOM     20  C   UNL     1       0.882  11.135  19.108  0.00  0.00    +0.000 C 
ATOM     21  C   UNL     1       1.410   9.767  18.934  0.00  0.00    +0.000 A 
ATOM     22  C   UNL     1       2.080   9.230  17.814  0.00  0.00    +0.000 A 
ATOM     23  N   UNL     1       2.446   7.959  17.993  0.00  0.00    +0.000 NA
ATOM     24  N   UNL     1       2.067   7.689  19.259  0.00  0.00    +0.000 N 
ATOM     25  C   UNL     1       1.379   8.724  19.836  0.00  0.00    +0.000 A 
ENDBRANCH  19  24
ENDBRANCH  14  19
ENDBRANCH   1  18
TORSDOF 4
ENDMDL
MODEL 9
REMARK VINA RESULT:      -7.5      3.093      6.148
REMARK  Name = 
REMARK  5 active torsions:
REMARK  status: ('A' for Active; 'I' for Inactive)
REMARK    1  A    between atoms: C_1  and  C_2
REMARK    2  A    between atoms: N_5  and  C_6
REMARK    3  A    between atoms: C_6  and  C_7
REMARK    4  A    between atoms: N_11  and  C_12
REMARK    5  A    between atoms: C_12  and  C_13
REMARK                            x       y       z     vdW  Elec       q    Type
REMARK                         _______ _______ _______ _____ _____    ______ ____
ROOT
ATOM      1  C   UNL     1       1.449   8.156  21.316  0.00  0.00    +0.000 C 
ENDROOT
BRANCH   1   2
ATOM      2  C   UNL     1       1.627   6.925  20.436  0.00  0.00    +0.000 A 
ATOM      3  N   UNL     1       1.214   5.730  20.735  0.00  0.00    +0.000 NA
ATOM      4  C   UNL     1       1.590   4.674  19.871  0.00  0.00    +0.000 A 
ATOM      5  C   UNL     1       1.082   3.392  20.084  0.00  0.00    +0.000 A 
ATOM      6  C   UNL     1       1.483   2.318  19.274  0.00  0.00    +0.000 A 
ATOM      7  C   UNL     1       2.423   2.506  18.261  0.00  0.00    +0.000 A 
ATOM      8  C   UNL     1       2.927   3.779  18.022  0.00  0.00    +0.000 A 
ATOM      9  C   UNL     1       2.483   4.850  18.804  0.00  0.00    +0.000 A 
ATOM     10  C   UNL     1       2.892   6.219  18.485  0.00  0.00    +0.000 A 
ATOM     11  O   UNL     1       3.611   6.483  17.531  0.00  0.00    +0.000 OA
ATOM     12  N   UNL     1       2.402   7.179  19.326  0.00  0.00    +0.000 N 
ATOM     13  H   UNL     1       2.521   8.138  19.017  0.00  0.00    +0.000 HD
ENDBRANCH   1   2
BRANCH   1  18
ATOM     14  C   UNL     1      -0.332   9.894  20.677  0.00  0.00    +0.000 C 
ATOM     15  C   UNL     1      -0.375  11.099  21.620  0.00  0.00    +0.000 C 
ATOM     16  C   UNL     1      -0.616  10.505  22.987  0.00  0.00    +0.000 C 
ATOM     17  C   UNL     1      -0.069   9.091  22.904  0.00  0.00    +0.000 C 
ATOM     18  N   UNL     1       0.108   8.731  21.475  0.00  0.00    +0.000 NA
BRANCH  14  19
ATOM     19  C   UNL     1       0.211  10.243  19.277  0.00  0.00    +0.000 C 
BRANCH  19  24
ATOM     20  C   UNL     1      -3.178   9.816  15.626  0.00  0.00    +0.000 C 
ATOM     21  C   UNL     1      -2.283  10.347  16.674  0.00  0.00    +0.000 A 
ATOM     22  C   UNL     1      -2.316  11.619  17.282  0.00  0.00    +0.000 A 
ATOM     23  N   UNL     1      -1.373  11.769  18.214  0.00  0.00    +0.000 NA
ATOM     24  N   UNL     1      -0.765  10.566  18.256  0.00  0.00    +0.000 N 
ATOM     25  C   UNL     1      -1.234   9.705  17.300  0.00  0.00    +0.000 A 
ENDBRANCH  19  24
ENDBRANCH  14  19
ENDBRANCH   1  18
TORSDOF 4
ENDMDL
