MODEL 1
REMARK VINA RESULT:      -7.2      0.000      0.000
REMARK  Name = 
REMARK  7 active torsions:
REMARK  status: ('A' for Active; 'I' for Inactive)
REMARK    1  A    between atoms: C_1  and  O_2
REMARK    2  A    between atoms: O_2  and  C_3
REMARK    3  A    between atoms: C_8  and  N_9
REMARK    4  A    between atoms: N_12  and  C_13
REMARK    5  A    between atoms: C_13  and  C_14
REMARK    6  A    between atoms: C_13  and  C_15
REMARK    7  A    between atoms: C_15  and  N_16
REMARK                            x       y       z     vdW  Elec       q    Type
REMARK                         _______ _______ _______ _____ _____    ______ ____
ROOT
ATOM      1  C   UNL     1       0.416  10.461  18.245  0.00  0.00    +0.000 C 
ENDROOT
BRANCH   1   2
ATOM      2  N   UNL     1       0.085  11.777  18.774  0.00  0.00    +0.000 N 
ATOM      3  C   UNL     1      -1.089  12.392  18.405  0.00  0.00    +0.000 C 
ATOM      4  O   UNL     1      -1.899  11.927  17.606  0.00  0.00    +0.000 OA
ATOM      5  N   UNL     1      -1.320  13.624  18.950  0.00  0.00    +0.000 N 
ATOM      6  C   UNL     1      -0.436  14.344  19.846  0.00  0.00    +0.000 C 
ATOM      7  C   UNL     1      -0.008  15.637  19.245  0.00  0.00    +0.000 A 
ATOM      8  C   UNL     1      -0.718  16.775  18.916  0.00  0.00    +0.000 A 
ATOM      9  C   UNL     1      -0.067  17.749  18.151  0.00  0.00    +0.000 A 
ATOM     10  C   UNL     1       1.242  17.544  17.681  0.00  0.00    +0.000 A 
ATOM     11  C   UNL     1       1.973  16.447  18.112  0.00  0.00    +0.000 A 
ATOM     12  C   UNL     1       1.342  15.573  18.962  0.00  0.00    +0.000 A 
ATOM     13  O   UNL     1       1.990  14.584  19.628  0.00  0.00    +0.000 OA
ATOM     14  C   UNL     1       0.934  13.689  20.033  0.00  0.00    +0.000 C 
ATOM     15  C   UNL     1       1.185  12.522  19.111  0.00  0.00    +0.000 C 
ATOM     16  O   UNL     1       2.321  12.246  18.723  0.00  0.00    +0.000 OA
ATOM     17  H   UNL     1      -2.168  14.069  18.619  0.00  0.00    +0.000 HD
ENDBRANCH   1   2
BRANCH   1  18
ATOM     18  C   UNL     1       0.413   9.397  19.395  0.00  0.00    +0.000 C 
ATOM     19  C   UNL     1      -0.428   9.932  20.554  0.00  0.00    +0.000 C 
BRANCH  18  23
ATOM     20  N   UNL     1       2.119   6.059  18.940  0.00  0.00    +0.000 N 
ATOM     21  C   UNL     1       1.431   6.445  20.174  0.00  0.00    +0.000 C 
ATOM     22  C   UNL     1       1.926   7.823  20.629  0.00  0.00    +0.000 C 
ATOM     23  N   UNL     1       1.784   8.880  19.609  0.00  0.00    +0.000 NA
ATOM     24  C   UNL     1       2.485   8.456  18.379  0.00  0.00    +0.000 C 
ATOM     25  C   UNL     1       2.171   7.038  17.848  0.00  0.00    +0.000 C 
BRANCH  20  31
ATOM     26  C   UNL     1       3.917   4.388  19.113  0.00  0.00    +0.000 A 
ATOM     27  C   UNL     1       4.365   3.088  18.850  0.00  0.00    +0.000 A 
ATOM     28  C   UNL     1       3.522   2.148  18.260  0.00  0.00    +0.000 A 
ATOM     29  C   UNL     1       2.223   2.500  17.931  0.00  0.00    +0.000 A 
ATOM     30  C   UNL     1       1.774   3.795  18.183  0.00  0.00    +0.000 A 
ATOM     31  C   UNL     1       2.603   4.777  18.760  0.00  0.00    +0.000 A 
BRANCH  26  33
ATOM     32  C   UNL     1       6.114   5.268  19.119  0.00  0.00    +0.000 C 
ATOM     33  O   UNL     1       4.775   5.350  19.601  0.00  0.00    +0.000 OA
ENDBRANCH  26  33
ENDBRANCH  20  31
ENDBRANCH  18  23
ENDBRANCH   1  18
TORSDOF 5
ENDMDL
MODEL 2
REMARK VINA RESULT:      -7.0      1.856      9.824
REMARK  Name = 
REMARK  7 active torsions:
REMARK  status: ('A' for Active; 'I' for Inactive)
REMARK    1  A    between atoms: C_1  and  O_2
REMARK    2  A    between atoms: O_2  and  C_3
REMARK    3  A    between atoms: C_8  and  N_9
REMARK    4  A    between atoms: N_12  and  C_13
REMARK    5  A    between atoms: C_13  and  C_14
REMARK    6  A    between atoms: C_13  and  C_15
REMARK    7  A    between atoms: C_15  and  N_16
REMARK                            x       y       z     vdW  Elec       q    Type
REMARK                         _______ _______ _______ _____ _____    ______ ____
ROOT
ATOM      1  C   UNL     1       0.305  10.157  19.727  0.00  0.00    +0.000 C 
ENDROOT
BRANCH   1   2
ATOM      2  N   UNL     1       1.212   9.029  19.574  0.00  0.00    +0.000 N 
ATOM      3  C   UNL     1       1.690   8.692  18.329  0.00  0.00    +0.000 C 
ATOM      4  O   UNL     1       1.376   9.259  17.285  0.00  0.00    +0.000 OA
ATOM      5  N   UNL     1       2.537   7.621  18.278  0.00  0.00    +0.000 N 
ATOM      6  C   UNL     1       2.948   6.799  19.401  0.00  0.00    +0.000 C 
ATOM      7  C   UNL     1       2.525   5.385  19.207  0.00  0.00    +0.000 A 
ATOM      8  C   UNL     1       2.903   4.434  18.281  0.00  0.00    +0.000 A 
ATOM      9  C   UNL     1       2.153   3.253  18.218  0.00  0.00    +0.000 A 
ATOM     10  C   UNL     1       1.018   3.074  19.027  0.00  0.00    +0.000 A 
ATOM     11  C   UNL     1       0.720   3.992  20.023  0.00  0.00    +0.000 A 
ATOM     12  C   UNL     1       1.550   5.079  20.137  0.00  0.00    +0.000 A 
ATOM     13  O   UNL     1       1.512   5.939  21.186  0.00  0.00    +0.000 OA
ATOM     14  C   UNL     1       2.208   7.106  20.704  0.00  0.00    +0.000 C 
ATOM     15  C   UNL     1       1.058   8.071  20.543  0.00  0.00    +0.000 C 
ATOM     16  O   UNL     1       0.067   8.011  21.270  0.00  0.00    +0.000 OA
ATOM     17  H   UNL     1       2.831   7.370  17.342  0.00  0.00    +0.000 HD
ENDBRANCH   1   2
BRANCH   1  18
ATOM     18  C   UNL     1       0.924  11.227  20.689  0.00  0.00    +0.000 C 
ATOM     19  C   UNL     1      -0.185  11.779  21.585  0.00  0.00    +0.000 C 
BRANCH  18  23
ATOM     20  N   UNL     1       0.664  14.723  19.287  0.00  0.00    +0.000 N 
ATOM     21  C   UNL     1       0.254  13.529  18.544  0.00  0.00    +0.000 C 
ATOM     22  C   UNL     1       1.382  12.493  18.572  0.00  0.00    +0.000 C 
ATOM     23  N   UNL     1       1.826  12.125  19.932  0.00  0.00    +0.000 NA
ATOM     24  C   UNL     1       2.227  13.351  20.652  0.00  0.00    +0.000 C 
ATOM     25  C   UNL     1       1.234  14.535  20.626  0.00  0.00    +0.000 C 
BRANCH  20  31
ATOM     26  C   UNL     1       1.379  16.750  18.089  0.00  0.00    +0.000 A 
ATOM     27  C   UNL     1       1.085  18.054  17.672  0.00  0.00    +0.000 A 
ATOM     28  C   UNL     1      -0.164  18.620  17.923  0.00  0.00    +0.000 A 
ATOM     29  C   UNL     1      -1.130  17.885  18.592  0.00  0.00    +0.000 A 
ATOM     30  C   UNL     1      -0.840  16.590  19.017  0.00  0.00    +0.000 A 
ATOM     31  C   UNL     1       0.417  15.993  18.797  0.00  0.00    +0.000 A 
BRANCH  26  33
ATOM     32  C   UNL     1       3.632  16.755  18.811  0.00  0.00    +0.000 C 
ATOM     33  O   UNL     1       2.643  16.223  17.935  0.00  0.00    +0.000 OA
ENDBRANCH  26  33
ENDBRANCH  20  31
ENDBRANCH  18  23
ENDBRANCH   1  18
TORSDOF 5
ENDMDL
MODEL 3
REMARK VINA RESULT:      -7.0      2.842      4.538
REMARK  Name = 
REMARK  7 active torsions:
REMARK  status: ('A' for Active; 'I' for Inactive)
REMARK    1  A    between atoms: C_1  and  O_2
REMARK    2  A    between atoms: O_2  and  C_3
REMARK    3  A    between atoms: C_8  and  N_9
REMARK    4  A    between atoms: N_12  and  C_13
REMARK    5  A    between atoms: C_13  and  C_14
REMARK    6  A    between atoms: C_13  and  C_15
REMARK    7  A    between atoms: C_15  and  N_16
REMARK                            x       y       z     vdW  Elec       q    Type
REMARK                         _______ _______ _______ _____ _____    ______ ____
ROOT
ATOM      1  C   UNL     1       2.540   7.096  20.397  0.00  0.00    +0.000 C 
ENDROOT
BRANCH   1   2
ATOM      2  N   UNL     1       1.588   8.080  19.903  0.00  0.00    +0.000 N 
ATOM      3  C   UNL     1       1.770   8.656  18.666  0.00  0.00    +0.000 C 
ATOM      4  O   UNL     1       2.726   8.431  17.927  0.00  0.00    +0.000 OA
ATOM      5  N   UNL     1       0.828   9.567  18.281  0.00  0.00    +0.000 N 
ATOM      6  C   UNL     1      -0.316  10.000  19.062  0.00  0.00    +0.000 C 
ATOM      7  C   UNL     1      -0.250  11.462  19.335  0.00  0.00    +0.000 A 
ATOM      8  C   UNL     1      -0.320  12.555  18.495  0.00  0.00    +0.000 A 
ATOM      9  C   UNL     1       0.002  13.808  19.029  0.00  0.00    +0.000 A 
ATOM     10  C   UNL     1       0.443  13.935  20.358  0.00  0.00    +0.000 A 
ATOM     11  C   UNL     1       0.403  12.843  21.213  0.00  0.00    +0.000 A 
ATOM     12  C   UNL     1      -0.036  11.655  20.686  0.00  0.00    +0.000 A 
ATOM     13  O   UNL     1      -0.330  10.567  21.443  0.00  0.00    +0.000 OA
ATOM     14  C   UNL     1      -0.325   9.476  20.499  0.00  0.00    +0.000 C 
ATOM     15  C   UNL     1       0.945   8.766  20.901  0.00  0.00    +0.000 C 
ATOM     16  O   UNL     1       1.344   8.778  22.065  0.00  0.00    +0.000 OA
ATOM     17  H   UNL     1       1.019  10.007  17.388  0.00  0.00    +0.000 HD
ENDBRANCH   1   2
BRANCH   1  18
ATOM     18  C   UNL     1       2.279   5.703  19.730  0.00  0.00    +0.000 C 
ATOM     19  C   UNL     1       1.050   5.071  20.383  0.00  0.00    +0.000 C 
BRANCH  18  23
ATOM     20  N   UNL     1       4.659   4.949  16.898  0.00  0.00    +0.000 N 
ATOM     21  C   UNL     1       3.509   4.103  17.224  0.00  0.00    +0.000 C 
ATOM     22  C   UNL     1       3.522   3.773  18.720  0.00  0.00    +0.000 C 
ATOM     23  N   UNL     1       3.552   4.960  19.598  0.00  0.00    +0.000 NA
ATOM     24  C   UNL     1       4.721   5.790  19.239  0.00  0.00    +0.000 C 
ATOM     25  C   UNL     1       4.908   6.124  17.741  0.00  0.00    +0.000 C 
BRANCH  20  31
ATOM     26  C   UNL     1       6.815   4.948  15.711  0.00  0.00    +0.000 A 
ATOM     27  C   UNL     1       7.516   4.753  14.515  0.00  0.00    +0.000 A 
ATOM     28  C   UNL     1       6.863   4.308  13.367  0.00  0.00    +0.000 A 
ATOM     29  C   UNL     1       5.501   4.053  13.406  0.00  0.00    +0.000 A 
ATOM     30  C   UNL     1       4.796   4.254  14.592  0.00  0.00    +0.000 A 
ATOM     31  C   UNL     1       5.420   4.720  15.766  0.00  0.00    +0.000 A 
BRANCH  26  33
ATOM     32  C   UNL     1       7.903   4.533  17.771  0.00  0.00    +0.000 C 
ATOM     33  O   UNL     1       7.434   5.485  16.819  0.00  0.00    +0.000 OA
ENDBRANCH  26  33
ENDBRANCH  20  31
ENDBRANCH  18  23
ENDBRANCH   1  18
TORSDOF 5
ENDMDL
MODEL 4
REMARK VINA RESULT:      -7.0      5.071      8.368
REMARK  Name = 
REMARK  7 active torsions:
REMARK  status: ('A' for Active; 'I' for Inactive)
REMARK    1  A    between atoms: C_1  and  O_2
REMARK    2  A    between atoms: O_2  and  C_3
REMARK    3  A    between atoms: C_8  and  N_9
REMARK    4  A    between atoms: N_12  and  C_13
REMARK    5  A    between atoms: C_13  and  C_14
REMARK    6  A    between atoms: C_13  and  C_15
REMARK    7  A    between atoms: C_15  and  N_16
REMARK                            x       y       z     vdW  Elec       q    Type
REMARK                         _______ _______ _______ _____ _____    ______ ____
ROOT
ATOM      1  C   UNL     1       2.770  14.833  20.161  0.00  0.00    +0.000 C 
ENDROOT
BRANCH   1   2
ATOM      2  N   UNL     1       2.177  13.541  19.845  0.00  0.00    +0.000 N 
ATOM      3  C   UNL     1       2.315  13.009  18.583  0.00  0.00    +0.000 C 
ATOM      4  O   UNL     1       2.885  13.569  17.649  0.00  0.00    +0.000 OA
ATOM      5  N   UNL     1       1.728  11.793  18.375  0.00  0.00    +0.000 N 
ATOM      6  C   UNL     1       0.957  11.036  19.344  0.00  0.00    +0.000 C 
ATOM      7  C   UNL     1      -0.439  10.831  18.869  0.00  0.00    +0.000 A 
ATOM      8  C   UNL     1      -0.949  10.121  17.801  0.00  0.00    +0.000 A 
ATOM      9  C   UNL     1      -2.299  10.307  17.482  0.00  0.00    +0.000 A 
ATOM     10  C   UNL     1      -3.088  11.233  18.187  0.00  0.00    +0.000 A 
ATOM     11  C   UNL     1      -2.586  11.854  19.321  0.00  0.00    +0.000 A 
ATOM     12  C   UNL     1      -1.295  11.555  19.676  0.00  0.00    +0.000 A 
ATOM     13  O   UNL     1      -0.747  11.914  20.865  0.00  0.00    +0.000 OA
ATOM     14  C   UNL     1       0.673  11.791  20.643  0.00  0.00    +0.000 C 
ATOM     15  C   UNL     1       1.078  13.244  20.609  0.00  0.00    +0.000 C 
ATOM     16  O   UNL     1       0.472  14.093  21.263  0.00  0.00    +0.000 OA
ATOM     17  H   UNL     1       1.806  11.454  17.424  0.00  0.00    +0.000 HD
ENDBRANCH   1   2
BRANCH   1  18
ATOM     18  C   UNL     1       4.280  14.660  20.541  0.00  0.00    +0.000 C 
ATOM     19  C   UNL     1       4.369  14.259  22.014  0.00  0.00    +0.000 C 
BRANCH  18  23
ATOM     20  N   UNL     1       7.609  15.000  18.794  0.00  0.00    +0.000 N 
ATOM     21  C   UNL     1       7.463  15.026  20.251  0.00  0.00    +0.000 C 
ATOM     22  C   UNL     1       6.376  16.034  20.641  0.00  0.00    +0.000 C 
ATOM     23  N   UNL     1       5.070  15.787  19.997  0.00  0.00    +0.000 NA
ATOM     24  C   UNL     1       5.256  15.764  18.532  0.00  0.00    +0.000 C 
ATOM     25  C   UNL     1       6.392  14.869  17.985  0.00  0.00    +0.000 C 
BRANCH  20  31
ATOM     26  C   UNL     1       9.683  13.831  18.169  0.00  0.00    +0.000 A 
ATOM     27  C   UNL     1      10.961  13.894  17.602  0.00  0.00    +0.000 A 
ATOM     28  C   UNL     1      11.435  15.077  17.037  0.00  0.00    +0.000 A 
ATOM     29  C   UNL     1      10.632  16.206  17.032  0.00  0.00    +0.000 A 
ATOM     30  C   UNL     1       9.362  16.151  17.602  0.00  0.00    +0.000 A 
ATOM     31  C   UNL     1       8.857  14.980  18.199  0.00  0.00    +0.000 A 
BRANCH  26  33
ATOM     32  C   UNL     1       9.069  11.553  17.989  0.00  0.00    +0.000 C 
ATOM     33  O   UNL     1       9.249  12.696  18.820  0.00  0.00    +0.000 OA
ENDBRANCH  26  33
ENDBRANCH  20  31
ENDBRANCH  18  23
ENDBRANCH   1  18
TORSDOF 5
ENDMDL
MODEL 5
REMARK VINA RESULT:      -7.0      3.453      4.853
REMARK  Name = 
REMARK  7 active torsions:
REMARK  status: ('A' for Active; 'I' for Inactive)
REMARK    1  A    between atoms: C_1  and  O_2
REMARK    2  A    between atoms: O_2  and  C_3
REMARK    3  A    between atoms: C_8  and  N_9
REMARK    4  A    between atoms: N_12  and  C_13
REMARK    5  A    between atoms: C_13  and  C_14
REMARK    6  A    between atoms: C_13  and  C_15
REMARK    7  A    between atoms: C_15  and  N_16
REMARK                            x       y       z     vdW  Elec       q    Type
REMARK                         _______ _______ _______ _____ _____    ______ ____
ROOT
ATOM      1  C   UNL     1      -1.222  12.381  21.323  0.00  0.00    +0.000 C 
ENDROOT
BRANCH   1   2
ATOM      2  N   UNL     1      -2.489  12.250  20.619  0.00  0.00    +0.000 N 
ATOM      3  C   UNL     1      -2.506  12.082  19.252  0.00  0.00    +0.000 C 
ATOM      4  O   UNL     1      -1.504  12.071  18.540  0.00  0.00    +0.000 OA
ATOM      5  N   UNL     1      -3.738  11.967  18.674  0.00  0.00    +0.000 N 
ATOM      6  C   UNL     1      -5.016  12.034  19.359  0.00  0.00    +0.000 C 
ATOM      7  C   UNL     1      -5.831  13.172  18.851  0.00  0.00    +0.000 A 
ATOM      8  C   UNL     1      -6.398  13.414  17.616  0.00  0.00    +0.000 A 
ATOM      9  C   UNL     1      -6.920  14.691  17.380  0.00  0.00    +0.000 A 
ATOM     10  C   UNL     1      -6.812  15.707  18.345  0.00  0.00    +0.000 A 
ATOM     11  C   UNL     1      -6.336  15.413  19.615  0.00  0.00    +0.000 A 
ATOM     12  C   UNL     1      -5.946  14.119  19.850  0.00  0.00    +0.000 A 
ATOM     13  O   UNL     1      -5.666  13.639  21.088  0.00  0.00    +0.000 OA
ATOM     14  C   UNL     1      -4.915  12.434  20.832  0.00  0.00    +0.000 C 
ATOM     15  C   UNL     1      -3.534  12.869  21.256  0.00  0.00    +0.000 C 
ATOM     16  O   UNL     1      -3.371  13.702  22.147  0.00  0.00    +0.000 OA
ATOM     17  H   UNL     1      -3.715  11.895  17.664  0.00  0.00    +0.000 HD
ENDBRANCH   1   2
BRANCH   1  18
ATOM     18  C   UNL     1      -0.691  10.971  21.753  0.00  0.00    +0.000 C 
ATOM     19  C   UNL     1      -1.279  10.625  23.121  0.00  0.00    +0.000 C 
BRANCH  18  23
ATOM     20  N   UNL     1       1.536   8.605  19.831  0.00  0.00    +0.000 N 
ATOM     21  C   UNL     1       1.172   8.400  21.235  0.00  0.00    +0.000 C 
ATOM     22  C   UNL     1       1.444   9.683  22.029  0.00  0.00    +0.000 C 
ATOM     23  N   UNL     1       0.763  10.877  21.490  0.00  0.00    +0.000 NA
ATOM     24  C   UNL     1       1.149  11.050  20.075  0.00  0.00    +0.000 C 
ATOM     25  C   UNL     1       1.033   9.809  19.161  0.00  0.00    +0.000 C 
BRANCH  20  31
ATOM     26  C   UNL     1       2.256   6.276  19.491  0.00  0.00    +0.000 A 
ATOM     27  C   UNL     1       3.029   5.362  18.765  0.00  0.00    +0.000 A 
ATOM     28  C   UNL     1       3.767   5.772  17.656  0.00  0.00    +0.000 A 
ATOM     29  C   UNL     1       3.736   7.100  17.263  0.00  0.00    +0.000 A 
ATOM     30  C   UNL     1       2.975   8.016  17.987  0.00  0.00    +0.000 A 
ATOM     31  C   UNL     1       2.232   7.642  19.123  0.00  0.00    +0.000 A 
BRANCH  26  33
ATOM     32  C   UNL     1       1.973   4.619  21.156  0.00  0.00    +0.000 C 
ATOM     33  O   UNL     1       1.607   5.899  20.647  0.00  0.00    +0.000 OA
ENDBRANCH  26  33
ENDBRANCH  20  31
ENDBRANCH  18  23
ENDBRANCH   1  18
TORSDOF 5
ENDMDL
MODEL 6
REMARK VINA RESULT:      -6.8      4.698      8.485
REMARK  Name = 
REMARK  7 active torsions:
REMARK  status: ('A' for Active; 'I' for Inactive)
REMARK    1  A    between atoms: C_1  and  O_2
REMARK    2  A    between atoms: O_2  and  C_3
REMARK    3  A    between atoms: C_8  and  N_9
REMARK    4  A    between atoms: N_12  and  C_13
REMARK    5  A    between atoms: C_13  and  C_14
REMARK    6  A    between atoms: C_13  and  C_15
REMARK    7  A    between atoms: C_15  and  N_16
REMARK                            x       y       z     vdW  Elec       q    Type
REMARK                         _______ _______ _______ _____ _____    ______ ____
ROOT
ATOM      1  C   UNL     1       1.799  15.043  19.561  0.00  0.00    +0.000 C 
ENDROOT
BRANCH   1   2
ATOM      2  N   UNL     1       1.264  13.695  19.434  0.00  0.00    +0.000 N 
ATOM      3  C   UNL     1       1.704  12.870  18.425  0.00  0.00    +0.000 C 
ATOM      4  O   UNL     1       2.516  13.198  17.561  0.00  0.00    +0.000 OA
ATOM      5  N   UNL     1       1.150  11.622  18.381  0.00  0.00    +0.000 N 
ATOM      6  C   UNL     1       0.130  11.105  19.274  0.00  0.00    +0.000 C 
ATOM      7  C   UNL     1      -1.102  10.744  18.520  0.00  0.00    +0.000 A 
ATOM      8  C   UNL     1      -1.343   9.775  17.568  0.00  0.00    +0.000 A 
ATOM      9  C   UNL     1      -2.558   9.831  16.875  0.00  0.00    +0.000 A 
ATOM     10  C   UNL     1      -3.470  10.877  17.099  0.00  0.00    +0.000 A 
ATOM     11  C   UNL     1      -3.257  11.778  18.132  0.00  0.00    +0.000 A 
ATOM     12  C   UNL     1      -2.113  11.618  18.872  0.00  0.00    +0.000 A 
ATOM     13  O   UNL     1      -1.879  12.279  20.034  0.00  0.00    +0.000 OA
ATOM     14  C   UNL     1      -0.455  12.151  20.226  0.00  0.00    +0.000 C 
ATOM     15  C   UNL     1      -0.005  13.562  19.937  0.00  0.00    +0.000 C 
ATOM     16  O   UNL     1      -0.730  14.527  20.179  0.00  0.00    +0.000 OA
ATOM     17  H   UNL     1       1.460  11.059  17.598  0.00  0.00    +0.000 HD
ENDBRANCH   1   2
BRANCH   1  18
ATOM     18  C   UNL     1       3.131  15.024  20.386  0.00  0.00    +0.000 C 
ATOM     19  C   UNL     1       2.785  14.915  21.871  0.00  0.00    +0.000 C 
BRANCH  18  23
ATOM     20  N   UNL     1       6.630  15.050  18.967  0.00  0.00    +0.000 N 
ATOM     21  C   UNL     1       6.346  15.151  20.400  0.00  0.00    +0.000 C 
ATOM     22  C   UNL     1       5.304  16.250  20.641  0.00  0.00    +0.000 C 
ATOM     23  N   UNL     1       4.052  16.067  19.881  0.00  0.00    +0.000 NA
ATOM     24  C   UNL     1       4.376  15.965  18.443  0.00  0.00    +0.000 C 
ATOM     25  C   UNL     1       5.490  14.969  18.046  0.00  0.00    +0.000 C 
BRANCH  20  31
ATOM     26  C   UNL     1       8.740  16.017  18.151  0.00  0.00    +0.000 A 
ATOM     27  C   UNL     1      10.022  15.810  17.627  0.00  0.00    +0.000 A 
ATOM     28  C   UNL     1      10.528  14.522  17.465  0.00  0.00    +0.000 A 
ATOM     29  C   UNL     1       9.756  13.429  17.826  0.00  0.00    +0.000 A 
ATOM     30  C   UNL     1       8.476  13.629  18.340  0.00  0.00    +0.000 A 
ATOM     31  C   UNL     1       7.925  14.915  18.500  0.00  0.00    +0.000 A 
BRANCH  26  33
ATOM     32  C   UNL     1       8.810  18.157  19.159  0.00  0.00    +0.000 C 
ATOM     33  O   UNL     1       8.195  17.281  18.218  0.00  0.00    +0.000 OA
ENDBRANCH  26  33
ENDBRANCH  20  31
ENDBRANCH  18  23
ENDBRANCH   1  18
TORSDOF 5
ENDMDL
MODEL 7
REMARK VINA RESULT:      -6.8      2.062     10.091
REMARK  Name = 
REMARK  7 active torsions:
REMARK  status: ('A' for Active; 'I' for Inactive)
REMARK    1  A    between atoms: C_1  and  O_2
REMARK    2  A    between atoms: O_2  and  C_3
REMARK    3  A    between atoms: C_8  and  N_9
REMARK    4  A    between atoms: N_12  and  C_13
REMARK    5  A    between atoms: C_13  and  C_14
REMARK    6  A    between atoms: C_13  and  C_15
REMARK    7  A    between atoms: C_15  and  N_16
REMARK                            x       y       z     vdW  Elec       q    Type
REMARK                         _______ _______ _______ _____ _____    ______ ____
ROOT
ATOM      1  C   UNL     1       0.359   9.998  19.802  0.00  0.00    +0.000 C 
ENDROOT
BRANCH   1   2
ATOM      2  N   UNL     1       1.297   8.905  19.594  0.00  0.00    +0.000 N 
ATOM      3  C   UNL     1       1.810   8.665  18.340  0.00  0.00    +0.000 C 
ATOM      4  O   UNL     1       1.504   9.296  17.330  0.00  0.00    +0.000 OA
ATOM      5  N   UNL     1       2.684   7.621  18.236  0.00  0.00    +0.000 N 
ATOM      6  C   UNL     1       3.092   6.734  19.309  0.00  0.00    +0.000 C 
ATOM      7  C   UNL     1       2.709   5.327  19.009  0.00  0.00    +0.000 A 
ATOM      8  C   UNL     1       3.130   4.451  18.029  0.00  0.00    +0.000 A 
ATOM      9  C   UNL     1       2.412   3.260  17.868  0.00  0.00    +0.000 A 
ATOM     10  C   UNL     1       1.264   2.998  18.637  0.00  0.00    +0.000 A 
ATOM     11  C   UNL     1       0.922   3.839  19.686  0.00  0.00    +0.000 A 
ATOM     12  C   UNL     1       1.722   4.935  19.893  0.00  0.00    +0.000 A 
ATOM     13  O   UNL     1       1.640   5.719  20.998  0.00  0.00    +0.000 OA
ATOM     14  C   UNL     1       2.317   6.933  20.612  0.00  0.00    +0.000 C 
ATOM     15  C   UNL     1       1.147   7.879  20.491  0.00  0.00    +0.000 C 
ATOM     16  O   UNL     1       0.142   7.746  21.190  0.00  0.00    +0.000 OA
ATOM     17  H   UNL     1       3.004   7.442  17.291  0.00  0.00    +0.000 HD
ENDBRANCH   1   2
BRANCH   1  18
ATOM     18  C   UNL     1       1.022  11.128  20.660  0.00  0.00    +0.000 C 
ATOM     19  C   UNL     1       0.092  11.468  21.825  0.00  0.00    +0.000 C 
BRANCH  18  23
ATOM     20  N   UNL     1      -0.069  14.595  19.635  0.00  0.00    +0.000 N 
ATOM     21  C   UNL     1      -0.487  13.381  18.929  0.00  0.00    +0.000 C 
ATOM     22  C   UNL     1       0.744  12.529  18.598  0.00  0.00    +0.000 C 
ATOM     23  N   UNL     1       1.567  12.182  19.773  0.00  0.00    +0.000 NA
ATOM     24  C   UNL     1       1.967  13.426  20.462  0.00  0.00    +0.000 C 
ATOM     25  C   UNL     1       0.846  14.445  20.773  0.00  0.00    +0.000 C 
BRANCH  20  31
ATOM     26  C   UNL     1      -1.744  16.366  19.964  0.00  0.00    +0.000 A 
ATOM     27  C   UNL     1      -2.273  17.596  19.556  0.00  0.00    +0.000 A 
ATOM     28  C   UNL     1      -1.678  18.325  18.529  0.00  0.00    +0.000 A 
ATOM     29  C   UNL     1      -0.545  17.830  17.901  0.00  0.00    +0.000 A 
ATOM     30  C   UNL     1      -0.019  16.602  18.298  0.00  0.00    +0.000 A 
ATOM     31  C   UNL     1      -0.605  15.829  19.319  0.00  0.00    +0.000 A 
BRANCH  26  33
ATOM     32  C   UNL     1      -3.687  16.046  21.277  0.00  0.00    +0.000 C 
ATOM     33  O   UNL     1      -2.386  15.594  20.908  0.00  0.00    +0.000 OA
ENDBRANCH  26  33
ENDBRANCH  20  31
ENDBRANCH  18  23
ENDBRANCH   1  18
TORSDOF 5
ENDMDL
MODEL 8
REMARK VINA RESULT:      -6.7      1.960      9.408
REMARK  Name = 
REMARK  7 active torsions:
REMARK  status: ('A' for Active; 'I' for Inactive)
REMARK    1  A    between atoms: C_1  and  O_2
REMARK    2  A    between atoms: O_2  and  C_3
REMARK    3  A    between atoms: C_8  and  N_9
REMARK    4  A    between atoms: N_12  and  C_13
REMARK    5  A    between atoms: C_13  and  C_14
REMARK    6  A    between atoms: C_13  and  C_15
REMARK    7  A    between atoms: C_15  and  N_16
REMARK                            x       y       z     vdW  Elec       q    Type
REMARK                         _______ _______ _______ _____ _____    ______ ____
ROOT
ATOM      1  C   UNL     1      -1.118  10.373  20.489  0.00  0.00    +0.000 C 
ENDROOT
BRANCH   1   2
ATOM      2  N   UNL     1       0.049   9.602  20.087  0.00  0.00    +0.000 N 
ATOM      3  C   UNL     1       0.409   9.536  18.760  0.00  0.00    +0.000 C 
ATOM      4  O   UNL     1      -0.217  10.061  17.841  0.00  0.00    +0.000 OA
ATOM      5  N   UNL     1       1.519   8.793  18.473  0.00  0.00    +0.000 N 
ATOM      6  C   UNL     1       2.324   8.051  19.426  0.00  0.00    +0.000 C 
ATOM      7  C   UNL     1       2.317   6.596  19.107  0.00  0.00    +0.000 A 
ATOM      8  C   UNL     1       2.815   5.892  18.030  0.00  0.00    +0.000 A 
ATOM      9  C   UNL     1       2.452   4.545  17.909  0.00  0.00    +0.000 A 
ATOM     10  C   UNL     1       1.560   3.953  18.820  0.00  0.00    +0.000 A 
ATOM     11  C   UNL     1       1.158   4.646  19.953  0.00  0.00    +0.000 A 
ATOM     12  C   UNL     1       1.633   5.925  20.102  0.00  0.00    +0.000 A 
ATOM     13  O   UNL     1       1.502   6.639  21.248  0.00  0.00    +0.000 OA
ATOM     14  C   UNL     1       1.735   8.002  20.837  0.00  0.00    +0.000 C 
ATOM     15  C   UNL     1       0.340   8.568  20.938  0.00  0.00    +0.000 C 
ATOM     16  O   UNL     1      -0.465   8.141  21.766  0.00  0.00    +0.000 OA
ATOM     17  H   UNL     1       1.726   8.725  17.484  0.00  0.00    +0.000 HD
ENDBRANCH   1   2
BRANCH   1  18
ATOM     18  C   UNL     1      -0.688  11.590  21.375  0.00  0.00    +0.000 C 
ATOM     19  C   UNL     1      -0.881  11.217  22.845  0.00  0.00    +0.000 C 
BRANCH  18  23
ATOM     20  N   UNL     1       0.690  14.466  19.353  0.00  0.00    +0.000 N 
ATOM     21  C   UNL     1       0.719  14.429  20.816  0.00  0.00    +0.000 C 
ATOM     22  C   UNL     1      -0.679  14.099  21.351  0.00  0.00    +0.000 C 
ATOM     23  N   UNL     1      -1.244  12.844  20.817  0.00  0.00    +0.000 NA
ATOM     24  C   UNL     1      -1.255  12.914  19.341  0.00  0.00    +0.000 C 
ATOM     25  C   UNL     1       0.061  13.340  18.651  0.00  0.00    +0.000 C 
BRANCH  20  31
ATOM     26  C   UNL     1       0.726  16.701  18.325  0.00  0.00    +0.000 A 
ATOM     27  C   UNL     1       1.413  17.648  17.556  0.00  0.00    +0.000 A 
ATOM     28  C   UNL     1       2.712  17.403  17.115  0.00  0.00    +0.000 A 
ATOM     29  C   UNL     1       3.336  16.210  17.441  0.00  0.00    +0.000 A 
ATOM     30  C   UNL     1       2.654  15.260  18.200  0.00  0.00    +0.000 A 
ATOM     31  C   UNL     1       1.334  15.465  18.647  0.00  0.00    +0.000 A 
BRANCH  26  33
ATOM     32  C   UNL     1      -1.192  18.078  18.158  0.00  0.00    +0.000 C 
ATOM     33  O   UNL     1      -0.593  16.893  18.677  0.00  0.00    +0.000 OA
ENDBRANCH  26  33
ENDBRANCH  20  31
ENDBRANCH  18  23
ENDBRANCH   1  18
TORSDOF 5
ENDMDL
MODEL 9
REMARK VINA RESULT:      -6.7      1.847      9.334
REMARK  Name = 
REMARK  7 active torsions:
REMARK  status: ('A' for Active; 'I' for Inactive)
REMARK    1  A    between atoms: C_1  and  O_2
REMARK    2  A    between atoms: O_2  and  C_3
REMARK    3  A    between atoms: C_8  and  N_9
REMARK    4  A    between atoms: N_12  and  C_13
REMARK    5  A    between atoms: C_13  and  C_14
REMARK    6  A    between atoms: C_13  and  C_15
REMARK    7  A    between atoms: C_15  and  N_16
REMARK                            x       y       z     vdW  Elec       q    Type
REMARK                         _______ _______ _______ _____ _____    ______ ____
ROOT
ATOM      1  C   UNL     1      -1.178  10.271  20.490  0.00  0.00    +0.000 C 
ENDROOT
BRANCH   1   2
ATOM      2  N   UNL     1       0.030   9.540  20.136  0.00  0.00    +0.000 N 
ATOM      3  C   UNL     1       0.491   9.556  18.839  0.00  0.00    +0.000 C 
ATOM      4  O   UNL     1      -0.072  10.125  17.907  0.00  0.00    +0.000 OA
ATOM      5  N   UNL     1       1.632   8.845  18.597  0.00  0.00    +0.000 N 
ATOM      6  C   UNL     1       2.375   8.059  19.565  0.00  0.00    +0.000 C 
ATOM      7  C   UNL     1       2.418   6.626  19.165  0.00  0.00    +0.000 A 
ATOM      8  C   UNL     1       3.009   5.991  18.091  0.00  0.00    +0.000 A 
ATOM      9  C   UNL     1       2.679   4.650  17.866  0.00  0.00    +0.000 A 
ATOM     10  C   UNL     1       1.731   3.994  18.671  0.00  0.00    +0.000 A 
ATOM     11  C   UNL     1       1.232   4.615  19.807  0.00  0.00    +0.000 A 
ATOM     12  C   UNL     1       1.672   5.889  20.064  0.00  0.00    +0.000 A 
ATOM     13  O   UNL     1       1.442   6.534  21.236  0.00  0.00    +0.000 OA
ATOM     14  C   UNL     1       1.681   7.921  20.921  0.00  0.00    +0.000 C 
ATOM     15  C   UNL     1       0.273   8.462  20.947  0.00  0.00    +0.000 C 
ATOM     16  O   UNL     1      -0.585   7.977  21.685  0.00  0.00    +0.000 OA
ATOM     17  H   UNL     1       1.916   8.837  17.624  0.00  0.00    +0.000 HD
ENDBRANCH   1   2
BRANCH   1  18
ATOM     18  C   UNL     1      -0.815  11.564  21.296  0.00  0.00    +0.000 C 
ATOM     19  C   UNL     1      -0.781  11.218  22.785  0.00  0.00    +0.000 C 
BRANCH  18  23
ATOM     20  N   UNL     1      -0.016  14.697  19.346  0.00  0.00    +0.000 N 
ATOM     21  C   UNL     1       0.050  14.624  20.807  0.00  0.00    +0.000 C 
ATOM     22  C   UNL     1      -1.255  14.033  21.352  0.00  0.00    +0.000 C 
ATOM     23  N   UNL     1      -1.598  12.713  20.787  0.00  0.00    +0.000 NA
ATOM     24  C   UNL     1      -1.652  12.823  19.314  0.00  0.00    +0.000 C 
ATOM     25  C   UNL     1      -0.448  13.498  18.618  0.00  0.00    +0.000 C 
BRANCH  20  31
ATOM     26  C   UNL     1       1.783  16.038  18.335  0.00  0.00    +0.000 A 
ATOM     27  C   UNL     1       2.171  17.220  17.695  0.00  0.00    +0.000 A 
ATOM     28  C   UNL     1       1.230  18.187  17.346  0.00  0.00    +0.000 A 
ATOM     29  C   UNL     1      -0.110  17.977  17.634  0.00  0.00    +0.000 A 
ATOM     30  C   UNL     1      -0.501  16.805  18.279  0.00  0.00    +0.000 A 
ATOM     31  C   UNL     1       0.425  15.816  18.663  0.00  0.00    +0.000 A 
BRANCH  26  33
ATOM     32  C   UNL     1       3.551  15.578  19.840  0.00  0.00    +0.000 C 
ATOM     33  O   UNL     1       2.719  15.127  18.774  0.00  0.00    +0.000 OA
ENDBRANCH  26  33
ENDBRANCH  20  31
ENDBRANCH  18  23
ENDBRANCH   1  18
TORSDOF 5
ENDMDL
