MODEL 1
REMARK VINA RESULT:      -7.5      0.000      0.000
REMARK  Name = 
REMARK  3 active torsions:
REMARK  status: ('A' for Active; 'I' for Inactive)
REMARK    1  A    between atoms: C_2  and  C_3
REMARK    2  A    between atoms: C_4  and  N_5
REMARK    3  A    between atoms: C_16  and  C_17
REMARK                            x       y       z     vdW  Elec       q    Type
REMARK                         _______ _______ _______ _____ _____    ______ ____
ROOT
ATOM      1  C   UNL     1       2.334   7.284  19.517  0.00  0.00    +0.000 C 
ATOM      2  C   UNL     1       2.412   7.902  18.321  0.00  0.00    +0.000 C 
ATOM      3  O   UNL     1       3.261   7.424  17.305  0.00  0.00    +0.000 OA
ATOM      4  C   UNL     1       4.094   6.375  17.543  0.00  0.00    +0.000 A 
ATOM      5  C   UNL     1       4.091   5.720  18.746  0.00  0.00    +0.000 A 
ATOM      6  S   UNL     1       5.271   4.507  18.835  0.00  0.00    +0.000 S 
ATOM      7  C   UNL     1       5.740   4.763  17.198  0.00  0.00    +0.000 A 
ATOM      8  C   UNL     1       6.713   4.036  16.487  0.00  0.00    +0.000 A 
ATOM      9  C   UNL     1       6.970   4.377  15.159  0.00  0.00    +0.000 A 
ATOM     10  C   UNL     1       6.285   5.422  14.554  0.00  0.00    +0.000 A 
ATOM     11  C   UNL     1       5.323   6.148  15.266  0.00  0.00    +0.000 A 
ATOM     12  C   UNL     1       5.029   5.819  16.612  0.00  0.00    +0.000 A 
ATOM     13  C   UNL     1       3.168   6.061  19.871  0.00  0.00    +0.000 C 
ENDROOT
BRANCH  13  14
ATOM     14  C   UNL     1       2.328   4.877  20.270  0.00  0.00    +0.000 A 
ATOM     15  C   UNL     1       2.214   4.126  21.423  0.00  0.00    +0.000 A 
ATOM     16  C   UNL     1       1.253   3.122  21.151  0.00  0.00    +0.000 A 
ATOM     17  C   UNL     1       0.844   3.323  19.854  0.00  0.00    +0.000 A 
ATOM     18  O   UNL     1       1.491   4.384  19.311  0.00  0.00    +0.000 OA
ENDBRANCH  13  14
BRANCH   2  19
ATOM     19  N   UNL     1       1.701   9.023  17.965  0.00  0.00    +0.000 N 
ATOM     20  H   UNL     1       1.305   9.026  17.028  0.00  0.00    +0.000 HD
ATOM     21  H   UNL     1       2.175   9.888  18.210  0.00  0.00    +0.000 HD
ENDBRANCH   2  19
BRANCH   1  23
ATOM     22  N   UNL     1       0.655   8.115  21.572  0.00  0.00    +0.000 NA
ATOM     23  C   UNL     1       1.416   7.738  20.641  0.00  0.00    +0.000 C 
ENDBRANCH   1  23
TORSDOF 3
ENDMDL
MODEL 2
REMARK VINA RESULT:      -6.7      3.183      6.101
REMARK  Name = 
REMARK  3 active torsions:
REMARK  status: ('A' for Active; 'I' for Inactive)
REMARK    1  A    between atoms: C_2  and  C_3
REMARK    2  A    between atoms: C_4  and  N_5
REMARK    3  A    between atoms: C_16  and  C_17
REMARK                            x       y       z     vdW  Elec       q    Type
REMARK                         _______ _______ _______ _____ _____    ______ ____
ROOT
ATOM      1  C   UNL     1       6.426   6.025  18.161  0.00  0.00    +0.000 C 
ATOM      2  C   UNL     1       6.613   5.501  19.390  0.00  0.00    +0.000 C 
ATOM      3  O   UNL     1       5.624   4.714  20.008  0.00  0.00    +0.000 OA
ATOM      4  C   UNL     1       4.413   4.540  19.412  0.00  0.00    +0.000 A 
ATOM      5  C   UNL     1       4.142   5.069  18.178  0.00  0.00    +0.000 A 
ATOM      6  S   UNL     1       2.546   4.792  17.682  0.00  0.00    +0.000 S 
ATOM      7  C   UNL     1       2.214   3.844  19.082  0.00  0.00    +0.000 A 
ATOM      8  C   UNL     1       1.007   3.181  19.372  0.00  0.00    +0.000 A 
ATOM      9  C   UNL     1       0.909   2.452  20.557  0.00  0.00    +0.000 A 
ATOM     10  C   UNL     1       1.979   2.392  21.439  0.00  0.00    +0.000 A 
ATOM     11  C   UNL     1       3.175   3.059  21.151  0.00  0.00    +0.000 A 
ATOM     12  C   UNL     1       3.313   3.797  19.950  0.00  0.00    +0.000 A 
ATOM     13  C   UNL     1       5.138   5.837  17.371  0.00  0.00    +0.000 C 
ENDROOT
BRANCH  13  14
ATOM     14  C   UNL     1       5.365   5.198  16.027  0.00  0.00    +0.000 A 
ATOM     15  C   UNL     1       5.222   5.628  14.723  0.00  0.00    +0.000 A 
ATOM     16  C   UNL     1       5.579   4.533  13.900  0.00  0.00    +0.000 A 
ATOM     17  C   UNL     1       5.916   3.506  14.751  0.00  0.00    +0.000 A 
ATOM     18  O   UNL     1       5.788   3.900  16.043  0.00  0.00    +0.000 OA
ENDBRANCH  13  14
BRANCH   2  19
ATOM     19  N   UNL     1       7.745   5.665  20.152  0.00  0.00    +0.000 N 
ATOM     20  H   UNL     1       8.530   6.124  19.699  0.00  0.00    +0.000 HD
ATOM     21  H   UNL     1       8.003   4.825  20.665  0.00  0.00    +0.000 HD
ENDBRANCH   2  19
BRANCH   1  23
ATOM     22  N   UNL     1       8.332   7.551  16.830  0.00  0.00    +0.000 NA
ATOM     23  C   UNL     1       7.468   6.859  17.434  0.00  0.00    +0.000 C 
ENDBRANCH   1  23
TORSDOF 3
ENDMDL
MODEL 3
REMARK VINA RESULT:      -6.2      4.101      6.610
REMARK  Name = 
REMARK  3 active torsions:
REMARK  status: ('A' for Active; 'I' for Inactive)
REMARK    1  A    between atoms: C_2  and  C_3
REMARK    2  A    between atoms: C_4  and  N_5
REMARK    3  A    between atoms: C_16  and  C_17
REMARK                            x       y       z     vdW  Elec       q    Type
REMARK                         _______ _______ _______ _____ _____    ______ ____
ROOT
ATOM      1  C   UNL     1      -0.454  10.811  21.508  0.00  0.00    +0.000 C 
ATOM      2  C   UNL     1      -0.219   9.666  22.183  0.00  0.00    +0.000 C 
ATOM      3  O   UNL     1       0.608   8.660  21.650  0.00  0.00    +0.000 OA
ATOM      4  C   UNL     1       1.117   8.783  20.394  0.00  0.00    +0.000 A 
ATOM      5  C   UNL     1       0.893   9.904  19.639  0.00  0.00    +0.000 A 
ATOM      6  S   UNL     1       1.554   9.789  18.083  0.00  0.00    +0.000 S 
ATOM      7  C   UNL     1       2.263   8.259  18.434  0.00  0.00    +0.000 A 
ATOM      8  C   UNL     1       3.073   7.499  17.570  0.00  0.00    +0.000 A 
ATOM      9  C   UNL     1       3.569   6.274  18.017  0.00  0.00    +0.000 A 
ATOM     10  C   UNL     1       3.258   5.810  19.288  0.00  0.00    +0.000 A 
ATOM     11  C   UNL     1       2.445   6.565  20.142  0.00  0.00    +0.000 A 
ATOM     12  C   UNL     1       1.937   7.819  19.724  0.00  0.00    +0.000 A 
ATOM     13  C   UNL     1       0.119  11.086  20.125  0.00  0.00    +0.000 C 
ENDROOT
BRANCH  13  14
ATOM     14  C   UNL     1       0.948  12.342  20.077  0.00  0.00    +0.000 A 
ATOM     15  C   UNL     1       0.964  13.451  19.254  0.00  0.00    +0.000 A 
ATOM     16  C   UNL     1       2.011  14.280  19.723  0.00  0.00    +0.000 A 
ATOM     17  C   UNL     1       2.567  13.628  20.798  0.00  0.00    +0.000 A 
ATOM     18  O   UNL     1       1.929  12.450  21.019  0.00  0.00    +0.000 OA
ENDBRANCH  13  14
BRANCH   2  19
ATOM     19  N   UNL     1      -0.734   9.360  23.419  0.00  0.00    +0.000 N 
ATOM     20  H   UNL     1      -0.999  10.149  24.004  0.00  0.00    +0.000 HD
ATOM     21  H   UNL     1      -0.194   8.651  23.910  0.00  0.00    +0.000 HD
ENDBRANCH   2  19
BRANCH   1  23
ATOM     22  N   UNL     1      -2.028  12.882  22.491  0.00  0.00    +0.000 NA
ATOM     23  C   UNL     1      -1.314  11.943  22.045  0.00  0.00    +0.000 C 
ENDBRANCH   1  23
TORSDOF 3
ENDMDL
MODEL 4
REMARK VINA RESULT:      -6.1      3.667      6.385
REMARK  Name = 
REMARK  3 active torsions:
REMARK  status: ('A' for Active; 'I' for Inactive)
REMARK    1  A    between atoms: C_2  and  C_3
REMARK    2  A    between atoms: C_4  and  N_5
REMARK    3  A    between atoms: C_16  and  C_17
REMARK                            x       y       z     vdW  Elec       q    Type
REMARK                         _______ _______ _______ _____ _____    ______ ____
ROOT
ATOM      1  C   UNL     1       6.334   4.683  15.337  0.00  0.00    +0.000 C 
ATOM      2  C   UNL     1       5.160   4.252  14.830  0.00  0.00    +0.000 C 
ATOM      3  O   UNL     1       4.090   3.891  15.670  0.00  0.00    +0.000 OA
ATOM      4  C   UNL     1       4.251   3.882  17.022  0.00  0.00    +0.000 A 
ATOM      5  C   UNL     1       5.426   4.276  17.603  0.00  0.00    +0.000 A 
ATOM      6  S   UNL     1       5.416   4.096  19.288  0.00  0.00    +0.000 S 
ATOM      7  C   UNL     1       3.771   3.586  19.282  0.00  0.00    +0.000 A 
ATOM      8  C   UNL     1       2.990   3.278  20.411  0.00  0.00    +0.000 A 
ATOM      9  C   UNL     1       1.666   2.880  20.226  0.00  0.00    +0.000 A 
ATOM     10  C   UNL     1       1.133   2.779  18.948  0.00  0.00    +0.000 A 
ATOM     11  C   UNL     1       1.915   3.079  17.826  0.00  0.00    +0.000 A 
ATOM     12  C   UNL     1       3.258   3.500  17.981  0.00  0.00    +0.000 A 
ATOM     13  C   UNL     1       6.603   4.779  16.832  0.00  0.00    +0.000 C 
ENDROOT
BRANCH  13  14
ATOM     14  C   UNL     1       6.992   6.167  17.267  0.00  0.00    +0.000 A 
ATOM     15  C   UNL     1       6.566   7.435  16.925  0.00  0.00    +0.000 A 
ATOM     16  C   UNL     1       7.355   8.337  17.679  0.00  0.00    +0.000 A 
ATOM     17  C   UNL     1       8.210   7.565  18.430  0.00  0.00    +0.000 A 
ATOM     18  O   UNL     1       7.998   6.248  18.186  0.00  0.00    +0.000 OA
ENDBRANCH  13  14
BRANCH   2  19
ATOM     19  N   UNL     1       4.880   4.123  13.491  0.00  0.00    +0.000 N 
ATOM     20  H   UNL     1       5.670   4.197  12.857  0.00  0.00    +0.000 HD
ATOM     21  H   UNL     1       4.070   4.667  13.201  0.00  0.00    +0.000 HD
ENDBRANCH   2  19
BRANCH   1  23
ATOM     22  N   UNL     1       8.492   5.469  13.768  0.00  0.00    +0.000 NA
ATOM     23  C   UNL     1       7.513   5.112  14.479  0.00  0.00    +0.000 C 
ENDBRANCH   1  23
TORSDOF 3
ENDMDL
MODEL 5
REMARK VINA RESULT:      -5.9      7.269      8.777
REMARK  Name = 
REMARK  3 active torsions:
REMARK  status: ('A' for Active; 'I' for Inactive)
REMARK    1  A    between atoms: C_2  and  C_3
REMARK    2  A    between atoms: C_4  and  N_5
REMARK    3  A    between atoms: C_16  and  C_17
REMARK                            x       y       z     vdW  Elec       q    Type
REMARK                         _______ _______ _______ _____ _____    ______ ____
ROOT
ATOM      1  C   UNL     1      -1.775  13.238  21.787  0.00  0.00    +0.000 C 
ATOM      2  C   UNL     1      -2.996  13.537  21.298  0.00  0.00    +0.000 C 
ATOM      3  O   UNL     1      -3.475  12.945  20.115  0.00  0.00    +0.000 OA
ATOM      4  C   UNL     1      -2.673  12.122  19.385  0.00  0.00    +0.000 A 
ATOM      5  C   UNL     1      -1.409  11.801  19.805  0.00  0.00    +0.000 A 
ATOM      6  S   UNL     1      -0.575  10.835  18.690  0.00  0.00    +0.000 S 
ATOM      7  C   UNL     1      -1.951  10.732  17.661  0.00  0.00    +0.000 A 
ATOM      8  C   UNL     1      -2.043   9.998  16.464  0.00  0.00    +0.000 A 
ATOM      9  C   UNL     1      -3.241  10.023  15.749  0.00  0.00    +0.000 A 
ATOM     10  C   UNL     1      -4.318  10.769  16.206  0.00  0.00    +0.000 A 
ATOM     11  C   UNL     1      -4.221  11.505  17.393  0.00  0.00    +0.000 A 
ATOM     12  C   UNL     1      -3.024  11.490  18.150  0.00  0.00    +0.000 A 
ATOM     13  C   UNL     1      -0.819  12.279  21.091  0.00  0.00    +0.000 C 
ENDROOT
BRANCH  13  14
ATOM     14  C   UNL     1      -0.407  11.127  21.968  0.00  0.00    +0.000 A 
ATOM     15  C   UNL     1      -1.013  10.445  23.005  0.00  0.00    +0.000 A 
ATOM     16  C   UNL     1      -0.084   9.467  23.435  0.00  0.00    +0.000 A 
ATOM     17  C   UNL     1       1.026   9.614  22.637  0.00  0.00    +0.000 A 
ATOM     18  O   UNL     1       0.840  10.618  21.745  0.00  0.00    +0.000 OA
ENDBRANCH  13  14
BRANCH   2  19
ATOM     19  N   UNL     1      -3.882  14.415  21.875  0.00  0.00    +0.000 N 
ATOM     20  H   UNL     1      -4.869  14.221  21.727  0.00  0.00    +0.000 HD
ATOM     21  H   UNL     1      -3.630  15.389  21.724  0.00  0.00    +0.000 HD
ENDBRANCH   2  19
BRANCH   1  23
ATOM     22  N   UNL     1      -0.753  14.311  24.141  0.00  0.00    +0.000 NA
ATOM     23  C   UNL     1      -1.216  13.825  23.073  0.00  0.00    +0.000 C 
ENDBRANCH   1  23
TORSDOF 3
ENDMDL
MODEL 6
REMARK VINA RESULT:      -5.6      6.463     10.087
REMARK  Name = 
REMARK  3 active torsions:
REMARK  status: ('A' for Active; 'I' for Inactive)
REMARK    1  A    between atoms: C_2  and  C_3
REMARK    2  A    between atoms: C_4  and  N_5
REMARK    3  A    between atoms: C_16  and  C_17
REMARK                            x       y       z     vdW  Elec       q    Type
REMARK                         _______ _______ _______ _____ _____    ______ ____
ROOT
ATOM      1  C   UNL     1       0.077  10.613  19.652  0.00  0.00    +0.000 C 
ATOM      2  C   UNL     1       0.159  10.256  20.950  0.00  0.00    +0.000 C 
ATOM      3  O   UNL     1      -0.765  10.733  21.899  0.00  0.00    +0.000 OA
ATOM      4  C   UNL     1      -1.711  11.643  21.540  0.00  0.00    +0.000 A 
ATOM      5  C   UNL     1      -1.831  12.074  20.246  0.00  0.00    +0.000 A 
ATOM      6  S   UNL     1      -3.020  13.267  20.060  0.00  0.00    +0.000 S 
ATOM      7  C   UNL     1      -3.482  13.145  21.715  0.00  0.00    +0.000 A 
ATOM      8  C   UNL     1      -4.525  13.852  22.343  0.00  0.00    +0.000 A 
ATOM      9  C   UNL     1      -4.767  13.631  23.699  0.00  0.00    +0.000 A 
ATOM     10  C   UNL     1      -3.984  12.737  24.417  0.00  0.00    +0.000 A 
ATOM     11  C   UNL     1      -2.943  12.041  23.791  0.00  0.00    +0.000 A 
ATOM     12  C   UNL     1      -2.681  12.232  22.413  0.00  0.00    +0.000 A 
ATOM     13  C   UNL     1      -0.982  11.571  19.124  0.00  0.00    +0.000 C 
ENDROOT
BRANCH  13  14
ATOM     14  C   UNL     1      -1.820  10.968  18.029  0.00  0.00    +0.000 A 
ATOM     15  C   UNL     1      -2.519   9.785  17.896  0.00  0.00    +0.000 A 
ATOM     16  C   UNL     1      -3.086   9.801  16.599  0.00  0.00    +0.000 A 
ATOM     17  C   UNL     1      -2.698  10.988  16.024  0.00  0.00    +0.000 A 
ATOM     18  O   UNL     1      -1.929  11.702  16.883  0.00  0.00    +0.000 OA
ENDBRANCH  13  14
BRANCH   2  19
ATOM     19  N   UNL     1       1.111   9.418  21.479  0.00  0.00    +0.000 N 
ATOM     20  H   UNL     1       1.950   9.281  20.921  0.00  0.00    +0.000 HD
ATOM     21  H   UNL     1       0.719   8.554  21.846  0.00  0.00    +0.000 HD
ENDBRANCH   2  19
BRANCH   1  23
ATOM     22  N   UNL     1       1.818   9.691  17.689  0.00  0.00    +0.000 NA
ATOM     23  C   UNL     1       1.029  10.109  18.579  0.00  0.00    +0.000 C 
ENDBRANCH   1  23
TORSDOF 3
ENDMDL
MODEL 7
REMARK VINA RESULT:      -5.4     12.197     13.417
REMARK  Name = 
REMARK  3 active torsions:
REMARK  status: ('A' for Active; 'I' for Inactive)
REMARK    1  A    between atoms: C_2  and  C_3
REMARK    2  A    between atoms: C_4  and  N_5
REMARK    3  A    between atoms: C_16  and  C_17
REMARK                            x       y       z     vdW  Elec       q    Type
REMARK                         _______ _______ _______ _____ _____    ______ ____
ROOT
ATOM      1  C   UNL     1      -7.650  10.789  21.390  0.00  0.00    +0.000 C 
ATOM      2  C   UNL     1      -7.597  10.416  20.095  0.00  0.00    +0.000 C 
ATOM      3  O   UNL     1      -7.436  11.363  19.066  0.00  0.00    +0.000 OA
ATOM      4  C   UNL     1      -7.421  12.693  19.354  0.00  0.00    +0.000 A 
ATOM      5  C   UNL     1      -7.503  13.145  20.644  0.00  0.00    +0.000 A 
ATOM      6  S   UNL     1      -7.552  14.836  20.744  0.00  0.00    +0.000 S 
ATOM      7  C   UNL     1      -7.347  15.000  19.042  0.00  0.00    +0.000 A 
ATOM      8  C   UNL     1      -7.236  16.209  18.330  0.00  0.00    +0.000 A 
ATOM      9  C   UNL     1      -7.071  16.161  16.945  0.00  0.00    +0.000 A 
ATOM     10  C   UNL     1      -7.029  14.942  16.283  0.00  0.00    +0.000 A 
ATOM     11  C   UNL     1      -7.148  13.742  16.994  0.00  0.00    +0.000 A 
ATOM     12  C   UNL     1      -7.302  13.755  18.401  0.00  0.00    +0.000 A 
ATOM     13  C   UNL     1      -7.575  12.244  21.833  0.00  0.00    +0.000 C 
ENDROOT
BRANCH  13  14
ATOM     14  C   UNL     1      -6.441  12.504  22.789  0.00  0.00    +0.000 A 
ATOM     15  C   UNL     1      -6.371  12.857  24.122  0.00  0.00    +0.000 A 
ATOM     16  C   UNL     1      -4.994  12.975  24.432  0.00  0.00    +0.000 A 
ATOM     17  C   UNL     1      -4.314  12.686  23.272  0.00  0.00    +0.000 A 
ATOM     18  O   UNL     1      -5.183  12.401  22.270  0.00  0.00    +0.000 OA
ENDBRANCH  13  14
BRANCH   2  19
ATOM     19  N   UNL     1      -7.688   9.121  19.644  0.00  0.00    +0.000 N 
ATOM     20  H   UNL     1      -7.021   8.845  18.929  0.00  0.00    +0.000 HD
ATOM     21  H   UNL     1      -8.644   8.838  19.441  0.00  0.00    +0.000 HD
ENDBRANCH   2  19
BRANCH   1  23
ATOM     22  N   UNL     1      -7.916   8.997  23.500  0.00  0.00    +0.000 NA
ATOM     23  C   UNL     1      -7.796   9.810  22.543  0.00  0.00    +0.000 C 
ENDBRANCH   1  23
TORSDOF 3
ENDMDL
MODEL 8
REMARK VINA RESULT:      -5.4      8.179     11.190
REMARK  Name = 
REMARK  3 active torsions:
REMARK  status: ('A' for Active; 'I' for Inactive)
REMARK    1  A    between atoms: C_2  and  C_3
REMARK    2  A    between atoms: C_4  and  N_5
REMARK    3  A    between atoms: C_16  and  C_17
REMARK                            x       y       z     vdW  Elec       q    Type
REMARK                         _______ _______ _______ _____ _____    ______ ____
ROOT
ATOM      1  C   UNL     1      -4.379  13.750  23.417  0.00  0.00    +0.000 C 
ATOM      2  C   UNL     1      -4.286  12.585  24.093  0.00  0.00    +0.000 C 
ATOM      3  O   UNL     1      -3.212  11.701  23.883  0.00  0.00    +0.000 OA
ATOM      4  C   UNL     1      -2.286  11.963  22.920  0.00  0.00    +0.000 A 
ATOM      5  C   UNL     1      -2.335  13.110  22.175  0.00  0.00    +0.000 A 
ATOM      6  S   UNL     1      -1.130  13.171  20.985  0.00  0.00    +0.000 S 
ATOM      7  C   UNL     1      -0.437  11.692  21.529  0.00  0.00    +0.000 A 
ATOM      8  C   UNL     1       0.719  11.075  21.015  0.00  0.00    +0.000 A 
ATOM      9  C   UNL     1       1.146   9.872  21.577  0.00  0.00    +0.000 A 
ATOM     10  C   UNL     1       0.435   9.289  22.618  0.00  0.00    +0.000 A 
ATOM     11  C   UNL     1      -0.718   9.901  23.121  0.00  0.00    +0.000 A 
ATOM     12  C   UNL     1      -1.171  11.130  22.582  0.00  0.00    +0.000 A 
ATOM     13  C   UNL     1      -3.363  14.177  22.367  0.00  0.00    +0.000 C 
ENDROOT
BRANCH  13  14
ATOM     14  C   UNL     1      -2.725  15.505  22.679  0.00  0.00    +0.000 A 
ATOM     15  C   UNL     1      -2.679  16.724  22.032  0.00  0.00    +0.000 A 
ATOM     16  C   UNL     1      -1.886  17.574  22.841  0.00  0.00    +0.000 A 
ATOM     17  C   UNL     1      -1.500  16.823  23.926  0.00  0.00    +0.000 A 
ATOM     18  O   UNL     1      -2.003  15.566  23.836  0.00  0.00    +0.000 OA
ENDBRANCH  13  14
BRANCH   2  19
ATOM     19  N   UNL     1      -5.190  12.144  25.029  0.00  0.00    +0.000 N 
ATOM     20  H   UNL     1      -6.163  12.113  24.736  0.00  0.00    +0.000 HD
ATOM     21  H   UNL     1      -5.053  12.567  25.944  0.00  0.00    +0.000 HD
ENDBRANCH   2  19
BRANCH   1  23
ATOM     22  N   UNL     1      -6.430  15.589  23.792  0.00  0.00    +0.000 NA
ATOM     23  C   UNL     1      -5.500  14.755  23.622  0.00  0.00    +0.000 C 
ENDBRANCH   1  23
TORSDOF 3
ENDMDL
MODEL 9
REMARK VINA RESULT:      -5.4      4.610      7.212
REMARK  Name = 
REMARK  3 active torsions:
REMARK  status: ('A' for Active; 'I' for Inactive)
REMARK    1  A    between atoms: C_2  and  C_3
REMARK    2  A    between atoms: C_4  and  N_5
REMARK    3  A    between atoms: C_16  and  C_17
REMARK                            x       y       z     vdW  Elec       q    Type
REMARK                         _______ _______ _______ _____ _____    ______ ____
ROOT
ATOM      1  C   UNL     1      -0.371  12.025  21.053  0.00  0.00    +0.000 C 
ATOM      2  C   UNL     1      -0.448  10.991  21.916  0.00  0.00    +0.000 C 
ATOM      3  O   UNL     1       0.179   9.761  21.641  0.00  0.00    +0.000 OA
ATOM      4  C   UNL     1       0.801   9.560  20.447  0.00  0.00    +0.000 A 
ATOM      5  C   UNL     1       0.889  10.555  19.511  0.00  0.00    +0.000 A 
ATOM      6  S   UNL     1       1.631  10.042  18.077  0.00  0.00    +0.000 S 
ATOM      7  C   UNL     1       1.957   8.484  18.735  0.00  0.00    +0.000 A 
ATOM      8  C   UNL     1       2.648   7.438  18.095  0.00  0.00    +0.000 A 
ATOM      9  C   UNL     1       2.827   6.234  18.777  0.00  0.00    +0.000 A 
ATOM     10  C   UNL     1       2.321   6.069  20.059  0.00  0.00    +0.000 A 
ATOM     11  C   UNL     1       1.627   7.109  20.689  0.00  0.00    +0.000 A 
ATOM     12  C   UNL     1       1.441   8.349  20.030  0.00  0.00    +0.000 A 
ATOM     13  C   UNL     1       0.357  11.936  19.719  0.00  0.00    +0.000 C 
ENDROOT
BRANCH  13  14
ATOM     14  C   UNL     1       1.442  12.970  19.577  0.00  0.00    +0.000 A 
ATOM     15  C   UNL     1       2.516  13.349  20.357  0.00  0.00    +0.000 A 
ATOM     16  C   UNL     1       3.150  14.413  19.672  0.00  0.00    +0.000 A 
ATOM     17  C   UNL     1       2.426  14.616  18.521  0.00  0.00    +0.000 A 
ATOM     18  O   UNL     1       1.387  13.746  18.455  0.00  0.00    +0.000 OA
ENDBRANCH  13  14
BRANCH   2  19
ATOM     19  N   UNL     1      -1.115  11.014  23.117  0.00  0.00    +0.000 N 
ATOM     20  H   UNL     1      -2.092  11.292  23.084  0.00  0.00    +0.000 HD
ATOM     21  H   UNL     1      -0.585  11.471  23.856  0.00  0.00    +0.000 HD
ENDBRANCH   2  19
BRANCH   1  23
ATOM     22  N   UNL     1      -1.528  14.510  21.522  0.00  0.00    +0.000 NA
ATOM     23  C   UNL     1      -1.004  13.383  21.310  0.00  0.00    +0.000 C 
ENDBRANCH   1  23
TORSDOF 3
ENDMDL
