MODEL 1
REMARK VINA RESULT:      -8.2      0.000      0.000
REMARK  Name = 
REMARK  13 active torsions:
REMARK  status: ('A' for Active; 'I' for Inactive)
REMARK    1  A    between atoms: C_1  and  C_2
REMARK    2  A    between atoms: C_2  and  O_3
REMARK    3  A    between atoms: O_3  and  C_4
REMARK    4  A    between atoms: C_4  and  C_6
REMARK    5  A    between atoms: C_6  and  N_7
REMARK    6  A    between atoms: N_7  and  C_8
REMARK    7  A    between atoms: C_8  and  C_9
REMARK    8  A    between atoms: C_8  and  C_29
REMARK    9  A    between atoms: C_14  and  C_15
REMARK   10  A    between atoms: N_17  and  C_18
REMARK   11  A    between atoms: C_18  and  C_19
REMARK   12  A    between atoms: C_22  and  C_23
REMARK   13  A    between atoms: N_25  and  O_26
REMARK                            x       y       z     vdW  Elec       q    Type
REMARK                         _______ _______ _______ _____ _____    ______ ____
ROOT
ATOM      1  C   UNL     1       3.720   2.992  18.099  0.00  0.00    +0.000 C 
ATOM      2  O   UNL     1       3.839   1.839  17.677  0.00  0.00    +0.000 OA
ATOM      3  N   UNL     1       2.943   3.251  19.228  0.00  0.00    +0.000 N 
ATOM      4  C   UNL     1       2.130   2.191  19.858  0.00  0.00    +0.000 C 
ATOM      5  C   UNL     1       0.899   3.009  19.480  0.00  0.00    +0.000 C 
ATOM      6  C   UNL     1       1.826   4.229  19.301  0.00  0.00    +0.000 C 
ENDROOT
BRANCH   6   7
ATOM      7  C   UNL     1       1.822   5.292  20.461  0.00  0.00    +0.000 C 
ATOM      8  O   UNL     1       2.199   5.027  21.607  0.00  0.00    +0.000 OA
ATOM      9  N   UNL     1       1.400   6.570  20.129  0.00  0.00    +0.000 N 
ATOM     10  H   UNL     1       0.960   6.723  19.232  0.00  0.00    +0.000 HD
BRANCH   9  11
ATOM     11  C   UNL     1       1.345   7.643  21.104  0.00  0.00    +0.000 C 
BRANCH  11  12
ATOM     12  C   UNL     1       1.053   8.983  20.466  0.00  0.00    +0.000 A 
ATOM     13  C   UNL     1       1.278   9.210  19.102  0.00  0.00    +0.000 A 
ATOM     14  C   UNL     1       1.006  10.465  18.530  0.00  0.00    +0.000 A 
ATOM     15  C   UNL     1       0.506  11.522  19.305  0.00  0.00    +0.000 A 
ATOM     16  C   UNL     1       0.247  11.284  20.661  0.00  0.00    +0.000 A 
ATOM     17  C   UNL     1       0.537  10.036  21.236  0.00  0.00    +0.000 A 
BRANCH  15  18
ATOM     18  C   UNL     1       0.232  12.851  18.648  0.00  0.00    +0.000 C 
ATOM     19  N   UNL     1      -0.869  12.961  17.831  0.00  0.00    +0.000 N 
ATOM     20  N   UNL     1       0.928  13.957  18.753  0.00  0.00    +0.000 NA
ATOM     21  H   UNL     1      -1.704  12.493  18.150  0.00  0.00    +0.000 HD
ATOM     22  H   UNL     1      -1.038  13.931  17.578  0.00  0.00    +0.000 HD
BRANCH  20  23
ATOM     23  O   UNL     1       2.090  13.843  19.511  0.00  0.00    +0.000 OA
ATOM     24  H   UNL     1       1.736  13.745  20.414  0.00  0.00    +0.000 HD
ENDBRANCH  20  23
ENDBRANCH  15  18
ENDBRANCH  11  12
ENDBRANCH   9  11
ENDBRANCH   6   7
BRANCH   1  25
ATOM     25  C   UNL     1       4.411   4.212  17.407  0.00  0.00    +0.000 C 
BRANCH  25  26
ATOM     26  C   UNL     1       4.904   5.332  18.374  0.00  0.00    +0.000 C 
ATOM     27  C   UNL     1       6.280   5.051  19.003  0.00  0.00    +0.000 C 
ATOM     28  C   UNL     1       7.467   5.450  18.125  0.00  0.00    +0.000 C 
ATOM     29  C   UNL     1       7.359   6.876  17.604  0.00  0.00    +0.000 C 
ATOM     30  C   UNL     1       6.015   7.167  16.949  0.00  0.00    +0.000 C 
ATOM     31  C   UNL     1       4.849   6.781  17.849  0.00  0.00    +0.000 C 
ENDBRANCH  25  26
BRANCH  25  32
ATOM     32  N   UNL     1       5.532   3.747  16.542  0.00  0.00    +0.000 NA
ATOM     33  H   UNL     1       6.432   4.076  16.896  0.00  0.00    +0.000 HD
BRANCH  32  34
ATOM     34  C   UNL     1       5.344   4.199  15.156  0.00  0.00    +0.000 C 
BRANCH  34  35
ATOM     35  C   UNL     1       6.630   4.328  14.342  0.00  0.00    +0.000 C 
ATOM     36  O   UNL     1       7.471   5.210  14.408  0.00  0.00    +0.000 OA
BRANCH  35  37
ATOM     37  O   UNL     1       6.607   3.286  13.455  0.00  0.00    +0.000 OA
BRANCH  37  39
ATOM     38  C   UNL     1       4.986   3.076  11.687  0.00  0.00    +0.000 C 
ATOM     39  C   UNL     1       6.365   3.570  12.075  0.00  0.00    +0.000 C 
ENDBRANCH  37  39
ENDBRANCH  35  37
ENDBRANCH  34  35
ENDBRANCH  32  34
ENDBRANCH  25  32
ENDBRANCH   1  25
TORSDOF 12
ENDMDL
MODEL 2
REMARK VINA RESULT:      -8.1      0.793      1.143
REMARK  Name = 
REMARK  13 active torsions:
REMARK  status: ('A' for Active; 'I' for Inactive)
REMARK    1  A    between atoms: C_1  and  C_2
REMARK    2  A    between atoms: C_2  and  O_3
REMARK    3  A    between atoms: O_3  and  C_4
REMARK    4  A    between atoms: C_4  and  C_6
REMARK    5  A    between atoms: C_6  and  N_7
REMARK    6  A    between atoms: N_7  and  C_8
REMARK    7  A    between atoms: C_8  and  C_9
REMARK    8  A    between atoms: C_8  and  C_29
REMARK    9  A    between atoms: C_14  and  C_15
REMARK   10  A    between atoms: N_17  and  C_18
REMARK   11  A    between atoms: C_18  and  C_19
REMARK   12  A    between atoms: C_22  and  C_23
REMARK   13  A    between atoms: N_25  and  O_26
REMARK                            x       y       z     vdW  Elec       q    Type
REMARK                         _______ _______ _______ _____ _____    ______ ____
ROOT
ATOM      1  C   UNL     1       4.086   3.003  17.809  0.00  0.00    +0.000 C 
ATOM      2  O   UNL     1       4.334   1.861  17.416  0.00  0.00    +0.000 OA
ATOM      3  N   UNL     1       3.121   3.212  18.794  0.00  0.00    +0.000 N 
ATOM      4  C   UNL     1       2.273   2.107  19.283  0.00  0.00    +0.000 C 
ATOM      5  C   UNL     1       1.079   2.862  18.705  0.00  0.00    +0.000 C 
ATOM      6  C   UNL     1       1.957   4.130  18.680  0.00  0.00    +0.000 C 
ENDROOT
BRANCH   6   7
ATOM      7  C   UNL     1       1.705   5.183  19.821  0.00  0.00    +0.000 C 
ATOM      8  O   UNL     1       1.213   4.876  20.912  0.00  0.00    +0.000 OA
ATOM      9  N   UNL     1       2.095   6.487  19.558  0.00  0.00    +0.000 N 
ATOM     10  H   UNL     1       2.354   6.740  18.615  0.00  0.00    +0.000 HD
BRANCH   9  11
ATOM     11  C   UNL     1       1.917   7.556  20.523  0.00  0.00    +0.000 C 
BRANCH  11  12
ATOM     12  C   UNL     1       1.232   8.763  19.922  0.00  0.00    +0.000 A 
ATOM     13  C   UNL     1       0.248   9.472  20.624  0.00  0.00    +0.000 A 
ATOM     14  C   UNL     1      -0.382  10.587  20.046  0.00  0.00    +0.000 A 
ATOM     15  C   UNL     1      -0.046  11.021  18.754  0.00  0.00    +0.000 A 
ATOM     16  C   UNL     1       0.964  10.335  18.067  0.00  0.00    +0.000 A 
ATOM     17  C   UNL     1       1.579   9.208  18.638  0.00  0.00    +0.000 A 
BRANCH  15  18
ATOM     18  C   UNL     1      -0.750  12.221  18.175  0.00  0.00    +0.000 C 
ATOM     19  N   UNL     1      -1.808  12.009  17.321  0.00  0.00    +0.000 N 
ATOM     20  N   UNL     1      -0.479  13.487  18.381  0.00  0.00    +0.000 NA
ATOM     21  H   UNL     1      -2.435  11.261  17.574  0.00  0.00    +0.000 HD
ATOM     22  H   UNL     1      -2.296  12.879  17.125  0.00  0.00    +0.000 HD
BRANCH  20  23
ATOM     23  O   UNL     1       0.637  13.721  19.177  0.00  0.00    +0.000 OA
ATOM     24  H   UNL     1       0.234  14.010  20.016  0.00  0.00    +0.000 HD
ENDBRANCH  20  23
ENDBRANCH  15  18
ENDBRANCH  11  12
ENDBRANCH   9  11
ENDBRANCH   6   7
BRANCH   1  25
ATOM     25  C   UNL     1       4.816   4.262  17.239  0.00  0.00    +0.000 C 
BRANCH  25  26
ATOM     26  C   UNL     1       5.054   5.413  18.265  0.00  0.00    +0.000 C 
ATOM     27  C   UNL     1       6.195   5.136  19.260  0.00  0.00    +0.000 C 
ATOM     28  C   UNL     1       7.587   5.479  18.732  0.00  0.00    +0.000 C 
ATOM     29  C   UNL     1       7.668   6.883  18.150  0.00  0.00    +0.000 C 
ATOM     30  C   UNL     1       6.565   7.169  17.139  0.00  0.00    +0.000 C 
ATOM     31  C   UNL     1       5.185   6.840  17.694  0.00  0.00    +0.000 C 
ENDBRANCH  25  26
BRANCH  25  32
ATOM     32  N   UNL     1       6.104   3.867  16.601  0.00  0.00    +0.000 NA
ATOM     33  H   UNL     1       6.809   4.598  16.709  0.00  0.00    +0.000 HD
BRANCH  32  34
ATOM     34  C   UNL     1       5.909   3.565  15.175  0.00  0.00    +0.000 C 
BRANCH  34  35
ATOM     35  C   UNL     1       6.796   4.364  14.223  0.00  0.00    +0.000 C 
ATOM     36  O   UNL     1       7.513   5.316  14.490  0.00  0.00    +0.000 OA
BRANCH  35  37
ATOM     37  O   UNL     1       6.558   3.846  12.979  0.00  0.00    +0.000 OA
BRANCH  37  39
ATOM     38  C   UNL     1       5.130   2.678  11.431  0.00  0.00    +0.000 C 
ATOM     39  C   UNL     1       5.203   3.699  12.549  0.00  0.00    +0.000 C 
ENDBRANCH  37  39
ENDBRANCH  35  37
ENDBRANCH  34  35
ENDBRANCH  32  34
ENDBRANCH  25  32
ENDBRANCH   1  25
TORSDOF 12
ENDMDL
MODEL 3
REMARK VINA RESULT:      -7.7      2.353      3.936
REMARK  Name = 
REMARK  13 active torsions:
REMARK  status: ('A' for Active; 'I' for Inactive)
REMARK    1  A    between atoms: C_1  and  C_2
REMARK    2  A    between atoms: C_2  and  O_3
REMARK    3  A    between atoms: O_3  and  C_4
REMARK    4  A    between atoms: C_4  and  C_6
REMARK    5  A    between atoms: C_6  and  N_7
REMARK    6  A    between atoms: N_7  and  C_8
REMARK    7  A    between atoms: C_8  and  C_9
REMARK    8  A    between atoms: C_8  and  C_29
REMARK    9  A    between atoms: C_14  and  C_15
REMARK   10  A    between atoms: N_17  and  C_18
REMARK   11  A    between atoms: C_18  and  C_19
REMARK   12  A    between atoms: C_22  and  C_23
REMARK   13  A    between atoms: N_25  and  O_26
REMARK                            x       y       z     vdW  Elec       q    Type
REMARK                         _______ _______ _______ _____ _____    ______ ____
ROOT
ATOM      1  C   UNL     1       3.504   4.837  18.039  0.00  0.00    +0.000 C 
ATOM      2  O   UNL     1       3.757   4.640  16.849  0.00  0.00    +0.000 OA
ATOM      3  N   UNL     1       2.608   5.841  18.410  0.00  0.00    +0.000 N 
ATOM      4  C   UNL     1       2.057   6.781  17.415  0.00  0.00    +0.000 C 
ATOM      5  C   UNL     1       2.784   7.892  18.168  0.00  0.00    +0.000 C 
ATOM      6  C   UNL     1       2.891   6.936  19.375  0.00  0.00    +0.000 C 
ENDROOT
BRANCH   6   7
ATOM      7  C   UNL     1       1.887   7.184  20.559  0.00  0.00    +0.000 C 
ATOM      8  O   UNL     1       1.302   6.263  21.140  0.00  0.00    +0.000 OA
ATOM      9  N   UNL     1       1.706   8.501  20.953  0.00  0.00    +0.000 N 
ATOM     10  H   UNL     1       2.076   9.241  20.373  0.00  0.00    +0.000 HD
BRANCH   9  11
ATOM     11  C   UNL     1       0.806   8.868  22.030  0.00  0.00    +0.000 C 
BRANCH  11  12
ATOM     12  C   UNL     1      -0.066  10.051  21.672  0.00  0.00    +0.000 A 
ATOM     13  C   UNL     1      -0.344  10.379  20.338  0.00  0.00    +0.000 A 
ATOM     14  C   UNL     1      -1.150  11.487  20.025  0.00  0.00    +0.000 A 
ATOM     15  C   UNL     1      -1.696  12.294  21.034  0.00  0.00    +0.000 A 
ATOM     16  C   UNL     1      -1.448  11.945  22.368  0.00  0.00    +0.000 A 
ATOM     17  C   UNL     1      -0.626  10.849  22.680  0.00  0.00    +0.000 A 
BRANCH  15  18
ATOM     18  C   UNL     1      -2.554  13.473  20.650  0.00  0.00    +0.000 C 
ATOM     19  N   UNL     1      -1.933  14.604  20.172  0.00  0.00    +0.000 N 
ATOM     20  N   UNL     1      -3.859  13.570  20.714  0.00  0.00    +0.000 NA
ATOM     21  H   UNL     1      -1.159  14.450  19.543  0.00  0.00    +0.000 HD
ATOM     22  H   UNL     1      -2.613  15.261  19.801  0.00  0.00    +0.000 HD
BRANCH  20  23
ATOM     23  O   UNL     1      -4.498  12.467  21.271  0.00  0.00    +0.000 OA
ATOM     24  H   UNL     1      -4.415  12.642  22.226  0.00  0.00    +0.000 HD
ENDBRANCH  20  23
ENDBRANCH  15  18
ENDBRANCH  11  12
ENDBRANCH   9  11
ENDBRANCH   6   7
BRANCH   1  25
ATOM     25  C   UNL     1       4.159   3.999  19.184  0.00  0.00    +0.000 C 
BRANCH  25  26
ATOM     26  C   UNL     1       3.441   2.655  19.519  0.00  0.00    +0.000 C 
ATOM     27  C   UNL     1       3.415   2.320  21.020  0.00  0.00    +0.000 C 
ATOM     28  C   UNL     1       2.276   2.983  21.794  0.00  0.00    +0.000 C 
ATOM     29  C   UNL     1       0.918   2.772  21.140  0.00  0.00    +0.000 C 
ATOM     30  C   UNL     1       0.913   3.128  19.659  0.00  0.00    +0.000 C 
ATOM     31  C   UNL     1       2.043   2.439  18.905  0.00  0.00    +0.000 C 
ENDBRANCH  25  26
BRANCH  25  32
ATOM     32  N   UNL     1       5.599   3.754  18.886  0.00  0.00    +0.000 NA
ATOM     33  H   UNL     1       6.091   3.401  19.708  0.00  0.00    +0.000 HD
BRANCH  32  34
ATOM     34  C   UNL     1       6.248   4.980  18.401  0.00  0.00    +0.000 C 
BRANCH  34  35
ATOM     35  C   UNL     1       7.265   4.768  17.281  0.00  0.00    +0.000 C 
ATOM     36  O   UNL     1       8.353   4.218  17.353  0.00  0.00    +0.000 OA
BRANCH  35  37
ATOM     37  O   UNL     1       6.740   5.399  16.186  0.00  0.00    +0.000 OA
BRANCH  37  39
ATOM     38  C   UNL     1       5.912   4.219  14.258  0.00  0.00    +0.000 C 
ATOM     39  C   UNL     1       7.098   4.922  14.888  0.00  0.00    +0.000 C 
ENDBRANCH  37  39
ENDBRANCH  35  37
ENDBRANCH  34  35
ENDBRANCH  32  34
ENDBRANCH  25  32
ENDBRANCH   1  25
TORSDOF 12
ENDMDL
MODEL 4
REMARK VINA RESULT:      -7.5      2.819      4.485
REMARK  Name = 
REMARK  13 active torsions:
REMARK  status: ('A' for Active; 'I' for Inactive)
REMARK    1  A    between atoms: C_1  and  C_2
REMARK    2  A    between atoms: C_2  and  O_3
REMARK    3  A    between atoms: O_3  and  C_4
REMARK    4  A    between atoms: C_4  and  C_6
REMARK    5  A    between atoms: C_6  and  N_7
REMARK    6  A    between atoms: N_7  and  C_8
REMARK    7  A    between atoms: C_8  and  C_9
REMARK    8  A    between atoms: C_8  and  C_29
REMARK    9  A    between atoms: C_14  and  C_15
REMARK   10  A    between atoms: N_17  and  C_18
REMARK   11  A    between atoms: C_18  and  C_19
REMARK   12  A    between atoms: C_22  and  C_23
REMARK   13  A    between atoms: N_25  and  O_26
REMARK                            x       y       z     vdW  Elec       q    Type
REMARK                         _______ _______ _______ _____ _____    ______ ____
ROOT
ATOM      1  C   UNL     1       3.603   4.926  18.047  0.00  0.00    +0.000 C 
ATOM      2  O   UNL     1       3.900   4.774  16.860  0.00  0.00    +0.000 OA
ATOM      3  N   UNL     1       2.656   5.881  18.417  0.00  0.00    +0.000 N 
ATOM      4  C   UNL     1       2.097   6.827  17.432  0.00  0.00    +0.000 C 
ATOM      5  C   UNL     1       2.754   7.944  18.237  0.00  0.00    +0.000 C 
ATOM      6  C   UNL     1       2.864   6.959  19.420  0.00  0.00    +0.000 C 
ENDROOT
BRANCH   6   7
ATOM      7  C   UNL     1       1.814   7.132  20.578  0.00  0.00    +0.000 C 
ATOM      8  O   UNL     1       1.116   6.199  20.987  0.00  0.00    +0.000 OA
ATOM      9  N   UNL     1       1.728   8.390  21.153  0.00  0.00    +0.000 N 
ATOM     10  H   UNL     1       2.198   9.166  20.708  0.00  0.00    +0.000 HD
BRANCH   9  11
ATOM     11  C   UNL     1       0.800   8.686  22.229  0.00  0.00    +0.000 C 
BRANCH  11  12
ATOM     12  C   UNL     1       0.204  10.071  22.108  0.00  0.00    +0.000 A 
ATOM     13  C   UNL     1      -0.818  10.505  22.962  0.00  0.00    +0.000 A 
ATOM     14  C   UNL     1      -1.365  11.793  22.829  0.00  0.00    +0.000 A 
ATOM     15  C   UNL     1      -0.905  12.677  21.841  0.00  0.00    +0.000 A 
ATOM     16  C   UNL     1       0.142  12.256  21.011  0.00  0.00    +0.000 A 
ATOM     17  C   UNL     1       0.674  10.961  21.132  0.00  0.00    +0.000 A 
BRANCH  15  18
ATOM     18  C   UNL     1      -1.523  14.048  21.735  0.00  0.00    +0.000 C 
ATOM     19  N   UNL     1      -1.144  15.007  22.646  0.00  0.00    +0.000 N 
ATOM     20  N   UNL     1      -2.405  14.465  20.861  0.00  0.00    +0.000 NA
ATOM     21  H   UNL     1      -0.164  15.027  22.884  0.00  0.00    +0.000 HD
ATOM     22  H   UNL     1      -1.500  15.921  22.379  0.00  0.00    +0.000 HD
BRANCH  20  23
ATOM     23  O   UNL     1      -2.860  13.487  19.982  0.00  0.00    +0.000 OA
ATOM     24  H   UNL     1      -2.245  13.582  19.232  0.00  0.00    +0.000 HD
ENDBRANCH  20  23
ENDBRANCH  15  18
ENDBRANCH  11  12
ENDBRANCH   9  11
ENDBRANCH   6   7
BRANCH   1  25
ATOM     25  C   UNL     1       4.257   4.082  19.189  0.00  0.00    +0.000 C 
BRANCH  25  26
ATOM     26  C   UNL     1       3.576   2.708  19.474  0.00  0.00    +0.000 C 
ATOM     27  C   UNL     1       3.500   2.348  20.968  0.00  0.00    +0.000 C 
ATOM     28  C   UNL     1       2.307   2.958  21.703  0.00  0.00    +0.000 C 
ATOM     29  C   UNL     1       0.986   2.708  20.989  0.00  0.00    +0.000 C 
ATOM     30  C   UNL     1       1.029   3.087  19.515  0.00  0.00    +0.000 C 
ATOM     31  C   UNL     1       2.213   2.451  18.799  0.00  0.00    +0.000 C 
ENDBRANCH  25  26
BRANCH  25  32
ATOM     32  N   UNL     1       5.711   3.891  18.921  0.00  0.00    +0.000 NA
ATOM     33  H   UNL     1       6.098   3.146  19.502  0.00  0.00    +0.000 HD
BRANCH  32  34
ATOM     34  C   UNL     1       6.453   5.140  19.149  0.00  0.00    +0.000 C 
BRANCH  34  35
ATOM     35  C   UNL     1       7.101   5.737  17.902  0.00  0.00    +0.000 C 
ATOM     36  O   UNL     1       7.752   5.157  17.046  0.00  0.00    +0.000 OA
BRANCH  35  37
ATOM     37  O   UNL     1       6.874   7.084  17.980  0.00  0.00    +0.000 OA
BRANCH  37  39
ATOM     38  C   UNL     1       8.332   8.986  18.211  0.00  0.00    +0.000 C 
ATOM     39  C   UNL     1       7.739   7.965  17.261  0.00  0.00    +0.000 C 
ENDBRANCH  37  39
ENDBRANCH  35  37
ENDBRANCH  34  35
ENDBRANCH  32  34
ENDBRANCH  25  32
ENDBRANCH   1  25
TORSDOF 12
ENDMDL
MODEL 5
REMARK VINA RESULT:      -7.4      1.380      1.612
REMARK  Name = 
REMARK  13 active torsions:
REMARK  status: ('A' for Active; 'I' for Inactive)
REMARK    1  A    between atoms: C_1  and  C_2
REMARK    2  A    between atoms: C_2  and  O_3
REMARK    3  A    between atoms: O_3  and  C_4
REMARK    4  A    between atoms: C_4  and  C_6
REMARK    5  A    between atoms: C_6  and  N_7
REMARK    6  A    between atoms: N_7  and  C_8
REMARK    7  A    between atoms: C_8  and  C_9
REMARK    8  A    between atoms: C_8  and  C_29
REMARK    9  A    between atoms: C_14  and  C_15
REMARK   10  A    between atoms: N_17  and  C_18
REMARK   11  A    between atoms: C_18  and  C_19
REMARK   12  A    between atoms: C_22  and  C_23
REMARK   13  A    between atoms: N_25  and  O_26
REMARK                            x       y       z     vdW  Elec       q    Type
REMARK                         _______ _______ _______ _____ _____    ______ ____
ROOT
ATOM      1  C   UNL     1       5.107   3.841  16.784  0.00  0.00    +0.000 C 
ATOM      2  O   UNL     1       5.769   2.938  16.267  0.00  0.00    +0.000 OA
ATOM      3  N   UNL     1       4.120   3.539  17.723  0.00  0.00    +0.000 N 
ATOM      4  C   UNL     1       3.742   2.142  18.014  0.00  0.00    +0.000 C 
ATOM      5  C   UNL     1       2.360   2.476  17.460  0.00  0.00    +0.000 C 
ATOM      6  C   UNL     1       2.698   3.969  17.650  0.00  0.00    +0.000 C 
ENDROOT
BRANCH   6   7
ATOM      7  C   UNL     1       2.056   4.684  18.895  0.00  0.00    +0.000 C 
ATOM      8  O   UNL     1       1.236   4.127  19.632  0.00  0.00    +0.000 OA
ATOM      9  N   UNL     1       2.481   5.978  19.154  0.00  0.00    +0.000 N 
ATOM     10  H   UNL     1       3.035   6.460  18.460  0.00  0.00    +0.000 HD
BRANCH   9  11
ATOM     11  C   UNL     1       1.967   6.750  20.269  0.00  0.00    +0.000 C 
BRANCH  11  12
ATOM     12  C   UNL     1       1.626   8.170  19.874  0.00  0.00    +0.000 A 
ATOM     13  C   UNL     1       1.831   8.637  18.569  0.00  0.00    +0.000 A 
ATOM     14  C   UNL     1       1.514   9.962  18.224  0.00  0.00    +0.000 A 
ATOM     15  C   UNL     1       0.987  10.852  19.172  0.00  0.00    +0.000 A 
ATOM     16  C   UNL     1       0.748  10.375  20.467  0.00  0.00    +0.000 A 
ATOM     17  C   UNL     1       1.083   9.056  20.817  0.00  0.00    +0.000 A 
BRANCH  15  18
ATOM     18  C   UNL     1       0.665  12.264  18.756  0.00  0.00    +0.000 C 
ATOM     19  N   UNL     1      -0.574  12.772  19.073  0.00  0.00    +0.000 N 
ATOM     20  N   UNL     1       1.433  13.105  18.107  0.00  0.00    +0.000 NA
ATOM     21  H   UNL     1      -0.927  12.534  19.987  0.00  0.00    +0.000 HD
ATOM     22  H   UNL     1      -0.615  13.770  18.886  0.00  0.00    +0.000 HD
BRANCH  20  23
ATOM     23  O   UNL     1       2.659  12.582  17.707  0.00  0.00    +0.000 OA
ATOM     24  H   UNL     1       2.887  12.000  18.454  0.00  0.00    +0.000 HD
ENDBRANCH  20  23
ENDBRANCH  15  18
ENDBRANCH  11  12
ENDBRANCH   9  11
ENDBRANCH   6   7
BRANCH   1  25
ATOM     25  C   UNL     1       5.319   5.347  16.424  0.00  0.00    +0.000 C 
BRANCH  25  26
ATOM     26  C   UNL     1       5.452   6.310  17.644  0.00  0.00    +0.000 C 
ATOM     27  C   UNL     1       6.076   5.656  18.890  0.00  0.00    +0.000 C 
ATOM     28  C   UNL     1       7.604   5.635  18.891  0.00  0.00    +0.000 C 
ATOM     29  C   UNL     1       8.211   7.000  18.600  0.00  0.00    +0.000 C 
ATOM     30  C   UNL     1       7.629   7.653  17.353  0.00  0.00    +0.000 C 
ATOM     31  C   UNL     1       6.107   7.681  17.383  0.00  0.00    +0.000 C 
ENDBRANCH  25  26
BRANCH  25  32
ATOM     32  N   UNL     1       6.493   5.500  15.517  0.00  0.00    +0.000 NA
ATOM     33  H   UNL     1       6.663   6.483  15.297  0.00  0.00    +0.000 HD
BRANCH  32  34
ATOM     34  C   UNL     1       6.298   4.735  14.277  0.00  0.00    +0.000 C 
BRANCH  34  35
ATOM     35  C   UNL     1       7.398   4.915  13.233  0.00  0.00    +0.000 C 
ATOM     36  O   UNL     1       8.320   5.716  13.248  0.00  0.00    +0.000 OA
BRANCH  35  37
ATOM     37  O   UNL     1       7.090   4.044  12.223  0.00  0.00    +0.000 OA
BRANCH  37  39
ATOM     38  C   UNL     1       5.944   2.059  11.486  0.00  0.00    +0.000 C 
ATOM     39  C   UNL     1       5.845   3.345  12.282  0.00  0.00    +0.000 C 
ENDBRANCH  37  39
ENDBRANCH  35  37
ENDBRANCH  34  35
ENDBRANCH  32  34
ENDBRANCH  25  32
ENDBRANCH   1  25
TORSDOF 12
ENDMDL
MODEL 6
REMARK VINA RESULT:      -7.3      2.295      3.875
REMARK  Name = 
REMARK  13 active torsions:
REMARK  status: ('A' for Active; 'I' for Inactive)
REMARK    1  A    between atoms: C_1  and  C_2
REMARK    2  A    between atoms: C_2  and  O_3
REMARK    3  A    between atoms: O_3  and  C_4
REMARK    4  A    between atoms: C_4  and  C_6
REMARK    5  A    between atoms: C_6  and  N_7
REMARK    6  A    between atoms: N_7  and  C_8
REMARK    7  A    between atoms: C_8  and  C_9
REMARK    8  A    between atoms: C_8  and  C_29
REMARK    9  A    between atoms: C_14  and  C_15
REMARK   10  A    between atoms: N_17  and  C_18
REMARK   11  A    between atoms: C_18  and  C_19
REMARK   12  A    between atoms: C_22  and  C_23
REMARK   13  A    between atoms: N_25  and  O_26
REMARK                            x       y       z     vdW  Elec       q    Type
REMARK                         _______ _______ _______ _____ _____    ______ ____
ROOT
ATOM      1  C   UNL     1       3.652   5.003  18.111  0.00  0.00    +0.000 C 
ATOM      2  O   UNL     1       3.881   4.769  16.922  0.00  0.00    +0.000 OA
ATOM      3  N   UNL     1       2.670   5.928  18.467  0.00  0.00    +0.000 N 
ATOM      4  C   UNL     1       1.988   6.753  17.450  0.00  0.00    +0.000 C 
ATOM      5  C   UNL     1       2.622   7.971  18.116  0.00  0.00    +0.000 C 
ATOM      6  C   UNL     1       2.871   7.098  19.363  0.00  0.00    +0.000 C 
ENDROOT
BRANCH   6   7
ATOM      7  C   UNL     1       1.889   7.305  20.574  0.00  0.00    +0.000 C 
ATOM      8  O   UNL     1       1.264   6.373  21.091  0.00  0.00    +0.000 OA
ATOM      9  N   UNL     1       1.776   8.596  21.067  0.00  0.00    +0.000 N 
ATOM     10  H   UNL     1       2.178   9.358  20.539  0.00  0.00    +0.000 HD
BRANCH   9  11
ATOM     11  C   UNL     1       0.904   8.925  22.178  0.00  0.00    +0.000 C 
BRANCH  11  12
ATOM     12  C   UNL     1      -0.010  10.089  21.865  0.00  0.00    +0.000 A 
ATOM     13  C   UNL     1      -0.107  10.617  20.571  0.00  0.00    +0.000 A 
ATOM     14  C   UNL     1      -0.957  11.703  20.302  0.00  0.00    +0.000 A 
ATOM     15  C   UNL     1      -1.728  12.289  21.317  0.00  0.00    +0.000 A 
ATOM     16  C   UNL     1      -1.659  11.737  22.603  0.00  0.00    +0.000 A 
ATOM     17  C   UNL     1      -0.795  10.664  22.875  0.00  0.00    +0.000 A 
BRANCH  15  18
ATOM     18  C   UNL     1      -2.624  13.454  20.981  0.00  0.00    +0.000 C 
ATOM     19  N   UNL     1      -3.762  13.213  20.247  0.00  0.00    +0.000 N 
ATOM     20  N   UNL     1      -2.458  14.713  21.306  0.00  0.00    +0.000 NA
ATOM     21  H   UNL     1      -4.269  12.373  20.482  0.00  0.00    +0.000 HD
ATOM     22  H   UNL     1      -4.359  14.035  20.222  0.00  0.00    +0.000 HD
BRANCH  20  23
ATOM     23  O   UNL     1      -1.272  14.989  21.979  0.00  0.00    +0.000 OA
ATOM     24  H   UNL     1      -0.610  14.907  21.269  0.00  0.00    +0.000 HD
ENDBRANCH  20  23
ENDBRANCH  15  18
ENDBRANCH  11  12
ENDBRANCH   9  11
ENDBRANCH   6   7
BRANCH   1  25
ATOM     25  C   UNL     1       4.431   4.300  19.268  0.00  0.00    +0.000 C 
BRANCH  25  26
ATOM     26  C   UNL     1       3.843   2.931  19.730  0.00  0.00    +0.000 C 
ATOM     27  C   UNL     1       2.671   3.058  20.720  0.00  0.00    +0.000 C 
ATOM     28  C   UNL     1       1.311   3.285  20.060  0.00  0.00    +0.000 C 
ATOM     29  C   UNL     1       1.017   2.279  18.956  0.00  0.00    +0.000 C 
ATOM     30  C   UNL     1       2.152   2.160  17.947  0.00  0.00    +0.000 C 
ATOM     31  C   UNL     1       3.493   1.914  18.625  0.00  0.00    +0.000 C 
ENDBRANCH  25  26
BRANCH  25  32
ATOM     32  N   UNL     1       5.868   4.146  18.904  0.00  0.00    +0.000 NA
ATOM     33  H   UNL     1       6.343   3.502  19.539  0.00  0.00    +0.000 HD
BRANCH  32  34
ATOM     34  C   UNL     1       6.551   5.449  18.910  0.00  0.00    +0.000 C 
BRANCH  34  35
ATOM     35  C   UNL     1       7.070   5.907  17.549  0.00  0.00    +0.000 C 
ATOM     36  O   UNL     1       6.965   7.013  17.041  0.00  0.00    +0.000 OA
BRANCH  35  37
ATOM     37  O   UNL     1       7.611   4.791  16.969  0.00  0.00    +0.000 OA
BRANCH  37  39
ATOM     38  C   UNL     1       7.128   4.908  14.613  0.00  0.00    +0.000 C 
ATOM     39  C   UNL     1       6.892   4.157  15.908  0.00  0.00    +0.000 C 
ENDBRANCH  37  39
ENDBRANCH  35  37
ENDBRANCH  34  35
ENDBRANCH  32  34
ENDBRANCH  25  32
ENDBRANCH   1  25
TORSDOF 12
ENDMDL
MODEL 7
REMARK VINA RESULT:      -7.2      3.039      9.258
REMARK  Name = 
REMARK  13 active torsions:
REMARK  status: ('A' for Active; 'I' for Inactive)
REMARK    1  A    between atoms: C_1  and  C_2
REMARK    2  A    between atoms: C_2  and  O_3
REMARK    3  A    between atoms: O_3  and  C_4
REMARK    4  A    between atoms: C_4  and  C_6
REMARK    5  A    between atoms: C_6  and  N_7
REMARK    6  A    between atoms: N_7  and  C_8
REMARK    7  A    between atoms: C_8  and  C_9
REMARK    8  A    between atoms: C_8  and  C_29
REMARK    9  A    between atoms: C_14  and  C_15
REMARK   10  A    between atoms: N_17  and  C_18
REMARK   11  A    between atoms: C_18  and  C_19
REMARK   12  A    between atoms: C_22  and  C_23
REMARK   13  A    between atoms: N_25  and  O_26
REMARK                            x       y       z     vdW  Elec       q    Type
REMARK                         _______ _______ _______ _____ _____    ______ ____
ROOT
ATOM      1  C   UNL     1       0.430  11.988  21.585  0.00  0.00    +0.000 C 
ATOM      2  O   UNL     1      -0.047  12.972  22.155  0.00  0.00    +0.000 OA
ATOM      3  N   UNL     1      -0.064  10.711  21.857  0.00  0.00    +0.000 N 
ATOM      4  C   UNL     1      -1.056  10.486  22.926  0.00  0.00    +0.000 C 
ATOM      5  C   UNL     1       0.003   9.645  23.633  0.00  0.00    +0.000 C 
ATOM      6  C   UNL     1       0.751   9.545  22.287  0.00  0.00    +0.000 C 
ENDROOT
BRANCH   6   7
ATOM      7  C   UNL     1       0.610   8.189  21.503  0.00  0.00    +0.000 C 
ATOM      8  O   UNL     1      -0.484   7.660  21.281  0.00  0.00    +0.000 OA
ATOM      9  N   UNL     1       1.784   7.619  21.035  0.00  0.00    +0.000 N 
ATOM     10  H   UNL     1       2.669   7.987  21.354  0.00  0.00    +0.000 HD
BRANCH   9  11
ATOM     11  C   UNL     1       1.795   6.368  20.299  0.00  0.00    +0.000 C 
BRANCH  11  12
ATOM     12  C   UNL     1       2.960   6.278  19.339  0.00  0.00    +0.000 A 
ATOM     13  C   UNL     1       3.047   7.107  18.213  0.00  0.00    +0.000 A 
ATOM     14  C   UNL     1       4.135   7.002  17.329  0.00  0.00    +0.000 A 
ATOM     15  C   UNL     1       5.159   6.069  17.546  0.00  0.00    +0.000 A 
ATOM     16  C   UNL     1       5.091   5.266  18.692  0.00  0.00    +0.000 A 
ATOM     17  C   UNL     1       3.994   5.357  19.565  0.00  0.00    +0.000 A 
BRANCH  15  18
ATOM     18  C   UNL     1       6.305   5.992  16.569  0.00  0.00    +0.000 C 
ATOM     19  N   UNL     1       6.177   5.167  15.476  0.00  0.00    +0.000 N 
ATOM     20  N   UNL     1       7.449   6.629  16.623  0.00  0.00    +0.000 NA
ATOM     21  H   UNL     1       5.271   5.160  15.032  0.00  0.00    +0.000 HD
ATOM     22  H   UNL     1       6.934   5.319  14.816  0.00  0.00    +0.000 HD
BRANCH  20  23
ATOM     23  O   UNL     1       7.629   7.406  17.763  0.00  0.00    +0.000 OA
ATOM     24  H   UNL     1       6.804   7.242  18.255  0.00  0.00    +0.000 HD
ENDBRANCH  20  23
ENDBRANCH  15  18
ENDBRANCH  11  12
ENDBRANCH   9  11
ENDBRANCH   6   7
BRANCH   1  25
ATOM     25  C   UNL     1       1.596  12.102  20.551  0.00  0.00    +0.000 C 
BRANCH  25  26
ATOM     26  C   UNL     1       1.154  12.196  19.058  0.00  0.00    +0.000 C 
ATOM     27  C   UNL     1       1.586  10.992  18.203  0.00  0.00    +0.000 C 
ATOM     28  C   UNL     1       0.643   9.792  18.284  0.00  0.00    +0.000 C 
ATOM     29  C   UNL     1      -0.812  10.169  18.042  0.00  0.00    +0.000 C 
ATOM     30  C   UNL     1      -1.270  11.340  18.901  0.00  0.00    +0.000 C 
ATOM     31  C   UNL     1      -0.328  12.531  18.789  0.00  0.00    +0.000 C 
ENDBRANCH  25  26
BRANCH  25  32
ATOM     32  N   UNL     1       2.483  13.249  20.899  0.00  0.00    +0.000 NA
ATOM     33  H   UNL     1       2.193  13.688  21.774  0.00  0.00    +0.000 HD
BRANCH  32  34
ATOM     34  C   UNL     1       2.496  14.245  19.818  0.00  0.00    +0.000 C 
BRANCH  34  35
ATOM     35  C   UNL     1       1.833  15.576  20.164  0.00  0.00    +0.000 C 
ATOM     36  O   UNL     1       1.363  15.921  21.237  0.00  0.00    +0.000 OA
BRANCH  35  37
ATOM     37  O   UNL     1       1.796  16.283  18.992  0.00  0.00    +0.000 OA
BRANCH  37  39
ATOM     38  C   UNL     1       2.783  17.081  16.947  0.00  0.00    +0.000 C 
ATOM     39  C   UNL     1       3.034  16.647  18.377  0.00  0.00    +0.000 C 
ENDBRANCH  37  39
ENDBRANCH  35  37
ENDBRANCH  34  35
ENDBRANCH  32  34
ENDBRANCH  25  32
ENDBRANCH   1  25
TORSDOF 12
ENDMDL
MODEL 8
REMARK VINA RESULT:      -7.2      2.234      3.914
REMARK  Name = 
REMARK  13 active torsions:
REMARK  status: ('A' for Active; 'I' for Inactive)
REMARK    1  A    between atoms: C_1  and  C_2
REMARK    2  A    between atoms: C_2  and  O_3
REMARK    3  A    between atoms: O_3  and  C_4
REMARK    4  A    between atoms: C_4  and  C_6
REMARK    5  A    between atoms: C_6  and  N_7
REMARK    6  A    between atoms: N_7  and  C_8
REMARK    7  A    between atoms: C_8  and  C_9
REMARK    8  A    between atoms: C_8  and  C_29
REMARK    9  A    between atoms: C_14  and  C_15
REMARK   10  A    between atoms: N_17  and  C_18
REMARK   11  A    between atoms: C_18  and  C_19
REMARK   12  A    between atoms: C_22  and  C_23
REMARK   13  A    between atoms: N_25  and  O_26
REMARK                            x       y       z     vdW  Elec       q    Type
REMARK                         _______ _______ _______ _____ _____    ______ ____
ROOT
ATOM      1  C   UNL     1       3.530   5.026  18.252  0.00  0.00    +0.000 C 
ATOM      2  O   UNL     1       3.808   4.785  17.075  0.00  0.00    +0.000 OA
ATOM      3  N   UNL     1       2.563   5.981  18.564  0.00  0.00    +0.000 N 
ATOM      4  C   UNL     1       1.955   6.827  17.518  0.00  0.00    +0.000 C 
ATOM      5  C   UNL     1       2.595   8.025  18.214  0.00  0.00    +0.000 C 
ATOM      6  C   UNL     1       2.759   7.144  19.470  0.00  0.00    +0.000 C 
ENDROOT
BRANCH   6   7
ATOM      7  C   UNL     1       1.729   7.381  20.635  0.00  0.00    +0.000 C 
ATOM      8  O   UNL     1       0.945   6.507  21.019  0.00  0.00    +0.000 OA
ATOM      9  N   UNL     1       1.760   8.626  21.246  0.00  0.00    +0.000 N 
ATOM     10  H   UNL     1       2.301   9.366  20.822  0.00  0.00    +0.000 HD
BRANCH   9  11
ATOM     11  C   UNL     1       0.863   8.977  22.330  0.00  0.00    +0.000 C 
BRANCH  11  12
ATOM     12  C   UNL     1      -0.037  10.140  21.977  0.00  0.00    +0.000 A 
ATOM     13  C   UNL     1      -0.880  10.729  22.929  0.00  0.00    +0.000 A 
ATOM     14  C   UNL     1      -1.714  11.805  22.579  0.00  0.00    +0.000 A 
ATOM     15  C   UNL     1      -1.728  12.316  21.273  0.00  0.00    +0.000 A 
ATOM     16  C   UNL     1      -0.859  11.751  20.331  0.00  0.00    +0.000 A 
ATOM     17  C   UNL     1      -0.039  10.663  20.676  0.00  0.00    +0.000 A 
BRANCH  15  18
ATOM     18  C   UNL     1      -2.641  13.470  20.944  0.00  0.00    +0.000 C 
ATOM     19  N   UNL     1      -3.854  13.196  20.354  0.00  0.00    +0.000 N 
ATOM     20  N   UNL     1      -2.428  14.747  21.150  0.00  0.00    +0.000 NA
ATOM     21  H   UNL     1      -4.343  12.387  20.707  0.00  0.00    +0.000 HD
ATOM     22  H   UNL     1      -4.441  14.026  20.328  0.00  0.00    +0.000 HD
BRANCH  20  23
ATOM     23  O   UNL     1      -1.173  15.049  21.671  0.00  0.00    +0.000 OA
ATOM     24  H   UNL     1      -1.177  14.559  22.513  0.00  0.00    +0.000 HD
ENDBRANCH  20  23
ENDBRANCH  15  18
ENDBRANCH  11  12
ENDBRANCH   9  11
ENDBRANCH   6   7
BRANCH   1  25
ATOM     25  C   UNL     1       4.233   4.299  19.443  0.00  0.00    +0.000 C 
BRANCH  25  26
ATOM     26  C   UNL     1       3.597   2.936  19.858  0.00  0.00    +0.000 C 
ATOM     27  C   UNL     1       2.372   3.073  20.779  0.00  0.00    +0.000 C 
ATOM     28  C   UNL     1       1.057   3.328  20.043  0.00  0.00    +0.000 C 
ATOM     29  C   UNL     1       0.812   2.336  18.914  0.00  0.00    +0.000 C 
ATOM     30  C   UNL     1       2.002   2.207  17.972  0.00  0.00    +0.000 C 
ATOM     31  C   UNL     1       3.297   1.933  18.725  0.00  0.00    +0.000 C 
ENDBRANCH  25  26
BRANCH  25  32
ATOM     32  N   UNL     1       5.686   4.124  19.157  0.00  0.00    +0.000 NA
ATOM     33  H   UNL     1       6.251   4.323  19.984  0.00  0.00    +0.000 HD
BRANCH  32  34
ATOM     34  C   UNL     1       6.106   4.985  18.043  0.00  0.00    +0.000 C 
BRANCH  34  35
ATOM     35  C   UNL     1       7.420   4.580  17.379  0.00  0.00    +0.000 C 
ATOM     36  O   UNL     1       8.447   4.202  17.921  0.00  0.00    +0.000 OA
BRANCH  35  37
ATOM     37  O   UNL     1       7.239   4.806  16.041  0.00  0.00    +0.000 OA
BRANCH  37  39
ATOM     38  C   UNL     1       6.467   4.196  13.844  0.00  0.00    +0.000 C 
ATOM     39  C   UNL     1       6.289   4.005  15.336  0.00  0.00    +0.000 C 
ENDBRANCH  37  39
ENDBRANCH  35  37
ENDBRANCH  34  35
ENDBRANCH  32  34
ENDBRANCH  25  32
ENDBRANCH   1  25
TORSDOF 12
ENDMDL
MODEL 9
REMARK VINA RESULT:      -7.2      2.462      4.182
REMARK  Name = 
REMARK  13 active torsions:
REMARK  status: ('A' for Active; 'I' for Inactive)
REMARK    1  A    between atoms: C_1  and  C_2
REMARK    2  A    between atoms: C_2  and  O_3
REMARK    3  A    between atoms: O_3  and  C_4
REMARK    4  A    between atoms: C_4  and  C_6
REMARK    5  A    between atoms: C_6  and  N_7
REMARK    6  A    between atoms: N_7  and  C_8
REMARK    7  A    between atoms: C_8  and  C_9
REMARK    8  A    between atoms: C_8  and  C_29
REMARK    9  A    between atoms: C_14  and  C_15
REMARK   10  A    between atoms: N_17  and  C_18
REMARK   11  A    between atoms: C_18  and  C_19
REMARK   12  A    between atoms: C_22  and  C_23
REMARK   13  A    between atoms: N_25  and  O_26
REMARK                            x       y       z     vdW  Elec       q    Type
REMARK                         _______ _______ _______ _____ _____    ______ ____
ROOT
ATOM      1  C   UNL     1       3.469   5.021  18.221  0.00  0.00    +0.000 C 
ATOM      2  O   UNL     1       3.701   4.805  17.029  0.00  0.00    +0.000 OA
ATOM      3  N   UNL     1       2.510   5.964  18.591  0.00  0.00    +0.000 N 
ATOM      4  C   UNL     1       1.858   6.827  17.587  0.00  0.00    +0.000 C 
ATOM      5  C   UNL     1       2.520   8.014  18.281  0.00  0.00    +0.000 C 
ATOM      6  C   UNL     1       2.737   7.110  19.512  0.00  0.00    +0.000 C 
ENDROOT
BRANCH   6   7
ATOM      7  C   UNL     1       1.753   7.318  20.721  0.00  0.00    +0.000 C 
ATOM      8  O   UNL     1       1.020   6.419  21.145  0.00  0.00    +0.000 OA
ATOM      9  N   UNL     1       1.767   8.567  21.323  0.00  0.00    +0.000 N 
ATOM     10  H   UNL     1       2.261   9.324  20.870  0.00  0.00    +0.000 HD
BRANCH   9  11
ATOM     11  C   UNL     1       0.908   8.893  22.445  0.00  0.00    +0.000 C 
BRANCH  11  12
ATOM     12  C   UNL     1       0.057  10.115  22.180  0.00  0.00    +0.000 A 
ATOM     13  C   UNL     1      -0.915  10.543  23.095  0.00  0.00    +0.000 A 
ATOM     14  C   UNL     1      -1.701  11.677  22.827  0.00  0.00    +0.000 A 
ATOM     15  C   UNL     1      -1.537  12.410  21.642  0.00  0.00    +0.000 A 
ATOM     16  C   UNL     1      -0.540  12.004  20.745  0.00  0.00    +0.000 A 
ATOM     17  C   UNL     1       0.232  10.858  21.004  0.00  0.00    +0.000 A 
BRANCH  15  18
ATOM     18  C   UNL     1      -2.404  13.618  21.397  0.00  0.00    +0.000 C 
ATOM     19  N   UNL     1      -2.084  14.792  22.039  0.00  0.00    +0.000 N 
ATOM     20  N   UNL     1      -3.462  13.704  20.628  0.00  0.00    +0.000 NA
ATOM     21  H   UNL     1      -1.101  15.011  22.096  0.00  0.00    +0.000 HD
ATOM     22  H   UNL     1      -2.636  15.566  21.677  0.00  0.00    +0.000 HD
BRANCH  20  23
ATOM     23  O   UNL     1      -3.848  12.507  20.034  0.00  0.00    +0.000 OA
ATOM     24  H   UNL     1      -2.990  12.118  19.781  0.00  0.00    +0.000 HD
ENDBRANCH  20  23
ENDBRANCH  15  18
ENDBRANCH  11  12
ENDBRANCH   9  11
ENDBRANCH   6   7
BRANCH   1  25
ATOM     25  C   UNL     1       4.222   4.273  19.369  0.00  0.00    +0.000 C 
BRANCH  25  26
ATOM     26  C   UNL     1       3.601   2.906  19.791  0.00  0.00    +0.000 C 
ATOM     27  C   UNL     1       2.400   3.036  20.745  0.00  0.00    +0.000 C 
ATOM     28  C   UNL     1       1.065   3.292  20.045  0.00  0.00    +0.000 C 
ATOM     29  C   UNL     1       0.793   2.306  18.917  0.00  0.00    +0.000 C 
ATOM     30  C   UNL     1       1.958   2.185  17.944  0.00  0.00    +0.000 C 
ATOM     31  C   UNL     1       3.273   1.910  18.661  0.00  0.00    +0.000 C 
ENDBRANCH  25  26
BRANCH  25  32
ATOM     32  N   UNL     1       5.660   4.098  19.015  0.00  0.00    +0.000 NA
ATOM     33  H   UNL     1       6.081   3.336  19.548  0.00  0.00    +0.000 HD
BRANCH  32  34
ATOM     34  C   UNL     1       6.409   5.343  19.242  0.00  0.00    +0.000 C 
BRANCH  34  35
ATOM     35  C   UNL     1       7.118   5.899  18.009  0.00  0.00    +0.000 C 
ATOM     36  O   UNL     1       7.629   7.000  17.873  0.00  0.00    +0.000 OA
BRANCH  35  37
ATOM     37  O   UNL     1       6.990   4.933  17.047  0.00  0.00    +0.000 OA
BRANCH  37  39
ATOM     38  C   UNL     1       7.257   4.844  14.656  0.00  0.00    +0.000 C 
ATOM     39  C   UNL     1       6.375   5.285  15.806  0.00  0.00    +0.000 C 
ENDBRANCH  37  39
ENDBRANCH  35  37
ENDBRANCH  34  35
ENDBRANCH  32  34
ENDBRANCH  25  32
ENDBRANCH   1  25
TORSDOF 12
ENDMDL
