MODEL 1
REMARK VINA RESULT:      -7.7      0.000      0.000
REMARK  Name = 
REMARK  4 active torsions:
REMARK  status: ('A' for Active; 'I' for Inactive)
REMARK    1  A    between atoms: C_4  and  C_5
REMARK    2  A    between atoms: C_5  and  N_6
REMARK    3  A    between atoms: N_9  and  C_10
REMARK    4  A    between atoms: C_10  and  C_11
REMARK                            x       y       z     vdW  Elec       q    Type
REMARK                         _______ _______ _______ _____ _____    ______ ____
ROOT
ATOM      1  N   UNL     1       3.559   4.924  17.396  0.00  0.00    +0.000 NA
ATOM      2  C   UNL     1       4.400   5.888  16.657  0.00  0.00    +0.000 C 
ATOM      3  C   UNL     1       5.625   6.500  17.405  0.00  0.00    +0.000 C 
ATOM      4  N   UNL     1       6.390   5.649  18.348  0.00  0.00    +0.000 NA
ATOM      5  C   UNL     1       5.493   4.694  19.028  0.00  0.00    +0.000 C 
ATOM      6  C   UNL     1       4.465   3.992  18.104  0.00  0.00    +0.000 C 
ENDROOT
BRANCH   1   7
ATOM      7  C   UNL     1       2.652   5.560  18.373  0.00  0.00    +0.000 C 
BRANCH   7  11
ATOM      8  C   UNL     1       1.248   2.744  21.328  0.00  0.00    +0.000 A 
ATOM      9  C   UNL     1       0.771   2.654  20.022  0.00  0.00    +0.000 A 
ATOM     10  C   UNL     1       1.136   3.609  19.064  0.00  0.00    +0.000 A 
ATOM     11  C   UNL     1       1.984   4.670  19.408  0.00  0.00    +0.000 A 
ATOM     12  C   UNL     1       2.414   4.772  20.746  0.00  0.00    +0.000 A 
ATOM     13  C   UNL     1       2.055   3.816  21.694  0.00  0.00    +0.000 A 
ENDBRANCH   7  11
ENDBRANCH   1   7
BRANCH   4  14
ATOM     14  C   UNL     1       7.512   4.928  17.722  0.00  0.00    +0.000 C 
BRANCH  14  15
ATOM     15  C   UNL     1       7.287   4.635  16.266  0.00  0.00    +0.000 A 
ATOM     16  C   UNL     1       6.463   3.711  15.651  0.00  0.00    +0.000 A 
ATOM     17  N   UNL     1       6.591   3.939  14.303  0.00  0.00    +0.000 N 
ATOM     18  C   UNL     1       6.007   3.294  13.219  0.00  0.00    +0.000 A 
ATOM     19  C   UNL     1       6.254   3.744  11.982  0.00  0.00    +0.000 A 
ATOM     20  C   UNL     1       7.167   4.916  11.907  0.00  0.00    +0.000 A 
ATOM     21  N   UNL     1       7.743   5.512  12.903  0.00  0.00    +0.000 NA
ATOM     22  C   UNL     1       7.461   5.011  14.148  0.00  0.00    +0.000 A 
ATOM     23  N   UNL     1       7.902   5.423  15.315  0.00  0.00    +0.000 NA
ENDBRANCH  14  15
ENDBRANCH   4  14
TORSDOF 4
ENDMDL
MODEL 2
REMARK VINA RESULT:      -7.7      2.677      3.420
REMARK  Name = 
REMARK  4 active torsions:
REMARK  status: ('A' for Active; 'I' for Inactive)
REMARK    1  A    between atoms: C_4  and  C_5
REMARK    2  A    between atoms: C_5  and  N_6
REMARK    3  A    between atoms: N_9  and  C_10
REMARK    4  A    between atoms: C_10  and  C_11
REMARK                            x       y       z     vdW  Elec       q    Type
REMARK                         _______ _______ _______ _____ _____    ______ ____
ROOT
ATOM      1  N   UNL     1       2.308   5.891  19.494  0.00  0.00    +0.000 NA
ATOM      2  C   UNL     1       2.483   6.034  18.034  0.00  0.00    +0.000 C 
ATOM      3  C   UNL     1       3.940   6.141  17.488  0.00  0.00    +0.000 C 
ATOM      4  N   UNL     1       5.011   5.347  18.137  0.00  0.00    +0.000 NA
ATOM      5  C   UNL     1       4.758   5.221  19.585  0.00  0.00    +0.000 C 
ATOM      6  C   UNL     1       3.292   4.891  19.966  0.00  0.00    +0.000 C 
ENDROOT
BRANCH   1   7
ATOM      7  C   UNL     1       2.500   7.152  20.238  0.00  0.00    +0.000 C 
BRANCH   7  11
ATOM      8  C   UNL     1      -0.386  10.355  20.467  0.00  0.00    +0.000 A 
ATOM      9  C   UNL     1      -0.371   9.381  21.462  0.00  0.00    +0.000 A 
ATOM     10  C   UNL     1       0.491   8.279  21.367  0.00  0.00    +0.000 A 
ATOM     11  C   UNL     1       1.347   8.143  20.266  0.00  0.00    +0.000 A 
ATOM     12  C   UNL     1       1.279   9.112  19.246  0.00  0.00    +0.000 A 
ATOM     13  C   UNL     1       0.427  10.209  19.348  0.00  0.00    +0.000 A 
ENDBRANCH   7  11
ENDBRANCH   1   7
BRANCH   4  14
ATOM     14  C   UNL     1       5.206   4.013  17.542  0.00  0.00    +0.000 C 
BRANCH  14  15
ATOM     15  C   UNL     1       5.782   4.064  16.155  0.00  0.00    +0.000 A 
ATOM     16  C   UNL     1       5.399   3.413  14.998  0.00  0.00    +0.000 A 
ATOM     17  N   UNL     1       6.224   3.896  14.010  0.00  0.00    +0.000 N 
ATOM     18  C   UNL     1       6.295   3.580  12.660  0.00  0.00    +0.000 A 
ATOM     19  C   UNL     1       7.164   4.238  11.881  0.00  0.00    +0.000 A 
ATOM     20  C   UNL     1       7.990   5.259  12.579  0.00  0.00    +0.000 A 
ATOM     21  N   UNL     1       7.957   5.548  13.841  0.00  0.00    +0.000 NA
ATOM     22  C   UNL     1       7.055   4.844  14.596  0.00  0.00    +0.000 A 
ATOM     23  N   UNL     1       6.815   4.937  15.884  0.00  0.00    +0.000 NA
ENDBRANCH  14  15
ENDBRANCH   4  14
TORSDOF 4
ENDMDL
MODEL 3
REMARK VINA RESULT:      -7.7      1.731      7.367
REMARK  Name = 
REMARK  4 active torsions:
REMARK  status: ('A' for Active; 'I' for Inactive)
REMARK    1  A    between atoms: C_4  and  C_5
REMARK    2  A    between atoms: C_5  and  N_6
REMARK    3  A    between atoms: N_9  and  C_10
REMARK    4  A    between atoms: C_10  and  C_11
REMARK                            x       y       z     vdW  Elec       q    Type
REMARK                         _______ _______ _______ _____ _____    ______ ____
ROOT
ATOM      1  N   UNL     1       6.800   4.142  15.081  0.00  0.00    +0.000 NA
ATOM      2  C   UNL     1       7.733   5.074  15.747  0.00  0.00    +0.000 C 
ATOM      3  C   UNL     1       7.121   6.303  16.487  0.00  0.00    +0.000 C 
ATOM      4  N   UNL     1       5.833   6.143  17.204  0.00  0.00    +0.000 NA
ATOM      5  C   UNL     1       4.965   5.179  16.499  0.00  0.00    +0.000 C 
ATOM      6  C   UNL     1       5.677   3.892  16.012  0.00  0.00    +0.000 C 
ENDROOT
BRANCH   1   7
ATOM      7  C   UNL     1       6.268   4.654  13.801  0.00  0.00    +0.000 C 
BRANCH   7  11
ATOM      8  C   UNL     1       6.115   1.562  10.792  0.00  0.00    +0.000 A 
ATOM      9  C   UNL     1       7.348   2.105  11.148  0.00  0.00    +0.000 A 
ATOM     10  C   UNL     1       7.421   3.173  12.053  0.00  0.00    +0.000 A 
ATOM     11  C   UNL     1       6.253   3.711  12.609  0.00  0.00    +0.000 A 
ATOM     12  C   UNL     1       5.014   3.182  12.198  0.00  0.00    +0.000 A 
ATOM     13  C   UNL     1       4.946   2.115  11.304  0.00  0.00    +0.000 A 
ENDBRANCH   7  11
ENDBRANCH   1   7
BRANCH   4  14
ATOM     14  C   UNL     1       5.982   5.747  18.615  0.00  0.00    +0.000 C 
BRANCH  14  15
ATOM     15  C   UNL     1       4.731   5.152  19.197  0.00  0.00    +0.000 A 
ATOM     16  C   UNL     1       3.505   5.728  19.473  0.00  0.00    +0.000 A 
ATOM     17  N   UNL     1       2.704   4.703  19.914  0.00  0.00    +0.000 N 
ATOM     18  C   UNL     1       1.384   4.711  20.345  0.00  0.00    +0.000 A 
ATOM     19  C   UNL     1       0.800   3.553  20.680  0.00  0.00    +0.000 A 
ATOM     20  C   UNL     1       1.667   2.351  20.560  0.00  0.00    +0.000 A 
ATOM     21  N   UNL     1       2.907   2.327  20.187  0.00  0.00    +0.000 NA
ATOM     22  C   UNL     1       3.460   3.538  19.859  0.00  0.00    +0.000 A 
ATOM     23  N   UNL     1       4.682   3.797  19.452  0.00  0.00    +0.000 NA
ENDBRANCH  14  15
ENDBRANCH   4  14
TORSDOF 4
ENDMDL
MODEL 4
REMARK VINA RESULT:      -7.6      3.472      5.160
REMARK  Name = 
REMARK  4 active torsions:
REMARK  status: ('A' for Active; 'I' for Inactive)
REMARK    1  A    between atoms: C_4  and  C_5
REMARK    2  A    between atoms: C_5  and  N_6
REMARK    3  A    between atoms: N_9  and  C_10
REMARK    4  A    between atoms: C_10  and  C_11
REMARK                            x       y       z     vdW  Elec       q    Type
REMARK                         _______ _______ _______ _____ _____    ______ ____
ROOT
ATOM      1  N   UNL     1       4.619   3.933  16.962  0.00  0.00    +0.000 NA
ATOM      2  C   UNL     1       5.163   4.618  15.771  0.00  0.00    +0.000 C 
ATOM      3  C   UNL     1       5.421   6.152  15.874  0.00  0.00    +0.000 C 
ATOM      4  N   UNL     1       5.914   6.713  17.155  0.00  0.00    +0.000 NA
ATOM      5  C   UNL     1       5.354   5.965  18.298  0.00  0.00    +0.000 C 
ATOM      6  C   UNL     1       5.368   4.424  18.140  0.00  0.00    +0.000 C 
ENDROOT
BRANCH   1   7
ATOM      7  C   UNL     1       3.176   4.167  17.169  0.00  0.00    +0.000 C 
BRANCH   7  11
ATOM      8  C   UNL     1       1.043   3.071  20.759  0.00  0.00    +0.000 A 
ATOM      9  C   UNL     1       1.246   4.419  20.472  0.00  0.00    +0.000 A 
ATOM     10  C   UNL     1       2.013   4.804  19.365  0.00  0.00    +0.000 A 
ATOM     11  C   UNL     1       2.590   3.836  18.532  0.00  0.00    +0.000 A 
ATOM     12  C   UNL     1       2.417   2.479  18.868  0.00  0.00    +0.000 A 
ATOM     13  C   UNL     1       1.646   2.101  19.965  0.00  0.00    +0.000 A 
ENDBRANCH   7  11
ENDBRANCH   1   7
BRANCH   4  14
ATOM     14  C   UNL     1       7.383   6.763  17.258  0.00  0.00    +0.000 C 
BRANCH  14  15
ATOM     15  C   UNL     1       7.890   8.058  17.827  0.00  0.00    +0.000 A 
ATOM     16  C   UNL     1       8.715   8.303  18.909  0.00  0.00    +0.000 A 
ATOM     17  N   UNL     1       8.918   9.661  18.921  0.00  0.00    +0.000 N 
ATOM     18  C   UNL     1       9.647  10.457  19.795  0.00  0.00    +0.000 A 
ATOM     19  C   UNL     1       9.737  11.773  19.560  0.00  0.00    +0.000 A 
ATOM     20  C   UNL     1       9.008  12.249  18.354  0.00  0.00    +0.000 A 
ATOM     21  N   UNL     1       8.300  11.528  17.544  0.00  0.00    +0.000 NA
ATOM     22  C   UNL     1       8.237  10.188  17.830  0.00  0.00    +0.000 A 
ATOM     23  N   UNL     1       7.600   9.241  17.180  0.00  0.00    +0.000 NA
ENDBRANCH  14  15
ENDBRANCH   4  14
TORSDOF 4
ENDMDL
MODEL 5
REMARK VINA RESULT:      -7.6      3.320      8.224
REMARK  Name = 
REMARK  4 active torsions:
REMARK  status: ('A' for Active; 'I' for Inactive)
REMARK    1  A    between atoms: C_4  and  C_5
REMARK    2  A    between atoms: C_5  and  N_6
REMARK    3  A    between atoms: N_9  and  C_10
REMARK    4  A    between atoms: C_10  and  C_11
REMARK                            x       y       z     vdW  Elec       q    Type
REMARK                         _______ _______ _______ _____ _____    ______ ____
ROOT
ATOM      1  N   UNL     1       5.496   4.005  16.923  0.00  0.00    +0.000 NA
ATOM      2  C   UNL     1       5.585   3.993  18.398  0.00  0.00    +0.000 C 
ATOM      3  C   UNL     1       5.304   5.331  19.149  0.00  0.00    +0.000 C 
ATOM      4  N   UNL     1       4.258   6.243  18.626  0.00  0.00    +0.000 NA
ATOM      5  C   UNL     1       4.207   6.182  17.152  0.00  0.00    +0.000 C 
ATOM      6  C   UNL     1       4.274   4.754  16.554  0.00  0.00    +0.000 C 
ENDROOT
BRANCH   1   7
ATOM      7  C   UNL     1       6.665   4.624  16.267  0.00  0.00    +0.000 C 
BRANCH   7  11
ATOM      8  C   UNL     1       7.082   4.189  11.992  0.00  0.00    +0.000 A 
ATOM      9  C   UNL     1       7.802   5.186  12.648  0.00  0.00    +0.000 A 
ATOM     10  C   UNL     1       7.617   5.412  14.019  0.00  0.00    +0.000 A 
ATOM     11  C   UNL     1       6.703   4.639  14.747  0.00  0.00    +0.000 A 
ATOM     12  C   UNL     1       5.948   3.672  14.056  0.00  0.00    +0.000 A 
ATOM     13  C   UNL     1       6.140   3.445  12.695  0.00  0.00    +0.000 A 
ENDBRANCH   7  11
ENDBRANCH   1   7
BRANCH   4  14
ATOM     14  C   UNL     1       2.918   5.995  19.186  0.00  0.00    +0.000 C 
BRANCH  14  15
ATOM     15  C   UNL     1       2.215   7.253  19.612  0.00  0.00    +0.000 A 
ATOM     16  C   UNL     1       1.916   8.400  18.902  0.00  0.00    +0.000 A 
ATOM     17  N   UNL     1       1.191   9.190  19.762  0.00  0.00    +0.000 N 
ATOM     18  C   UNL     1       0.650  10.457  19.584  0.00  0.00    +0.000 A 
ATOM     19  C   UNL     1      -0.071  11.003  20.571  0.00  0.00    +0.000 A 
ATOM     20  C   UNL     1      -0.204  10.166  21.793  0.00  0.00    +0.000 A 
ATOM     21  N   UNL     1       0.317   8.996  21.989  0.00  0.00    +0.000 NA
ATOM     22  C   UNL     1       1.049   8.483  20.949  0.00  0.00    +0.000 A 
ATOM     23  N   UNL     1       1.677   7.330  20.880  0.00  0.00    +0.000 NA
ENDBRANCH  14  15
ENDBRANCH   4  14
TORSDOF 4
ENDMDL
MODEL 6
REMARK VINA RESULT:      -7.5      1.518      6.993
REMARK  Name = 
REMARK  4 active torsions:
REMARK  status: ('A' for Active; 'I' for Inactive)
REMARK    1  A    between atoms: C_4  and  C_5
REMARK    2  A    between atoms: C_5  and  N_6
REMARK    3  A    between atoms: N_9  and  C_10
REMARK    4  A    between atoms: C_10  and  C_11
REMARK                            x       y       z     vdW  Elec       q    Type
REMARK                         _______ _______ _______ _____ _____    ______ ____
ROOT
ATOM      1  N   UNL     1       5.555   4.679  14.790  0.00  0.00    +0.000 NA
ATOM      2  C   UNL     1       5.908   3.754  15.887  0.00  0.00    +0.000 C 
ATOM      3  C   UNL     1       6.967   4.237  16.925  0.00  0.00    +0.000 C 
ATOM      4  N   UNL     1       6.981   5.665  17.327  0.00  0.00    +0.000 NA
ATOM      5  C   UNL     1       6.593   6.525  16.193  0.00  0.00    +0.000 C 
ATOM      6  C   UNL     1       5.372   6.023  15.380  0.00  0.00    +0.000 C 
ENDROOT
BRANCH   1   7
ATOM      7  C   UNL     1       6.575   4.747  13.725  0.00  0.00    +0.000 C 
BRANCH   7  11
ATOM      8  C   UNL     1       6.160   1.557  10.846  0.00  0.00    +0.000 A 
ATOM      9  C   UNL     1       7.428   2.063  11.122  0.00  0.00    +0.000 A 
ATOM     10  C   UNL     1       7.585   3.159  11.981  0.00  0.00    +0.000 A 
ATOM     11  C   UNL     1       6.467   3.763  12.571  0.00  0.00    +0.000 A 
ATOM     12  C   UNL     1       5.190   3.269  12.239  0.00  0.00    +0.000 A 
ATOM     13  C   UNL     1       5.039   2.174  11.391  0.00  0.00    +0.000 A 
ENDBRANCH   7  11
ENDBRANCH   1   7
BRANCH   4  14
ATOM     14  C   UNL     1       6.138   5.963  18.497  0.00  0.00    +0.000 C 
BRANCH  14  15
ATOM     15  C   UNL     1       4.987   5.009  18.653  0.00  0.00    +0.000 A 
ATOM     16  C   UNL     1       4.895   3.815  19.344  0.00  0.00    +0.000 A 
ATOM     17  N   UNL     1       3.589   3.411  19.214  0.00  0.00    +0.000 N 
ATOM     18  C   UNL     1       2.944   2.277  19.691  0.00  0.00    +0.000 A 
ATOM     19  C   UNL     1       1.630   2.133  19.473  0.00  0.00    +0.000 A 
ATOM     20  C   UNL     1       0.993   3.238  18.708  0.00  0.00    +0.000 A 
ATOM     21  N   UNL     1       1.583   4.289  18.231  0.00  0.00    +0.000 NA
ATOM     22  C   UNL     1       2.928   4.387  18.478  0.00  0.00    +0.000 A 
ATOM     23  N   UNL     1       3.760   5.338  18.117  0.00  0.00    +0.000 NA
ENDBRANCH  14  15
ENDBRANCH   4  14
TORSDOF 4
ENDMDL
MODEL 7
REMARK VINA RESULT:      -7.5      3.370      8.068
REMARK  Name = 
REMARK  4 active torsions:
REMARK  status: ('A' for Active; 'I' for Inactive)
REMARK    1  A    between atoms: C_4  and  C_5
REMARK    2  A    between atoms: C_5  and  N_6
REMARK    3  A    between atoms: N_9  and  C_10
REMARK    4  A    between atoms: C_10  and  C_11
REMARK                            x       y       z     vdW  Elec       q    Type
REMARK                         _______ _______ _______ _____ _____    ______ ____
ROOT
ATOM      1  N   UNL     1       5.605   4.505  16.973  0.00  0.00    +0.000 NA
ATOM      2  C   UNL     1       5.468   5.975  16.929  0.00  0.00    +0.000 C 
ATOM      3  C   UNL     1       4.038   6.573  17.102  0.00  0.00    +0.000 C 
ATOM      4  N   UNL     1       3.095   5.920  18.042  0.00  0.00    +0.000 NA
ATOM      5  C   UNL     1       3.307   4.459  18.056  0.00  0.00    +0.000 C 
ATOM      6  C   UNL     1       4.791   4.015  18.107  0.00  0.00    +0.000 C 
ENDROOT
BRANCH   1   7
ATOM      7  C   UNL     1       5.168   3.834  15.732  0.00  0.00    +0.000 C 
BRANCH   7  11
ATOM      8  C   UNL     1       7.403   4.398  12.082  0.00  0.00    +0.000 A 
ATOM      9  C   UNL     1       7.777   5.103  13.224  0.00  0.00    +0.000 A 
ATOM     10  C   UNL     1       7.015   5.012  14.398  0.00  0.00    +0.000 A 
ATOM     11  C   UNL     1       5.866   4.212  14.436  0.00  0.00    +0.000 A 
ATOM     12  C   UNL     1       5.476   3.548  13.255  0.00  0.00    +0.000 A 
ATOM     13  C   UNL     1       6.240   3.635  12.094  0.00  0.00    +0.000 A 
ENDBRANCH   7  11
ENDBRANCH   1   7
BRANCH   4  14
ATOM     14  C   UNL     1       3.158   6.451  19.415  0.00  0.00    +0.000 C 
BRANCH  14  15
ATOM     15  C   UNL     1       2.181   7.565  19.662  0.00  0.00    +0.000 A 
ATOM     16  C   UNL     1       1.486   7.916  20.803  0.00  0.00    +0.000 A 
ATOM     17  N   UNL     1       0.803   9.065  20.484  0.00  0.00    +0.000 N 
ATOM     18  C   UNL     1      -0.064   9.839  21.244  0.00  0.00    +0.000 A 
ATOM     19  C   UNL     1      -0.570  10.961  20.715  0.00  0.00    +0.000 A 
ATOM     20  C   UNL     1      -0.140  11.251  19.321  0.00  0.00    +0.000 A 
ATOM     21  N   UNL     1       0.644  10.527  18.587  0.00  0.00    +0.000 NA
ATOM     22  C   UNL     1       1.132   9.387  19.173  0.00  0.00    +0.000 A 
ATOM     23  N   UNL     1       1.939   8.485  18.663  0.00  0.00    +0.000 NA
ENDBRANCH  14  15
ENDBRANCH   4  14
TORSDOF 4
ENDMDL
MODEL 8
REMARK VINA RESULT:      -7.5      4.009      5.796
REMARK  Name = 
REMARK  4 active torsions:
REMARK  status: ('A' for Active; 'I' for Inactive)
REMARK    1  A    between atoms: C_4  and  C_5
REMARK    2  A    between atoms: C_5  and  N_6
REMARK    3  A    between atoms: N_9  and  C_10
REMARK    4  A    between atoms: C_10  and  C_11
REMARK                            x       y       z     vdW  Elec       q    Type
REMARK                         _______ _______ _______ _____ _____    ______ ____
ROOT
ATOM      1  N   UNL     1       5.710   4.360  17.698  0.00  0.00    +0.000 NA
ATOM      2  C   UNL     1       6.938   4.541  16.897  0.00  0.00    +0.000 C 
ATOM      3  C   UNL     1       7.279   5.985  16.415  0.00  0.00    +0.000 C 
ATOM      4  N   UNL     1       6.981   7.130  17.308  0.00  0.00    +0.000 NA
ATOM      5  C   UNL     1       5.760   6.869  18.095  0.00  0.00    +0.000 C 
ATOM      6  C   UNL     1       5.667   5.446  18.702  0.00  0.00    +0.000 C 
ENDROOT
BRANCH   1   7
ATOM      7  C   UNL     1       4.471   4.389  16.894  0.00  0.00    +0.000 C 
BRANCH   7  11
ATOM      8  C   UNL     1       1.094   3.054  19.228  0.00  0.00    +0.000 A 
ATOM      9  C   UNL     1       1.868   2.113  18.550  0.00  0.00    +0.000 A 
ATOM     10  C   UNL     1       2.912   2.523  17.711  0.00  0.00    +0.000 A 
ATOM     11  C   UNL     1       3.191   3.885  17.540  0.00  0.00    +0.000 A 
ATOM     12  C   UNL     1       2.365   4.821  18.194  0.00  0.00    +0.000 A 
ATOM     13  C   UNL     1       1.333   4.410  19.033  0.00  0.00    +0.000 A 
ENDBRANCH   7  11
ENDBRANCH   1   7
BRANCH   4  14
ATOM     14  C   UNL     1       8.092   7.491  18.206  0.00  0.00    +0.000 C 
BRANCH  14  15
ATOM     15  C   UNL     1       8.393   8.963  18.210  0.00  0.00    +0.000 A 
ATOM     16  C   UNL     1       7.894   9.985  17.426  0.00  0.00    +0.000 A 
ATOM     17  N   UNL     1       8.454  11.139  17.919  0.00  0.00    +0.000 N 
ATOM     18  C   UNL     1       8.318  12.457  17.503  0.00  0.00    +0.000 A 
ATOM     19  C   UNL     1       8.937  13.425  18.192  0.00  0.00    +0.000 A 
ATOM     20  C   UNL     1       9.736  12.959  19.357  0.00  0.00    +0.000 A 
ATOM     21  N   UNL     1       9.897  11.733  19.743  0.00  0.00    +0.000 NA
ATOM     22  C   UNL     1       9.247  10.780  19.002  0.00  0.00    +0.000 A 
ATOM     23  N   UNL     1       9.237   9.477  19.173  0.00  0.00    +0.000 NA
ENDBRANCH  14  15
ENDBRANCH   4  14
TORSDOF 4
ENDMDL
MODEL 9
REMARK VINA RESULT:      -7.5      4.076      5.826
REMARK  Name = 
REMARK  4 active torsions:
REMARK  status: ('A' for Active; 'I' for Inactive)
REMARK    1  A    between atoms: C_4  and  C_5
REMARK    2  A    between atoms: C_5  and  N_6
REMARK    3  A    between atoms: N_9  and  C_10
REMARK    4  A    between atoms: C_10  and  C_11
REMARK                            x       y       z     vdW  Elec       q    Type
REMARK                         _______ _______ _______ _____ _____    ______ ____
ROOT
ATOM      1  N   UNL     1       5.605   4.547  16.902  0.00  0.00    +0.000 NA
ATOM      2  C   UNL     1       4.978   5.880  16.799  0.00  0.00    +0.000 C 
ATOM      3  C   UNL     1       5.457   6.983  17.793  0.00  0.00    +0.000 C 
ATOM      4  N   UNL     1       6.889   7.031  18.178  0.00  0.00    +0.000 NA
ATOM      5  C   UNL     1       7.455   5.669  18.233  0.00  0.00    +0.000 C 
ATOM      6  C   UNL     1       7.064   4.749  17.049  0.00  0.00    +0.000 C 
ENDROOT
BRANCH   1   7
ATOM      7  C   UNL     1       5.106   3.746  18.039  0.00  0.00    +0.000 C 
BRANCH   7  11
ATOM      8  C   UNL     1       1.090   3.871  19.618  0.00  0.00    +0.000 A 
ATOM      9  C   UNL     1       1.305   3.346  18.345  0.00  0.00    +0.000 A 
ATOM     10  C   UNL     1       2.582   3.377  17.769  0.00  0.00    +0.000 A 
ATOM     11  C   UNL     1       3.660   3.940  18.465  0.00  0.00    +0.000 A 
ATOM     12  C   UNL     1       3.411   4.511  19.728  0.00  0.00    +0.000 A 
ATOM     13  C   UNL     1       2.142   4.471  20.301  0.00  0.00    +0.000 A 
ENDBRANCH   7  11
ENDBRANCH   1   7
BRANCH   4  14
ATOM     14  C   UNL     1       7.712   7.884  17.303  0.00  0.00    +0.000 C 
BRANCH  14  15
ATOM     15  C   UNL     1       8.272   9.086  18.009  0.00  0.00    +0.000 A 
ATOM     16  C   UNL     1       8.970   9.187  19.198  0.00  0.00    +0.000 A 
ATOM     17  N   UNL     1       9.309  10.513  19.318  0.00  0.00    +0.000 N 
ATOM     18  C   UNL     1       9.996  11.181  20.323  0.00  0.00    +0.000 A 
ATOM     19  C   UNL     1      10.251  12.488  20.182  0.00  0.00    +0.000 A 
ATOM     20  C   UNL     1       9.738  13.098  18.926  0.00  0.00    +0.000 A 
ATOM     21  N   UNL     1       9.071  12.499  17.992  0.00  0.00    +0.000 NA
ATOM     22  C   UNL     1       8.833  11.163  18.186  0.00  0.00    +0.000 A 
ATOM     23  N   UNL     1       8.191  10.323  17.405  0.00  0.00    +0.000 NA
ENDBRANCH  14  15
ENDBRANCH   4  14
TORSDOF 4
ENDMDL
