MODEL 1
REMARK VINA RESULT:      -8.3      0.000      0.000
REMARK  Name = 
REMARK  8 active torsions:
REMARK  status: ('A' for Active; 'I' for Inactive)
REMARK    1  A    between atoms: C_1  and  O_2
REMARK    2  A    between atoms: O_2  and  C_3
REMARK    3  A    between atoms: C_7  and  C_8
REMARK    4  A    between atoms: C_11  and  N_12
REMARK    5  A    between atoms: C_14  and  C_15
REMARK    6  A    between atoms: C_19  and  C_20
REMARK    7  A    between atoms: C_28  and  O_29
REMARK    8  A    between atoms: O_29  and  C_30
REMARK                            x       y       z     vdW  Elec       q    Type
REMARK                         _______ _______ _______ _____ _____    ______ ____
ROOT
ATOM      1  C   UNL     1      -0.952  11.649  21.701  0.00  0.00    +0.000 A 
ATOM      2  C   UNL     1      -0.963  11.848  20.318  0.00  0.00    +0.000 A 
ATOM      3  C   UNL     1      -0.197  11.051  19.456  0.00  0.00    +0.000 A 
ATOM      4  C   UNL     1       0.571   9.999  19.982  0.00  0.00    +0.000 A 
ATOM      5  C   UNL     1       0.537   9.737  21.351  0.00  0.00    +0.000 A 
ATOM      6  C   UNL     1      -0.201  10.559  22.199  0.00  0.00    +0.000 A 
ENDROOT
BRANCH   1  11
ATOM      7  C   UNL     1      -1.759  14.465  24.187  0.00  0.00    +0.000 A 
ATOM      8  C   UNL     1      -3.008  14.018  24.642  0.00  0.00    +0.000 A 
ATOM      9  C   UNL     1      -3.603  12.890  24.087  0.00  0.00    +0.000 A 
ATOM     10  C   UNL     1      -2.950  12.175  23.091  0.00  0.00    +0.000 A 
ATOM     11  C   UNL     1      -1.668  12.547  22.640  0.00  0.00    +0.000 A 
ATOM     12  C   UNL     1      -1.091  13.729  23.183  0.00  0.00    +0.000 A 
BRANCH   7  14
ATOM     13  C   UNL     1      -1.165  15.685  26.169  0.00  0.00    +0.000 C 
ATOM     14  O   UNL     1      -1.081  15.515  24.756  0.00  0.00    +0.000 OA
ENDBRANCH   7  14
BRANCH  12  15
ATOM     15  O   UNL     1       0.213  14.030  22.842  0.00  0.00    +0.000 OA
ATOM     16  C   UNL     1       0.340  15.033  21.830  0.00  0.00    +0.000 C 
ENDBRANCH  12  15
ENDBRANCH   1  11
BRANCH   4  17
ATOM     17  N   UNL     1       1.386   9.210  19.136  0.00  0.00    +0.000 N 
ATOM     18  C   UNL     1       1.912   7.974  19.391  0.00  0.00    +0.000 A 
ATOM     19  C   UNL     1       2.581   7.646  18.236  0.00  0.00    +0.000 A 
ATOM     20  N   UNL     1       2.484   8.664  17.340  0.00  0.00    +0.000 NA
ATOM     21  N   UNL     1       1.722   9.608  17.882  0.00  0.00    +0.000 NA
BRANCH  19  22
ATOM     22  C   UNL     1       3.294   6.397  18.034  0.00  0.00    +0.000 A 
ATOM     23  C   UNL     1       2.765   5.193  18.515  0.00  0.00    +0.000 A 
ATOM     24  C   UNL     1       3.440   3.998  18.281  0.00  0.00    +0.000 A 
ATOM     25  C   UNL     1       4.649   3.992  17.581  0.00  0.00    +0.000 A 
ATOM     26  C   UNL     1       5.207   5.193  17.098  0.00  0.00    +0.000 A 
ATOM     27  C   UNL     1       4.511   6.383  17.341  0.00  0.00    +0.000 A 
BRANCH  26  28
ATOM     28  C   UNL     1       6.525   5.216  16.335  0.00  0.00    +0.000 C 
ATOM     29  O   UNL     1       6.521   5.806  15.210  0.00  0.00    +0.000 OA
ATOM     30  O   UNL     1       7.513   4.638  16.880  0.00  0.00    +0.000 OA
ENDBRANCH  26  28
ENDBRANCH  19  22
ENDBRANCH   4  17
TORSDOF 6
ENDMDL
MODEL 2
REMARK VINA RESULT:      -8.2      2.381     10.889
REMARK  Name = 
REMARK  8 active torsions:
REMARK  status: ('A' for Active; 'I' for Inactive)
REMARK    1  A    between atoms: C_1  and  O_2
REMARK    2  A    between atoms: O_2  and  C_3
REMARK    3  A    between atoms: C_7  and  C_8
REMARK    4  A    between atoms: C_11  and  N_12
REMARK    5  A    between atoms: C_14  and  C_15
REMARK    6  A    between atoms: C_19  and  C_20
REMARK    7  A    between atoms: C_28  and  O_29
REMARK    8  A    between atoms: O_29  and  C_30
REMARK                            x       y       z     vdW  Elec       q    Type
REMARK                         _______ _______ _______ _____ _____    ______ ____
ROOT
ATOM      1  C   UNL     1       2.545   7.319  18.529  0.00  0.00    +0.000 A 
ATOM      2  C   UNL     1       2.120   8.331  17.664  0.00  0.00    +0.000 A 
ATOM      3  C   UNL     1       1.277   9.363  18.100  0.00  0.00    +0.000 A 
ATOM      4  C   UNL     1       0.877   9.412  19.446  0.00  0.00    +0.000 A 
ATOM      5  C   UNL     1       1.350   8.453  20.341  0.00  0.00    +0.000 A 
ATOM      6  C   UNL     1       2.159   7.414  19.886  0.00  0.00    +0.000 A 
ENDROOT
BRANCH   1  11
ATOM      7  C   UNL     1       3.644   3.758  17.594  0.00  0.00    +0.000 A 
ATOM      8  C   UNL     1       5.024   3.972  17.465  0.00  0.00    +0.000 A 
ATOM      9  C   UNL     1       5.559   5.250  17.586  0.00  0.00    +0.000 A 
ATOM     10  C   UNL     1       4.731   6.329  17.866  0.00  0.00    +0.000 A 
ATOM     11  C   UNL     1       3.346   6.160  18.065  0.00  0.00    +0.000 A 
ATOM     12  C   UNL     1       2.805   4.856  17.892  0.00  0.00    +0.000 A 
BRANCH   7  14
ATOM     13  C   UNL     1       3.605   1.509  18.436  0.00  0.00    +0.000 C 
ATOM     14  O   UNL     1       3.069   2.512  17.576  0.00  0.00    +0.000 OA
ENDBRANCH   7  14
BRANCH  12  15
ATOM     15  O   UNL     1       1.476   4.658  18.208  0.00  0.00    +0.000 OA
ATOM     16  C   UNL     1       1.258   4.073  19.494  0.00  0.00    +0.000 C 
ENDBRANCH  12  15
ENDBRANCH   1  11
BRANCH   4  17
ATOM     17  N   UNL     1      -0.009  10.418  19.898  0.00  0.00    +0.000 N 
ATOM     18  C   UNL     1      -0.202  10.853  21.179  0.00  0.00    +0.000 A 
ATOM     19  C   UNL     1      -1.129  11.860  21.059  0.00  0.00    +0.000 A 
ATOM     20  N   UNL     1      -1.499  11.995  19.758  0.00  0.00    +0.000 NA
ATOM     21  N   UNL     1      -0.785  11.133  19.043  0.00  0.00    +0.000 NA
BRANCH  19  22
ATOM     22  C   UNL     1      -1.638  12.637  22.176  0.00  0.00    +0.000 A 
ATOM     23  C   UNL     1      -0.820  13.576  22.816  0.00  0.00    +0.000 A 
ATOM     24  C   UNL     1      -1.332  14.343  23.860  0.00  0.00    +0.000 A 
ATOM     25  C   UNL     1      -2.652  14.172  24.283  0.00  0.00    +0.000 A 
ATOM     26  C   UNL     1      -3.490  13.224  23.661  0.00  0.00    +0.000 A 
ATOM     27  C   UNL     1      -2.958  12.467  22.612  0.00  0.00    +0.000 A 
BRANCH  26  28
ATOM     28  C   UNL     1      -4.932  13.015  24.105  0.00  0.00    +0.000 C 
ATOM     29  O   UNL     1      -5.196  11.913  24.682  0.00  0.00    +0.000 OA
ATOM     30  O   UNL     1      -5.751  13.950  23.856  0.00  0.00    +0.000 OA
ENDBRANCH  26  28
ENDBRANCH  19  22
ENDBRANCH   4  17
TORSDOF 6
ENDMDL
MODEL 3
REMARK VINA RESULT:      -8.2      2.431     10.830
REMARK  Name = 
REMARK  8 active torsions:
REMARK  status: ('A' for Active; 'I' for Inactive)
REMARK    1  A    between atoms: C_1  and  O_2
REMARK    2  A    between atoms: O_2  and  C_3
REMARK    3  A    between atoms: C_7  and  C_8
REMARK    4  A    between atoms: C_11  and  N_12
REMARK    5  A    between atoms: C_14  and  C_15
REMARK    6  A    between atoms: C_19  and  C_20
REMARK    7  A    between atoms: C_28  and  O_29
REMARK    8  A    between atoms: O_29  and  C_30
REMARK                            x       y       z     vdW  Elec       q    Type
REMARK                         _______ _______ _______ _____ _____    ______ ____
ROOT
ATOM      1  C   UNL     1       2.436   7.270  18.535  0.00  0.00    +0.000 A 
ATOM      2  C   UNL     1       2.123   7.386  19.892  0.00  0.00    +0.000 A 
ATOM      3  C   UNL     1       1.499   8.532  20.405  0.00  0.00    +0.000 A 
ATOM      4  C   UNL     1       1.139   9.575  19.537  0.00  0.00    +0.000 A 
ATOM      5  C   UNL     1       1.377   9.447  18.169  0.00  0.00    +0.000 A 
ATOM      6  C   UNL     1       2.029   8.319  17.678  0.00  0.00    +0.000 A 
ENDROOT
BRANCH   1  11
ATOM      7  C   UNL     1       3.466   3.717  17.499  0.00  0.00    +0.000 A 
ATOM      8  C   UNL     1       4.820   3.946  17.211  0.00  0.00    +0.000 A 
ATOM      9  C   UNL     1       5.349   5.231  17.264  0.00  0.00    +0.000 A 
ATOM     10  C   UNL     1       4.545   6.302  17.632  0.00  0.00    +0.000 A 
ATOM     11  C   UNL     1       3.194   6.118  17.988  0.00  0.00    +0.000 A 
ATOM     12  C   UNL     1       2.653   4.807  17.884  0.00  0.00    +0.000 A 
BRANCH   7  14
ATOM     13  C   UNL     1       3.569   1.464  18.324  0.00  0.00    +0.000 C 
ATOM     14  O   UNL     1       2.909   2.464  17.552  0.00  0.00    +0.000 OA
ENDBRANCH   7  14
BRANCH  12  15
ATOM     15  O   UNL     1       1.371   4.595  18.351  0.00  0.00    +0.000 OA
ATOM     16  C   UNL     1       1.308   4.018  19.658  0.00  0.00    +0.000 C 
ENDBRANCH  12  15
ENDBRANCH   1  11
BRANCH   4  17
ATOM     17  N   UNL     1       0.549  10.759  20.040  0.00  0.00    +0.000 N 
ATOM     18  C   UNL     1      -0.192  10.910  21.179  0.00  0.00    +0.000 A 
ATOM     19  C   UNL     1      -0.482  12.253  21.219  0.00  0.00    +0.000 A 
ATOM     20  N   UNL     1       0.037  12.870  20.125  0.00  0.00    +0.000 NA
ATOM     21  N   UNL     1       0.698  11.958  19.421  0.00  0.00    +0.000 NA
BRANCH  19  22
ATOM     22  C   UNL     1      -1.250  12.890  22.274  0.00  0.00    +0.000 A 
ATOM     23  C   UNL     1      -0.737  14.004  22.949  0.00  0.00    +0.000 A 
ATOM     24  C   UNL     1      -1.500  14.630  23.932  0.00  0.00    +0.000 A 
ATOM     25  C   UNL     1      -2.768  14.146  24.260  0.00  0.00    +0.000 A 
ATOM     26  C   UNL     1      -3.300  13.018  23.602  0.00  0.00    +0.000 A 
ATOM     27  C   UNL     1      -2.520  12.406  22.615  0.00  0.00    +0.000 A 
BRANCH  26  28
ATOM     28  C   UNL     1      -4.679  12.468  23.942  0.00  0.00    +0.000 C 
ATOM     29  O   UNL     1      -5.561  12.539  23.029  0.00  0.00    +0.000 OA
ATOM     30  O   UNL     1      -4.836  11.992  25.106  0.00  0.00    +0.000 OA
ENDBRANCH  26  28
ENDBRANCH  19  22
ENDBRANCH   4  17
TORSDOF 6
ENDMDL
MODEL 4
REMARK VINA RESULT:      -8.2      0.521      1.166
REMARK  Name = 
REMARK  8 active torsions:
REMARK  status: ('A' for Active; 'I' for Inactive)
REMARK    1  A    between atoms: C_1  and  O_2
REMARK    2  A    between atoms: O_2  and  C_3
REMARK    3  A    between atoms: C_7  and  C_8
REMARK    4  A    between atoms: C_11  and  N_12
REMARK    5  A    between atoms: C_14  and  C_15
REMARK    6  A    between atoms: C_19  and  C_20
REMARK    7  A    between atoms: C_28  and  O_29
REMARK    8  A    between atoms: O_29  and  C_30
REMARK                            x       y       z     vdW  Elec       q    Type
REMARK                         _______ _______ _______ _____ _____    ______ ____
ROOT
ATOM      1  C   UNL     1      -0.873  11.825  21.978  0.00  0.00    +0.000 A 
ATOM      2  C   UNL     1      -0.250  10.656  22.424  0.00  0.00    +0.000 A 
ATOM      3  C   UNL     1       0.488   9.840  21.554  0.00  0.00    +0.000 A 
ATOM      4  C   UNL     1       0.645  10.220  20.211  0.00  0.00    +0.000 A 
ATOM      5  C   UNL     1       0.093  11.420  19.765  0.00  0.00    +0.000 A 
ATOM      6  C   UNL     1      -0.666  12.202  20.631  0.00  0.00    +0.000 A 
ENDROOT
BRANCH   1  11
ATOM      7  C   UNL     1      -2.176  14.579  24.319  0.00  0.00    +0.000 A 
ATOM      8  C   UNL     1      -3.369  13.974  24.741  0.00  0.00    +0.000 A 
ATOM      9  C   UNL     1      -3.775  12.756  24.207  0.00  0.00    +0.000 A 
ATOM     10  C   UNL     1      -2.984  12.109  23.266  0.00  0.00    +0.000 A 
ATOM     11  C   UNL     1      -1.748  12.644  22.852  0.00  0.00    +0.000 A 
ATOM     12  C   UNL     1      -1.367  13.912  23.371  0.00  0.00    +0.000 A 
BRANCH   7  14
ATOM     13  C   UNL     1      -1.197  15.683  26.214  0.00  0.00    +0.000 C 
ATOM     14  O   UNL     1      -1.678  15.732  24.873  0.00  0.00    +0.000 OA
ENDBRANCH   7  14
BRANCH  12  15
ATOM     15  O   UNL     1      -0.104  14.383  23.071  0.00  0.00    +0.000 OA
ATOM     16  C   UNL     1      -0.084  15.438  22.105  0.00  0.00    +0.000 C 
ENDBRANCH  12  15
ENDBRANCH   1  11
BRANCH   4  17
ATOM     17  N   UNL     1       1.348   9.391  19.306  0.00  0.00    +0.000 N 
ATOM     18  C   UNL     1       1.850   8.139  19.530  0.00  0.00    +0.000 A 
ATOM     19  C   UNL     1       2.395   7.772  18.322  0.00  0.00    +0.000 A 
ATOM     20  N   UNL     1       2.253   8.782  17.425  0.00  0.00    +0.000 NA
ATOM     21  N   UNL     1       1.580   9.761  18.020  0.00  0.00    +0.000 NA
BRANCH  19  22
ATOM     22  C   UNL     1       3.040   6.495  18.074  0.00  0.00    +0.000 A 
ATOM     23  C   UNL     1       2.292   5.310  18.079  0.00  0.00    +0.000 A 
ATOM     24  C   UNL     1       2.916   4.097  17.800  0.00  0.00    +0.000 A 
ATOM     25  C   UNL     1       4.285   4.049  17.530  0.00  0.00    +0.000 A 
ATOM     26  C   UNL     1       5.060   5.226  17.532  0.00  0.00    +0.000 A 
ATOM     27  C   UNL     1       4.414   6.436  17.810  0.00  0.00    +0.000 A 
BRANCH  26  28
ATOM     28  C   UNL     1       6.556   5.203  17.244  0.00  0.00    +0.000 C 
ATOM     29  O   UNL     1       7.276   4.513  18.033  0.00  0.00    +0.000 OA
ATOM     30  O   UNL     1       6.960   5.877  16.250  0.00  0.00    +0.000 OA
ENDBRANCH  26  28
ENDBRANCH  19  22
ENDBRANCH   4  17
TORSDOF 6
ENDMDL
MODEL 5
REMARK VINA RESULT:      -8.0      2.053     10.733
REMARK  Name = 
REMARK  8 active torsions:
REMARK  status: ('A' for Active; 'I' for Inactive)
REMARK    1  A    between atoms: C_1  and  O_2
REMARK    2  A    between atoms: O_2  and  C_3
REMARK    3  A    between atoms: C_7  and  C_8
REMARK    4  A    between atoms: C_11  and  N_12
REMARK    5  A    between atoms: C_14  and  C_15
REMARK    6  A    between atoms: C_19  and  C_20
REMARK    7  A    between atoms: C_28  and  O_29
REMARK    8  A    between atoms: O_29  and  C_30
REMARK                            x       y       z     vdW  Elec       q    Type
REMARK                         _______ _______ _______ _____ _____    ______ ____
ROOT
ATOM      1  C   UNL     1       2.329   7.022  18.691  0.00  0.00    +0.000 A 
ATOM      2  C   UNL     1       2.139   8.099  17.823  0.00  0.00    +0.000 A 
ATOM      3  C   UNL     1       1.592   9.312  18.267  0.00  0.00    +0.000 A 
ATOM      4  C   UNL     1       1.263   9.470  19.623  0.00  0.00    +0.000 A 
ATOM      5  C   UNL     1       1.514   8.432  20.519  0.00  0.00    +0.000 A 
ATOM      6  C   UNL     1       2.025   7.221  20.058  0.00  0.00    +0.000 A 
ENDROOT
BRANCH   1  11
ATOM      7  C   UNL     1       4.531   4.187  17.321  0.00  0.00    +0.000 A 
ATOM      8  C   UNL     1       3.538   3.232  17.060  0.00  0.00    +0.000 A 
ATOM      9  C   UNL     1       2.213   3.472  17.407  0.00  0.00    +0.000 A 
ATOM     10  C   UNL     1       1.854   4.679  17.993  0.00  0.00    +0.000 A 
ATOM     11  C   UNL     1       2.803   5.696  18.223  0.00  0.00    +0.000 A 
ATOM     12  C   UNL     1       4.161   5.419  17.906  0.00  0.00    +0.000 A 
BRANCH   7  14
ATOM     13  C   UNL     1       6.095   3.777  15.545  0.00  0.00    +0.000 C 
ATOM     14  O   UNL     1       5.837   4.046  16.920  0.00  0.00    +0.000 OA
ENDBRANCH   7  14
BRANCH  12  15
ATOM     15  O   UNL     1       5.074   6.450  18.008  0.00  0.00    +0.000 OA
ATOM     16  C   UNL     1       5.403   7.070  16.762  0.00  0.00    +0.000 C 
ENDBRANCH  12  15
ENDBRANCH   1  11
BRANCH   4  17
ATOM     17  N   UNL     1       0.669  10.668  20.085  0.00  0.00    +0.000 N 
ATOM     18  C   UNL     1      -0.081  10.853  21.212  0.00  0.00    +0.000 A 
ATOM     19  C   UNL     1      -0.371  12.197  21.210  0.00  0.00    +0.000 A 
ATOM     20  N   UNL     1       0.160  12.782  20.103  0.00  0.00    +0.000 NA
ATOM     21  N   UNL     1       0.826  11.849  19.433  0.00  0.00    +0.000 NA
BRANCH  19  22
ATOM     22  C   UNL     1      -1.147  12.865  22.239  0.00  0.00    +0.000 A 
ATOM     23  C   UNL     1      -0.640  14.001  22.884  0.00  0.00    +0.000 A 
ATOM     24  C   UNL     1      -1.412  14.656  23.841  0.00  0.00    +0.000 A 
ATOM     25  C   UNL     1      -2.681  14.180  24.173  0.00  0.00    +0.000 A 
ATOM     26  C   UNL     1      -3.207  13.032  23.547  0.00  0.00    +0.000 A 
ATOM     27  C   UNL     1      -2.418  12.391  22.586  0.00  0.00    +0.000 A 
BRANCH  26  28
ATOM     28  C   UNL     1      -4.588  12.490  23.894  0.00  0.00    +0.000 C 
ATOM     29  O   UNL     1      -5.487  12.610  23.002  0.00  0.00    +0.000 OA
ATOM     30  O   UNL     1      -4.730  11.973  25.042  0.00  0.00    +0.000 OA
ENDBRANCH  26  28
ENDBRANCH  19  22
ENDBRANCH   4  17
TORSDOF 6
ENDMDL
MODEL 6
REMARK VINA RESULT:      -8.0      1.745      2.200
REMARK  Name = 
REMARK  8 active torsions:
REMARK  status: ('A' for Active; 'I' for Inactive)
REMARK    1  A    between atoms: C_1  and  O_2
REMARK    2  A    between atoms: O_2  and  C_3
REMARK    3  A    between atoms: C_7  and  C_8
REMARK    4  A    between atoms: C_11  and  N_12
REMARK    5  A    between atoms: C_14  and  C_15
REMARK    6  A    between atoms: C_19  and  C_20
REMARK    7  A    between atoms: C_28  and  O_29
REMARK    8  A    between atoms: O_29  and  C_30
REMARK                            x       y       z     vdW  Elec       q    Type
REMARK                         _______ _______ _______ _____ _____    ______ ____
ROOT
ATOM      1  C   UNL     1      -1.270  11.882  21.934  0.00  0.00    +0.000 A 
ATOM      2  C   UNL     1      -1.355  12.078  20.553  0.00  0.00    +0.000 A 
ATOM      3  C   UNL     1      -0.580  11.328  19.656  0.00  0.00    +0.000 A 
ATOM      4  C   UNL     1       0.273  10.326  20.146  0.00  0.00    +0.000 A 
ATOM      5  C   UNL     1       0.317  10.065  21.515  0.00  0.00    +0.000 A 
ATOM      6  C   UNL     1      -0.432  10.842  22.396  0.00  0.00    +0.000 A 
ENDROOT
BRANCH   1  11
ATOM      7  C   UNL     1      -2.126  14.625  24.485  0.00  0.00    +0.000 A 
ATOM      8  C   UNL     1      -3.344  14.121  24.962  0.00  0.00    +0.000 A 
ATOM      9  C   UNL     1      -3.908  12.979  24.403  0.00  0.00    +0.000 A 
ATOM     10  C   UNL     1      -3.252  12.307  23.380  0.00  0.00    +0.000 A 
ATOM     11  C   UNL     1      -1.997  12.737  22.905  0.00  0.00    +0.000 A 
ATOM     12  C   UNL     1      -1.454  13.932  23.452  0.00  0.00    +0.000 A 
BRANCH   7  14
ATOM     13  C   UNL     1      -2.060  16.985  24.924  0.00  0.00    +0.000 C 
ATOM     14  O   UNL     1      -1.476  15.691  25.055  0.00  0.00    +0.000 OA
ENDBRANCH   7  14
BRANCH  12  15
ATOM     15  O   UNL     1      -0.172  14.290  23.085  0.00  0.00    +0.000 OA
ATOM     16  C   UNL     1      -0.110  15.281  22.057  0.00  0.00    +0.000 C 
ENDBRANCH  12  15
ENDBRANCH   1  11
BRANCH   4  17
ATOM     17  N   UNL     1       1.097   9.587  19.264  0.00  0.00    +0.000 N 
ATOM     18  C   UNL     1       1.559   8.310  19.418  0.00  0.00    +0.000 A 
ATOM     19  C   UNL     1       2.271   8.066  18.268  0.00  0.00    +0.000 A 
ATOM     20  N   UNL     1       2.261   9.170  17.475  0.00  0.00    +0.000 NA
ATOM     21  N   UNL     1       1.512  10.090  18.073  0.00  0.00    +0.000 NA
BRANCH  19  22
ATOM     22  C   UNL     1       2.942   6.812  17.976  0.00  0.00    +0.000 A 
ATOM     23  C   UNL     1       4.242   6.810  17.454  0.00  0.00    +0.000 A 
ATOM     24  C   UNL     1       4.890   5.600  17.214  0.00  0.00    +0.000 A 
ATOM     25  C   UNL     1       4.247   4.389  17.477  0.00  0.00    +0.000 A 
ATOM     26  C   UNL     1       2.935   4.366  17.991  0.00  0.00    +0.000 A 
ATOM     27  C   UNL     1       2.303   5.592  18.228  0.00  0.00    +0.000 A 
BRANCH  26  28
ATOM     28  C   UNL     1       2.209   3.059  18.283  0.00  0.00    +0.000 C 
ATOM     29  O   UNL     1       1.686   2.944  19.436  0.00  0.00    +0.000 OA
ATOM     30  O   UNL     1       2.194   2.191  17.359  0.00  0.00    +0.000 OA
ENDBRANCH  26  28
ENDBRANCH  19  22
ENDBRANCH   4  17
TORSDOF 6
ENDMDL
MODEL 7
REMARK VINA RESULT:      -7.9      3.078      5.233
REMARK  Name = 
REMARK  8 active torsions:
REMARK  status: ('A' for Active; 'I' for Inactive)
REMARK    1  A    between atoms: C_1  and  O_2
REMARK    2  A    between atoms: O_2  and  C_3
REMARK    3  A    between atoms: C_7  and  C_8
REMARK    4  A    between atoms: C_11  and  N_12
REMARK    5  A    between atoms: C_14  and  C_15
REMARK    6  A    between atoms: C_19  and  C_20
REMARK    7  A    between atoms: C_28  and  O_29
REMARK    8  A    between atoms: O_29  and  C_30
REMARK                            x       y       z     vdW  Elec       q    Type
REMARK                         _______ _______ _______ _____ _____    ______ ____
ROOT
ATOM      1  C   UNL     1       1.590   8.245  19.866  0.00  0.00    +0.000 A 
ATOM      2  C   UNL     1       2.062   8.723  18.641  0.00  0.00    +0.000 A 
ATOM      3  C   UNL     1       2.952   7.976  17.855  0.00  0.00    +0.000 A 
ATOM      4  C   UNL     1       3.351   6.699  18.282  0.00  0.00    +0.000 A 
ATOM      5  C   UNL     1       2.834   6.174  19.466  0.00  0.00    +0.000 A 
ATOM      6  C   UNL     1       1.978   6.941  20.253  0.00  0.00    +0.000 A 
ENDROOT
BRANCH   1  11
ATOM      7  C   UNL     1      -0.750  10.975  21.220  0.00  0.00    +0.000 A 
ATOM      8  C   UNL     1      -0.612  10.733  22.594  0.00  0.00    +0.000 A 
ATOM      9  C   UNL     1       0.142   9.659  23.054  0.00  0.00    +0.000 A 
ATOM     10  C   UNL     1       0.793   8.827  22.152  0.00  0.00    +0.000 A 
ATOM     11  C   UNL     1       0.737   9.062  20.763  0.00  0.00    +0.000 A 
ATOM     12  C   UNL     1      -0.076  10.135  20.305  0.00  0.00    +0.000 A 
BRANCH   7  14
ATOM     13  C   UNL     1      -2.565  12.538  21.388  0.00  0.00    +0.000 C 
ATOM     14  O   UNL     1      -1.404  12.068  20.709  0.00  0.00    +0.000 OA
ENDBRANCH   7  14
BRANCH  12  15
ATOM     15  O   UNL     1      -0.037  10.450  18.961  0.00  0.00    +0.000 OA
ATOM     16  C   UNL     1      -1.193  10.038  18.226  0.00  0.00    +0.000 C 
ENDBRANCH  12  15
ENDBRANCH   1  11
BRANCH   4  17
ATOM     17  N   UNL     1       4.282   5.946  17.528  0.00  0.00    +0.000 N 
ATOM     18  C   UNL     1       4.469   5.955  16.174  0.00  0.00    +0.000 A 
ATOM     19  C   UNL     1       5.513   5.084  15.971  0.00  0.00    +0.000 A 
ATOM     20  N   UNL     1       5.907   4.550  17.157  0.00  0.00    +0.000 NA
ATOM     21  N   UNL     1       5.173   5.106  18.115  0.00  0.00    +0.000 NA
BRANCH  19  22
ATOM     22  C   UNL     1       6.078   4.779  14.669  0.00  0.00    +0.000 A 
ATOM     23  C   UNL     1       7.301   5.340  14.279  0.00  0.00    +0.000 A 
ATOM     24  C   UNL     1       7.852   5.009  13.043  0.00  0.00    +0.000 A 
ATOM     25  C   UNL     1       7.187   4.133  12.183  0.00  0.00    +0.000 A 
ATOM     26  C   UNL     1       5.949   3.567  12.548  0.00  0.00    +0.000 A 
ATOM     27  C   UNL     1       5.414   3.909  13.795  0.00  0.00    +0.000 A 
BRANCH  26  28
ATOM     28  C   UNL     1       5.201   2.612  11.627  0.00  0.00    +0.000 C 
ATOM     29  O   UNL     1       5.774   1.507  11.367  0.00  0.00    +0.000 OA
ATOM     30  O   UNL     1       4.076   2.998  11.190  0.00  0.00    +0.000 OA
ENDBRANCH  26  28
ENDBRANCH  19  22
ENDBRANCH   4  17
TORSDOF 6
ENDMDL
MODEL 8
REMARK VINA RESULT:      -7.8      1.685      2.250
REMARK  Name = 
REMARK  8 active torsions:
REMARK  status: ('A' for Active; 'I' for Inactive)
REMARK    1  A    between atoms: C_1  and  O_2
REMARK    2  A    between atoms: O_2  and  C_3
REMARK    3  A    between atoms: C_7  and  C_8
REMARK    4  A    between atoms: C_11  and  N_12
REMARK    5  A    between atoms: C_14  and  C_15
REMARK    6  A    between atoms: C_19  and  C_20
REMARK    7  A    between atoms: C_28  and  O_29
REMARK    8  A    between atoms: O_29  and  C_30
REMARK                            x       y       z     vdW  Elec       q    Type
REMARK                         _______ _______ _______ _____ _____    ______ ____
ROOT
ATOM      1  C   UNL     1      -0.290  10.886  21.927  0.00  0.00    +0.000 A 
ATOM      2  C   UNL     1       0.380  10.027  22.802  0.00  0.00    +0.000 A 
ATOM      3  C   UNL     1       1.012   8.861  22.346  0.00  0.00    +0.000 A 
ATOM      4  C   UNL     1       1.013   8.564  20.973  0.00  0.00    +0.000 A 
ATOM      5  C   UNL     1       0.413   9.446  20.075  0.00  0.00    +0.000 A 
ATOM      6  C   UNL     1      -0.241  10.582  20.547  0.00  0.00    +0.000 A 
ENDROOT
BRANCH   1  11
ATOM      7  C   UNL     1      -1.255  14.449  22.993  0.00  0.00    +0.000 A 
ATOM      8  C   UNL     1      -2.492  14.179  23.597  0.00  0.00    +0.000 A 
ATOM      9  C   UNL     1      -3.029  12.897  23.572  0.00  0.00    +0.000 A 
ATOM     10  C   UNL     1      -2.330  11.859  22.970  0.00  0.00    +0.000 A 
ATOM     11  C   UNL     1      -1.057  12.064  22.400  0.00  0.00    +0.000 A 
ATOM     12  C   UNL     1      -0.540  13.388  22.391  0.00  0.00    +0.000 A 
BRANCH   7  14
ATOM     13  C   UNL     1      -1.172  16.748  22.303  0.00  0.00    +0.000 C 
ATOM     14  O   UNL     1      -0.632  15.670  23.063  0.00  0.00    +0.000 OA
ENDBRANCH   7  14
BRANCH  12  15
ATOM     15  O   UNL     1       0.755  13.576  21.952  0.00  0.00    +0.000 OA
ATOM     16  C   UNL     1       0.857  14.051  20.606  0.00  0.00    +0.000 C 
ENDBRANCH  12  15
ENDBRANCH   1  11
BRANCH   4  17
ATOM     17  N   UNL     1       1.606   7.371  20.495  0.00  0.00    +0.000 N 
ATOM     18  C   UNL     1       2.513   7.232  19.482  0.00  0.00    +0.000 A 
ATOM     19  C   UNL     1       2.790   5.886  19.457  0.00  0.00    +0.000 A 
ATOM     20  N   UNL     1       2.047   5.244  20.398  0.00  0.00    +0.000 NA
ATOM     21  N   UNL     1       1.347   6.162  21.056  0.00  0.00    +0.000 NA
BRANCH  19  22
ATOM     22  C   UNL     1       3.725   5.263  18.538  0.00  0.00    +0.000 A 
ATOM     23  C   UNL     1       3.258   4.536  17.436  0.00  0.00    +0.000 A 
ATOM     24  C   UNL     1       4.166   3.977  16.540  0.00  0.00    +0.000 A 
ATOM     25  C   UNL     1       5.540   4.122  16.741  0.00  0.00    +0.000 A 
ATOM     26  C   UNL     1       6.034   4.838  17.850  0.00  0.00    +0.000 A 
ATOM     27  C   UNL     1       5.106   5.396  18.736  0.00  0.00    +0.000 A 
BRANCH  26  28
ATOM     28  C   UNL     1       7.528   5.008  18.095  0.00  0.00    +0.000 C 
ATOM     29  O   UNL     1       7.872   5.944  18.883  0.00  0.00    +0.000 OA
ATOM     30  O   UNL     1       8.304   4.211  17.487  0.00  0.00    +0.000 OA
ENDBRANCH  26  28
ENDBRANCH  19  22
ENDBRANCH   4  17
TORSDOF 6
ENDMDL
MODEL 9
REMARK VINA RESULT:      -7.8      3.226      5.278
REMARK  Name = 
REMARK  8 active torsions:
REMARK  status: ('A' for Active; 'I' for Inactive)
REMARK    1  A    between atoms: C_1  and  O_2
REMARK    2  A    between atoms: O_2  and  C_3
REMARK    3  A    between atoms: C_7  and  C_8
REMARK    4  A    between atoms: C_11  and  N_12
REMARK    5  A    between atoms: C_14  and  C_15
REMARK    6  A    between atoms: C_19  and  C_20
REMARK    7  A    between atoms: C_28  and  O_29
REMARK    8  A    between atoms: O_29  and  C_30
REMARK                            x       y       z     vdW  Elec       q    Type
REMARK                         _______ _______ _______ _____ _____    ______ ____
ROOT
ATOM      1  C   UNL     1       1.599   8.179  20.031  0.00  0.00    +0.000 A 
ATOM      2  C   UNL     1       1.904   6.879  20.444  0.00  0.00    +0.000 A 
ATOM      3  C   UNL     1       2.685   6.023  19.654  0.00  0.00    +0.000 A 
ATOM      4  C   UNL     1       3.210   6.486  18.438  0.00  0.00    +0.000 A 
ATOM      5  C   UNL     1       2.978   7.803  18.043  0.00  0.00    +0.000 A 
ATOM      6  C   UNL     1       2.172   8.632  18.820  0.00  0.00    +0.000 A 
ENDROOT
BRANCH   1  11
ATOM      7  C   UNL     1      -0.749  11.055  21.017  0.00  0.00    +0.000 A 
ATOM      8  C   UNL     1      -0.786  10.855  22.404  0.00  0.00    +0.000 A 
ATOM      9  C   UNL     1      -0.144   9.765  22.981  0.00  0.00    +0.000 A 
ATOM     10  C   UNL     1       0.568   8.875  22.188  0.00  0.00    +0.000 A 
ATOM     11  C   UNL     1       0.687   9.064  20.796  0.00  0.00    +0.000 A 
ATOM     12  C   UNL     1      -0.014  10.155  20.213  0.00  0.00    +0.000 A 
BRANCH   7  14
ATOM     13  C   UNL     1      -2.607  12.555  20.756  0.00  0.00    +0.000 C 
ATOM     14  O   UNL     1      -1.285  12.159  20.400  0.00  0.00    +0.000 OA
ENDBRANCH   7  14
BRANCH  12  15
ATOM     15  O   UNL     1       0.198  10.422  18.875  0.00  0.00    +0.000 OA
ATOM     16  C   UNL     1      -0.918  10.124  18.032  0.00  0.00    +0.000 C 
ENDBRANCH  12  15
ENDBRANCH   1  11
BRANCH   4  17
ATOM     17  N   UNL     1       3.963   5.626  17.604  0.00  0.00    +0.000 N 
ATOM     18  C   UNL     1       4.428   5.874  16.343  0.00  0.00    +0.000 A 
ATOM     19  C   UNL     1       5.125   4.737  16.009  0.00  0.00    +0.000 A 
ATOM     20  N   UNL     1       5.046   3.833  17.021  0.00  0.00    +0.000 NA
ATOM     21  N   UNL     1       4.362   4.394  18.012  0.00  0.00    +0.000 NA
BRANCH  19  22
ATOM     22  C   UNL     1       5.817   4.546  14.747  0.00  0.00    +0.000 A 
ATOM     23  C   UNL     1       7.029   5.203  14.497  0.00  0.00    +0.000 A 
ATOM     24  C   UNL     1       7.702   4.980  13.298  0.00  0.00    +0.000 A 
ATOM     25  C   UNL     1       7.171   4.118  12.336  0.00  0.00    +0.000 A 
ATOM     26  C   UNL     1       5.946   3.456  12.560  0.00  0.00    +0.000 A 
ATOM     27  C   UNL     1       5.287   3.690  13.773  0.00  0.00    +0.000 A 
BRANCH  26  28
ATOM     28  C   UNL     1       5.343   2.514  11.527  0.00  0.00    +0.000 C 
ATOM     29  O   UNL     1       4.173   2.795  11.115  0.00  0.00    +0.000 OA
ATOM     30  O   UNL     1       6.050   1.525  11.170  0.00  0.00    +0.000 OA
ENDBRANCH  26  28
ENDBRANCH  19  22
ENDBRANCH   4  17
TORSDOF 6
ENDMDL
