MODEL 1
REMARK VINA RESULT:      -9.5      0.000      0.000
REMARK  Name = 
REMARK  4 active torsions:
REMARK  status: ('A' for Active; 'I' for Inactive)
REMARK    1  A    between atoms: C_1  and  N_2
REMARK    2  A    between atoms: C_4  and  C_5
REMARK    3  A    between atoms: C_6  and  C_7
REMARK    4  A    between atoms: C_24  and  O_25
REMARK                            x       y       z     vdW  Elec       q    Type
REMARK                         _______ _______ _______ _____ _____    ______ ____
ROOT
ATOM      1  C   UNL     1       3.485   3.376  18.625  0.00  0.00    +0.000 C 
ATOM      2  C   UNL     1       2.372   3.846  19.204  0.00  0.00    +0.000 C 
ATOM      3  C   UNL     1       1.423   2.718  19.313  0.00  0.00    +0.000 C 
ATOM      4  O   UNL     1       0.321   2.746  19.827  0.00  0.00    +0.000 OA
ATOM      5  N   UNL     1       2.013   1.643  18.749  0.00  0.00    +0.000 N 
ATOM      6  C   UNL     1       3.252   1.950  18.308  0.00  0.00    +0.000 C 
ATOM      7  O   UNL     1       4.023   1.189  17.756  0.00  0.00    +0.000 OA
ATOM      8  H   UNL     1       1.595   0.730  18.685  0.00  0.00    +0.000 HD
ENDROOT
BRANCH   1  12
ATOM      9  C   UNL     1       7.739   5.720  19.380  0.00  0.00    +0.000 C 
ATOM     10  N   UNL     1       6.618   5.111  18.699  0.00  0.00    +0.000 N 
ATOM     11  C   UNL     1       5.528   4.569  19.328  0.00  0.00    +0.000 A 
ATOM     12  C   UNL     1       4.699   4.051  18.357  0.00  0.00    +0.000 A 
ATOM     13  C   UNL     1       5.286   4.319  17.088  0.00  0.00    +0.000 A 
ATOM     14  C   UNL     1       4.911   4.057  15.751  0.00  0.00    +0.000 A 
ATOM     15  C   UNL     1       5.759   4.435  14.704  0.00  0.00    +0.000 A 
ATOM     16  C   UNL     1       6.961   5.074  14.981  0.00  0.00    +0.000 A 
ATOM     17  C   UNL     1       7.358   5.360  16.287  0.00  0.00    +0.000 A 
ATOM     18  C   UNL     1       6.501   4.974  17.330  0.00  0.00    +0.000 A 
BRANCH  16  19
ATOM     19  O   UNL     1       7.806   5.447  13.974  0.00  0.00    +0.000 OA
ATOM     20  H   UNL     1       8.106   6.356  14.145  0.00  0.00    +0.000 HD
ENDBRANCH  16  19
ENDBRANCH   1  12
BRANCH   2  21
ATOM     21  C   UNL     1       2.118   5.146  19.694  0.00  0.00    +0.000 A 
ATOM     22  C   UNL     1       1.652   5.446  20.955  0.00  0.00    +0.000 A 
ATOM     23  O   UNL     1       1.478   6.789  21.088  0.00  0.00    +0.000 OA
ATOM     24  C   UNL     1       1.819   7.354  19.896  0.00  0.00    +0.000 A 
ATOM     25  C   UNL     1       1.767   8.715  19.602  0.00  0.00    +0.000 A 
ATOM     26  C   UNL     1       2.140   9.088  18.307  0.00  0.00    +0.000 A 
ATOM     27  C   UNL     1       2.542   8.136  17.365  0.00  0.00    +0.000 A 
ATOM     28  C   UNL     1       2.592   6.773  17.693  0.00  0.00    +0.000 A 
ATOM     29  C   UNL     1       2.221   6.376  18.991  0.00  0.00    +0.000 A 
ENDBRANCH   2  21
TORSDOF 3
ENDMDL
MODEL 2
REMARK VINA RESULT:      -8.6      1.324      1.958
REMARK  Name = 
REMARK  4 active torsions:
REMARK  status: ('A' for Active; 'I' for Inactive)
REMARK    1  A    between atoms: C_1  and  N_2
REMARK    2  A    between atoms: C_4  and  C_5
REMARK    3  A    between atoms: C_6  and  C_7
REMARK    4  A    between atoms: C_24  and  O_25
REMARK                            x       y       z     vdW  Elec       q    Type
REMARK                         _______ _______ _______ _____ _____    ______ ____
ROOT
ATOM      1  C   UNL     1       3.791   4.384  19.214  0.00  0.00    +0.000 C 
ATOM      2  C   UNL     1       2.616   5.007  19.373  0.00  0.00    +0.000 C 
ATOM      3  C   UNL     1       1.717   4.076  20.087  0.00  0.00    +0.000 C 
ATOM      4  O   UNL     1       0.579   4.304  20.451  0.00  0.00    +0.000 OA
ATOM      5  N   UNL     1       2.399   2.926  20.275  0.00  0.00    +0.000 N 
ATOM      6  C   UNL     1       3.652   3.023  19.778  0.00  0.00    +0.000 C 
ATOM      7  O   UNL     1       4.498   2.151  19.800  0.00  0.00    +0.000 OA
ATOM      8  H   UNL     1       2.032   2.113  20.739  0.00  0.00    +0.000 HD
ENDROOT
BRANCH   1  12
ATOM      9  C   UNL     1       8.248   6.427  18.863  0.00  0.00    +0.000 C 
ATOM     10  N   UNL     1       6.999   5.802  18.486  0.00  0.00    +0.000 N 
ATOM     11  C   UNL     1       5.989   5.497  19.361  0.00  0.00    +0.000 A 
ATOM     12  C   UNL     1       4.989   4.878  18.644  0.00  0.00    +0.000 A 
ATOM     13  C   UNL     1       5.386   4.835  17.278  0.00  0.00    +0.000 A 
ATOM     14  C   UNL     1       4.793   4.351  16.091  0.00  0.00    +0.000 A 
ATOM     15  C   UNL     1       5.489   4.435  14.880  0.00  0.00    +0.000 A 
ATOM     16  C   UNL     1       6.757   5.002  14.847  0.00  0.00    +0.000 A 
ATOM     17  C   UNL     1       7.369   5.501  15.996  0.00  0.00    +0.000 A 
ATOM     18  C   UNL     1       6.662   5.409  17.206  0.00  0.00    +0.000 A 
BRANCH  16  19
ATOM     19  O   UNL     1       7.456   5.090  13.677  0.00  0.00    +0.000 OA
ATOM     20  H   UNL     1       7.723   6.016  13.547  0.00  0.00    +0.000 HD
ENDBRANCH  16  19
ENDBRANCH   1  12
BRANCH   2  21
ATOM     21  C   UNL     1       2.263   6.325  19.006  0.00  0.00    +0.000 A 
ATOM     22  C   UNL     1       2.385   6.859  17.743  0.00  0.00    +0.000 A 
ATOM     23  O   UNL     1       1.994   8.163  17.741  0.00  0.00    +0.000 OA
ATOM     24  C   UNL     1       1.634   8.472  19.018  0.00  0.00    +0.000 A 
ATOM     25  C   UNL     1       1.186   9.717  19.454  0.00  0.00    +0.000 A 
ATOM     26  C   UNL     1       0.888   9.831  20.815  0.00  0.00    +0.000 A 
ATOM     27  C   UNL     1       1.035   8.746  21.684  0.00  0.00    +0.000 A 
ATOM     28  C   UNL     1       1.481   7.502  21.214  0.00  0.00    +0.000 A 
ATOM     29  C   UNL     1       1.786   7.364  19.847  0.00  0.00    +0.000 A 
ENDBRANCH   2  21
TORSDOF 3
ENDMDL
MODEL 3
REMARK VINA RESULT:      -7.9      1.905      5.049
REMARK  Name = 
REMARK  4 active torsions:
REMARK  status: ('A' for Active; 'I' for Inactive)
REMARK    1  A    between atoms: C_1  and  N_2
REMARK    2  A    between atoms: C_4  and  C_5
REMARK    3  A    between atoms: C_6  and  C_7
REMARK    4  A    between atoms: C_24  and  O_25
REMARK                            x       y       z     vdW  Elec       q    Type
REMARK                         _______ _______ _______ _____ _____    ______ ____
ROOT
ATOM      1  C   UNL     1       2.341   4.061  19.461  0.00  0.00    +0.000 C 
ATOM      2  C   UNL     1       3.473   3.539  18.971  0.00  0.00    +0.000 C 
ATOM      3  C   UNL     1       3.239   2.093  18.768  0.00  0.00    +0.000 C 
ATOM      4  O   UNL     1       4.021   1.292  18.294  0.00  0.00    +0.000 OA
ATOM      5  N   UNL     1       1.985   1.827  19.193  0.00  0.00    +0.000 N 
ATOM      6  C   UNL     1       1.376   2.952  19.628  0.00  0.00    +0.000 C 
ATOM      7  O   UNL     1       0.246   3.027  20.070  0.00  0.00    +0.000 OA
ATOM      8  H   UNL     1       1.554   0.919  19.171  0.00  0.00    +0.000 HD
ENDROOT
BRANCH   1  12
ATOM      9  C   UNL     1       0.969   8.035  22.007  0.00  0.00    +0.000 C 
ATOM     10  N   UNL     1       1.423   7.203  20.914  0.00  0.00    +0.000 N 
ATOM     11  C   UNL     1       1.548   5.840  20.977  0.00  0.00    +0.000 A 
ATOM     12  C   UNL     1       2.044   5.411  19.765  0.00  0.00    +0.000 A 
ATOM     13  C   UNL     1       2.194   6.548  18.922  0.00  0.00    +0.000 A 
ATOM     14  C   UNL     1       2.632   6.741  17.593  0.00  0.00    +0.000 A 
ATOM     15  C   UNL     1       2.692   8.033  17.061  0.00  0.00    +0.000 A 
ATOM     16  C   UNL     1       2.314   9.122  17.837  0.00  0.00    +0.000 A 
ATOM     17  C   UNL     1       1.865   8.968  19.148  0.00  0.00    +0.000 A 
ATOM     18  C   UNL     1       1.810   7.666  19.673  0.00  0.00    +0.000 A 
BRANCH  16  19
ATOM     19  O   UNL     1       2.370  10.392  17.339  0.00  0.00    +0.000 OA
ATOM     20  H   UNL     1       2.120  11.011  18.046  0.00  0.00    +0.000 HD
ENDBRANCH  16  19
ENDBRANCH   1  12
BRANCH   2  21
ATOM     21  C   UNL     1       4.673   4.202  18.633  0.00  0.00    +0.000 A 
ATOM     22  C   UNL     1       5.492   4.865  19.518  0.00  0.00    +0.000 A 
ATOM     23  O   UNL     1       6.543   5.427  18.861  0.00  0.00    +0.000 OA
ATOM     24  C   UNL     1       6.387   5.134  17.539  0.00  0.00    +0.000 A 
ATOM     25  C   UNL     1       7.241   5.537  16.515  0.00  0.00    +0.000 A 
ATOM     26  C   UNL     1       6.888   5.149  15.219  0.00  0.00    +0.000 A 
ATOM     27  C   UNL     1       5.736   4.395  14.976  0.00  0.00    +0.000 A 
ATOM     28  C   UNL     1       4.900   3.997  16.029  0.00  0.00    +0.000 A 
ATOM     29  C   UNL     1       5.236   4.377  17.342  0.00  0.00    +0.000 A 
ENDBRANCH   2  21
TORSDOF 3
ENDMDL
MODEL 4
REMARK VINA RESULT:      -7.2      1.977      6.042
REMARK  Name = 
REMARK  4 active torsions:
REMARK  status: ('A' for Active; 'I' for Inactive)
REMARK    1  A    between atoms: C_1  and  N_2
REMARK    2  A    between atoms: C_4  and  C_5
REMARK    3  A    between atoms: C_6  and  C_7
REMARK    4  A    between atoms: C_24  and  O_25
REMARK                            x       y       z     vdW  Elec       q    Type
REMARK                         _______ _______ _______ _____ _____    ______ ____
ROOT
ATOM      1  C   UNL     1       2.709   5.009  19.611  0.00  0.00    +0.000 C 
ATOM      2  C   UNL     1       3.821   4.303  19.361  0.00  0.00    +0.000 C 
ATOM      3  C   UNL     1       3.560   2.909  19.776  0.00  0.00    +0.000 C 
ATOM      4  O   UNL     1       4.318   1.965  19.662  0.00  0.00    +0.000 OA
ATOM      5  N   UNL     1       2.314   2.872  20.294  0.00  0.00    +0.000 N 
ATOM      6  C   UNL     1       1.732   4.091  20.237  0.00  0.00    +0.000 C 
ATOM      7  O   UNL     1       0.615   4.368  20.627  0.00  0.00    +0.000 OA
ATOM      8  H   UNL     1       1.869   2.046  20.656  0.00  0.00    +0.000 HD
ENDROOT
BRANCH   1  12
ATOM      9  C   UNL     1       2.461   9.275  17.183  0.00  0.00    +0.000 C 
ATOM     10  N   UNL     1       2.331   8.296  18.240  0.00  0.00    +0.000 N 
ATOM     11  C   UNL     1       2.781   7.004  18.160  0.00  0.00    +0.000 A 
ATOM     12  C   UNL     1       2.441   6.370  19.336  0.00  0.00    +0.000 A 
ATOM     13  C   UNL     1       1.794   7.319  20.177  0.00  0.00    +0.000 A 
ATOM     14  C   UNL     1       1.246   7.274  21.478  0.00  0.00    +0.000 A 
ATOM     15  C   UNL     1       0.632   8.410  22.015  0.00  0.00    +0.000 A 
ATOM     16  C   UNL     1       0.570   9.582  21.271  0.00  0.00    +0.000 A 
ATOM     17  C   UNL     1       1.112   9.668  19.988  0.00  0.00    +0.000 A 
ATOM     18  C   UNL     1       1.723   8.520  19.459  0.00  0.00    +0.000 A 
BRANCH  16  19
ATOM     19  O   UNL     1      -0.028  10.703  21.774  0.00  0.00    +0.000 OA
ATOM     20  H   UNL     1       0.636  11.411  21.821  0.00  0.00    +0.000 HD
ENDBRANCH  16  19
ENDBRANCH   1  12
BRANCH   2  21
ATOM     21  C   UNL     1       5.022   4.740  18.760  0.00  0.00    +0.000 A 
ATOM     22  C   UNL     1       6.039   5.406  19.405  0.00  0.00    +0.000 A 
ATOM     23  O   UNL     1       7.033   5.716  18.528  0.00  0.00    +0.000 OA
ATOM     24  C   UNL     1       6.641   5.259  17.306  0.00  0.00    +0.000 A 
ATOM     25  C   UNL     1       7.366   5.389  16.124  0.00  0.00    +0.000 A 
ATOM     26  C   UNL     1       6.774   4.868  14.969  0.00  0.00    +0.000 A 
ATOM     27  C   UNL     1       5.520   4.253  15.011  0.00  0.00    +0.000 A 
ATOM     28  C   UNL     1       4.816   4.130  16.218  0.00  0.00    +0.000 A 
ATOM     29  C   UNL     1       5.394   4.646  17.393  0.00  0.00    +0.000 A 
ENDBRANCH   2  21
TORSDOF 3
ENDMDL
MODEL 5
REMARK VINA RESULT:      -7.2      6.141     10.283
REMARK  Name = 
REMARK  4 active torsions:
REMARK  status: ('A' for Active; 'I' for Inactive)
REMARK    1  A    between atoms: C_1  and  N_2
REMARK    2  A    between atoms: C_4  and  C_5
REMARK    3  A    between atoms: C_6  and  C_7
REMARK    4  A    between atoms: C_24  and  O_25
REMARK                            x       y       z     vdW  Elec       q    Type
REMARK                         _______ _______ _______ _____ _____    ______ ____
ROOT
ATOM      1  C   UNL     1      -0.951  13.308  20.267  0.00  0.00    +0.000 C 
ATOM      2  C   UNL     1       0.155  12.659  20.653  0.00  0.00    +0.000 C 
ATOM      3  C   UNL     1       1.154  13.680  21.036  0.00  0.00    +0.000 C 
ATOM      4  O   UNL     1       2.266  13.474  21.482  0.00  0.00    +0.000 OA
ATOM      5  N   UNL     1       0.595  14.889  20.814  0.00  0.00    +0.000 N 
ATOM      6  C   UNL     1      -0.666  14.758  20.349  0.00  0.00    +0.000 C 
ATOM      7  O   UNL     1      -1.418  15.668  20.059  0.00  0.00    +0.000 OA
ATOM      8  H   UNL     1       1.049  15.769  20.990  0.00  0.00    +0.000 HD
ENDROOT
BRANCH   1  12
ATOM      9  C   UNL     1      -5.725  12.142  20.352  0.00  0.00    +0.000 C 
ATOM     10  N   UNL     1      -4.353  12.248  19.906  0.00  0.00    +0.000 N 
ATOM     11  C   UNL     1      -3.343  12.825  20.631  0.00  0.00    +0.000 A 
ATOM     12  C   UNL     1      -2.199  12.776  19.865  0.00  0.00    +0.000 A 
ATOM     13  C   UNL     1      -2.513  12.115  18.645  0.00  0.00    +0.000 A 
ATOM     14  C   UNL     1      -1.772  11.758  17.496  0.00  0.00    +0.000 A 
ATOM     15  C   UNL     1      -2.412  11.125  16.425  0.00  0.00    +0.000 A 
ATOM     16  C   UNL     1      -3.770  10.842  16.496  0.00  0.00    +0.000 A 
ATOM     17  C   UNL     1      -4.530  11.168  17.619  0.00  0.00    +0.000 A 
ATOM     18  C   UNL     1      -3.878  11.805  18.688  0.00  0.00    +0.000 A 
BRANCH  16  19
ATOM     19  O   UNL     1      -4.415  10.229  15.460  0.00  0.00    +0.000 OA
ATOM     20  H   UNL     1      -5.331  10.047  15.732  0.00  0.00    +0.000 HD
ENDBRANCH  16  19
ENDBRANCH   1  12
BRANCH   2  21
ATOM     21  C   UNL     1       0.367  11.266  20.753  0.00  0.00    +0.000 A 
ATOM     22  C   UNL     1       0.072  10.493  21.853  0.00  0.00    +0.000 A 
ATOM     23  O   UNL     1       0.437   9.200  21.635  0.00  0.00    +0.000 OA
ATOM     24  C   UNL     1       0.986   9.148  20.389  0.00  0.00    +0.000 A 
ATOM     25  C   UNL     1       1.506   8.007  19.781  0.00  0.00    +0.000 A 
ATOM     26  C   UNL     1       2.046   8.172  18.502  0.00  0.00    +0.000 A 
ATOM     27  C   UNL     1       2.059   9.422  17.876  0.00  0.00    +0.000 A 
ATOM     28  C   UNL     1       1.521  10.551  18.510  0.00  0.00    +0.000 A 
ATOM     29  C   UNL     1       0.971  10.408  19.797  0.00  0.00    +0.000 A 
ENDBRANCH   2  21
TORSDOF 3
ENDMDL
MODEL 6
REMARK VINA RESULT:      -7.1      5.741     10.155
REMARK  Name = 
REMARK  4 active torsions:
REMARK  status: ('A' for Active; 'I' for Inactive)
REMARK    1  A    between atoms: C_1  and  N_2
REMARK    2  A    between atoms: C_4  and  C_5
REMARK    3  A    between atoms: C_6  and  C_7
REMARK    4  A    between atoms: C_24  and  O_25
REMARK                            x       y       z     vdW  Elec       q    Type
REMARK                         _______ _______ _______ _____ _____    ______ ____
ROOT
ATOM      1  C   UNL     1      -0.367  12.532  19.262  0.00  0.00    +0.000 C 
ATOM      2  C   UNL     1       0.605  11.955  19.981  0.00  0.00    +0.000 C 
ATOM      3  C   UNL     1       1.470  13.036  20.499  0.00  0.00    +0.000 C 
ATOM      4  O   UNL     1       2.432  12.906  21.232  0.00  0.00    +0.000 OA
ATOM      5  N   UNL     1       0.985  14.201  20.019  0.00  0.00    +0.000 N 
ATOM      6  C   UNL     1      -0.116  13.990  19.264  0.00  0.00    +0.000 C 
ATOM      7  O   UNL     1      -0.770  14.846  18.701  0.00  0.00    +0.000 OA
ATOM      8  H   UNL     1       1.377  15.107  20.213  0.00  0.00    +0.000 HD
ENDROOT
BRANCH   1  12
ATOM      9  C   UNL     1      -2.939   9.839  16.054  0.00  0.00    +0.000 C 
ATOM     10  N   UNL     1      -2.630  10.714  17.163  0.00  0.00    +0.000 N 
ATOM     11  C   UNL     1      -1.371  11.155  17.477  0.00  0.00    +0.000 A 
ATOM     12  C   UNL     1      -1.470  11.928  18.613  0.00  0.00    +0.000 A 
ATOM     13  C   UNL     1      -2.842  11.990  18.986  0.00  0.00    +0.000 A 
ATOM     14  C   UNL     1      -3.556  12.627  20.025  0.00  0.00    +0.000 A 
ATOM     15  C   UNL     1      -4.939  12.451  20.129  0.00  0.00    +0.000 A 
ATOM     16  C   UNL     1      -5.609  11.657  19.207  0.00  0.00    +0.000 A 
ATOM     17  C   UNL     1      -4.940  11.023  18.160  0.00  0.00    +0.000 A 
ATOM     18  C   UNL     1      -3.551  11.206  18.066  0.00  0.00    +0.000 A 
BRANCH  16  19
ATOM     19  O   UNL     1      -6.960  11.468  19.292  0.00  0.00    +0.000 OA
ATOM     20  H   UNL     1      -7.200  11.388  20.230  0.00  0.00    +0.000 HD
ENDBRANCH  16  19
ENDBRANCH   1  12
BRANCH   2  21
ATOM     21  C   UNL     1       0.786  10.586  20.274  0.00  0.00    +0.000 A 
ATOM     22  C   UNL     1       0.453   9.974  21.462  0.00  0.00    +0.000 A 
ATOM     23  O   UNL     1       0.796   8.658  21.429  0.00  0.00    +0.000 OA
ATOM     24  C   UNL     1       1.370   8.426  20.214  0.00  0.00    +0.000 A 
ATOM     25  C   UNL     1       1.878   7.205  19.780  0.00  0.00    +0.000 A 
ATOM     26  C   UNL     1       2.447   7.185  18.503  0.00  0.00    +0.000 A 
ATOM     27  C   UNL     1       2.497   8.337  17.713  0.00  0.00    +0.000 A 
ATOM     28  C   UNL     1       1.970   9.552  18.175  0.00  0.00    +0.000 A 
ATOM     29  C   UNL     1       1.392   9.595  19.458  0.00  0.00    +0.000 A 
ENDBRANCH   2  21
TORSDOF 3
ENDMDL
MODEL 7
REMARK VINA RESULT:      -7.1      7.978     11.487
REMARK  Name = 
REMARK  4 active torsions:
REMARK  status: ('A' for Active; 'I' for Inactive)
REMARK    1  A    between atoms: C_1  and  N_2
REMARK    2  A    between atoms: C_4  and  C_5
REMARK    3  A    between atoms: C_6  and  C_7
REMARK    4  A    between atoms: C_24  and  O_25
REMARK                            x       y       z     vdW  Elec       q    Type
REMARK                         _______ _______ _______ _____ _____    ______ ____
ROOT
ATOM      1  C   UNL     1      -1.975  13.876  22.825  0.00  0.00    +0.000 C 
ATOM      2  C   UNL     1      -3.236  14.259  23.065  0.00  0.00    +0.000 C 
ATOM      3  C   UNL     1      -3.192  15.672  23.499  0.00  0.00    +0.000 C 
ATOM      4  O   UNL     1      -4.146  16.379  23.762  0.00  0.00    +0.000 OA
ATOM      5  N   UNL     1      -1.894  16.039  23.535  0.00  0.00    +0.000 N 
ATOM      6  C   UNL     1      -1.094  15.021  23.148  0.00  0.00    +0.000 C 
ATOM      7  O   UNL     1       0.119  15.052  23.080  0.00  0.00    +0.000 OA
ATOM      8  H   UNL     1      -1.565  16.954  23.795  0.00  0.00    +0.000 HD
ENDROOT
BRANCH   1  12
ATOM      9  C   UNL     1      -0.411   9.217  22.769  0.00  0.00    +0.000 C 
ATOM     10  N   UNL     1      -0.794  10.535  22.311  0.00  0.00    +0.000 N 
ATOM     11  C   UNL     1      -1.173  11.563  23.133  0.00  0.00    +0.000 A 
ATOM     12  C   UNL     1      -1.501  12.637  22.335  0.00  0.00    +0.000 A 
ATOM     13  C   UNL     1      -1.279  12.263  20.979  0.00  0.00    +0.000 A 
ATOM     14  C   UNL     1      -1.415  12.922  19.738  0.00  0.00    +0.000 A 
ATOM     15  C   UNL     1      -1.138  12.235  18.551  0.00  0.00    +0.000 A 
ATOM     16  C   UNL     1      -0.723  10.911  18.596  0.00  0.00    +0.000 A 
ATOM     17  C   UNL     1      -0.565  10.231  19.804  0.00  0.00    +0.000 A 
ATOM     18  C   UNL     1      -0.848  10.930  20.989  0.00  0.00    +0.000 A 
BRANCH  16  19
ATOM     19  O   UNL     1      -0.451  10.220  17.450  0.00  0.00    +0.000 OA
ATOM     20  H   UNL     1      -0.599   9.274  17.617  0.00  0.00    +0.000 HD
ENDBRANCH  16  19
ENDBRANCH   1  12
BRANCH   2  21
ATOM     21  C   UNL     1      -4.427  13.519  22.895  0.00  0.00    +0.000 A 
ATOM     22  C   UNL     1      -5.147  12.925  23.906  0.00  0.00    +0.000 A 
ATOM     23  O   UNL     1      -6.217  12.257  23.396  0.00  0.00    +0.000 OA
ATOM     24  C   UNL     1      -6.174  12.411  22.043  0.00  0.00    +0.000 A 
ATOM     25  C   UNL     1      -7.082  11.868  21.138  0.00  0.00    +0.000 A 
ATOM     26  C   UNL     1      -6.845  12.127  19.785  0.00  0.00    +0.000 A 
ATOM     27  C   UNL     1      -5.750  12.893  19.374  0.00  0.00    +0.000 A 
ATOM     28  C   UNL     1      -4.856  13.433  20.309  0.00  0.00    +0.000 A 
ATOM     29  C   UNL     1      -5.076  13.185  21.677  0.00  0.00    +0.000 A 
ENDBRANCH   2  21
TORSDOF 3
ENDMDL
MODEL 8
REMARK VINA RESULT:      -7.0      8.534     10.740
REMARK  Name = 
REMARK  4 active torsions:
REMARK  status: ('A' for Active; 'I' for Inactive)
REMARK    1  A    between atoms: C_1  and  N_2
REMARK    2  A    between atoms: C_4  and  C_5
REMARK    3  A    between atoms: C_6  and  C_7
REMARK    4  A    between atoms: C_24  and  O_25
REMARK                            x       y       z     vdW  Elec       q    Type
REMARK                         _______ _______ _______ _____ _____    ______ ____
ROOT
ATOM      1  C   UNL     1      -1.154  14.095  21.534  0.00  0.00    +0.000 C 
ATOM      2  C   UNL     1      -2.079  13.128  21.474  0.00  0.00    +0.000 C 
ATOM      3  C   UNL     1      -2.410  12.748  22.864  0.00  0.00    +0.000 C 
ATOM      4  O   UNL     1      -3.242  11.934  23.215  0.00  0.00    +0.000 OA
ATOM      5  N   UNL     1      -1.625  13.487  23.678  0.00  0.00    +0.000 N 
ATOM      6  C   UNL     1      -0.839  14.320  22.962  0.00  0.00    +0.000 C 
ATOM      7  O   UNL     1      -0.029  15.105  23.416  0.00  0.00    +0.000 OA
ATOM      8  H   UNL     1      -1.638  13.439  24.682  0.00  0.00    +0.000 HD
ENDROOT
BRANCH   1  12
ATOM      9  C   UNL     1      -0.489  17.553  18.105  0.00  0.00    +0.000 C 
ATOM     10  N   UNL     1      -0.264  16.384  18.927  0.00  0.00    +0.000 N 
ATOM     11  C   UNL     1      -1.138  15.924  19.877  0.00  0.00    +0.000 A 
ATOM     12  C   UNL     1      -0.562  14.824  20.475  0.00  0.00    +0.000 A 
ATOM     13  C   UNL     1       0.691  14.583  19.844  0.00  0.00    +0.000 A 
ATOM     14  C   UNL     1       1.707  13.616  20.004  0.00  0.00    +0.000 A 
ATOM     15  C   UNL     1       2.864  13.687  19.221  0.00  0.00    +0.000 A 
ATOM     16  C   UNL     1       3.007  14.702  18.284  0.00  0.00    +0.000 A 
ATOM     17  C   UNL     1       2.019  15.667  18.090  0.00  0.00    +0.000 A 
ATOM     18  C   UNL     1       0.863  15.588  18.883  0.00  0.00    +0.000 A 
BRANCH  16  19
ATOM     19  O   UNL     1       4.131  14.792  17.512  0.00  0.00    +0.000 OA
ATOM     20  H   UNL     1       3.900  14.541  16.602  0.00  0.00    +0.000 HD
ENDBRANCH  16  19
ENDBRANCH   1  12
BRANCH   2  21
ATOM     21  C   UNL     1      -2.702  12.576  20.333  0.00  0.00    +0.000 A 
ATOM     22  C   UNL     1      -4.018  12.763  19.975  0.00  0.00    +0.000 A 
ATOM     23  O   UNL     1      -4.306  12.061  18.846  0.00  0.00    +0.000 OA
ATOM     24  C   UNL     1      -3.168  11.404  18.485  0.00  0.00    +0.000 A 
ATOM     25  C   UNL     1      -3.036  10.557  17.387  0.00  0.00    +0.000 A 
ATOM     26  C   UNL     1      -1.784   9.962  17.205  0.00  0.00    +0.000 A 
ATOM     27  C   UNL     1      -0.727  10.213  18.085  0.00  0.00    +0.000 A 
ATOM     28  C   UNL     1      -0.887  11.077  19.177  0.00  0.00    +0.000 A 
ATOM     29  C   UNL     1      -2.140  11.687  19.379  0.00  0.00    +0.000 A 
ENDBRANCH   2  21
TORSDOF 3
ENDMDL
MODEL 9
REMARK VINA RESULT:      -7.0      8.234     11.683
REMARK  Name = 
REMARK  4 active torsions:
REMARK  status: ('A' for Active; 'I' for Inactive)
REMARK    1  A    between atoms: C_1  and  N_2
REMARK    2  A    between atoms: C_4  and  C_5
REMARK    3  A    between atoms: C_6  and  C_7
REMARK    4  A    between atoms: C_24  and  O_25
REMARK                            x       y       z     vdW  Elec       q    Type
REMARK                         _______ _______ _______ _____ _____    ______ ____
ROOT
ATOM      1  C   UNL     1      -3.094  14.180  22.052  0.00  0.00    +0.000 C 
ATOM      2  C   UNL     1      -4.427  14.284  21.964  0.00  0.00    +0.000 C 
ATOM      3  C   UNL     1      -4.767  15.715  22.112  0.00  0.00    +0.000 C 
ATOM      4  O   UNL     1      -5.877  16.207  22.043  0.00  0.00    +0.000 OA
ATOM      5  N   UNL     1      -3.612  16.381  22.325  0.00  0.00    +0.000 N 
ATOM      6  C   UNL     1      -2.559  15.536  22.307  0.00  0.00    +0.000 C 
ATOM      7  O   UNL     1      -1.394  15.843  22.469  0.00  0.00    +0.000 OA
ATOM      8  H   UNL     1      -3.542  17.376  22.458  0.00  0.00    +0.000 HD
ENDROOT
BRANCH   1  12
ATOM      9  C   UNL     1      -0.720  10.032  23.197  0.00  0.00    +0.000 C 
ATOM     10  N   UNL     1      -1.209  11.158  22.433  0.00  0.00    +0.000 N 
ATOM     11  C   UNL     1      -1.980  12.168  22.947  0.00  0.00    +0.000 A 
ATOM     12  C   UNL     1      -2.282  13.029  21.915  0.00  0.00    +0.000 A 
ATOM     13  C   UNL     1      -1.644  12.548  20.737  0.00  0.00    +0.000 A 
ATOM     14  C   UNL     1      -1.569  12.997  19.400  0.00  0.00    +0.000 A 
ATOM     15  C   UNL     1      -0.864  12.247  18.453  0.00  0.00    +0.000 A 
ATOM     16  C   UNL     1      -0.233  11.069  18.830  0.00  0.00    +0.000 A 
ATOM     17  C   UNL     1      -0.275  10.601  20.143  0.00  0.00    +0.000 A 
ATOM     18  C   UNL     1      -0.987  11.361  21.086  0.00  0.00    +0.000 A 
BRANCH  16  19
ATOM     19  O   UNL     1       0.457  10.319  17.920  0.00  0.00    +0.000 OA
ATOM     20  H   UNL     1      -0.170   9.986  17.256  0.00  0.00    +0.000 HD
ENDBRANCH  16  19
ENDBRANCH   1  12
BRANCH   2  21
ATOM     21  C   UNL     1      -5.373  13.266  21.717  0.00  0.00    +0.000 A 
ATOM     22  C   UNL     1      -6.197  12.697  22.662  0.00  0.00    +0.000 A 
ATOM     23  O   UNL     1      -6.958  11.719  22.100  0.00  0.00    +0.000 OA
ATOM     24  C   UNL     1      -6.608  11.649  20.785  0.00  0.00    +0.000 A 
ATOM     25  C   UNL     1      -7.140  10.763  19.852  0.00  0.00    +0.000 A 
ATOM     26  C   UNL     1      -6.626  10.839  18.554  0.00  0.00    +0.000 A 
ATOM     27  C   UNL     1      -5.630  11.761  18.222  0.00  0.00    +0.000 A 
ATOM     28  C   UNL     1      -5.118  12.647  19.181  0.00  0.00    +0.000 A 
ATOM     29  C   UNL     1      -5.622  12.588  20.494  0.00  0.00    +0.000 A 
ENDBRANCH   2  21
TORSDOF 3
ENDMDL
