MODEL 1
REMARK VINA RESULT:      -9.2      0.000      0.000
REMARK  Name = 
REMARK  10 active torsions:
REMARK  status: ('A' for Active; 'I' for Inactive)
REMARK    1  A    between atoms: C_1  and  C_2
REMARK    2  A    between atoms: C_2  and  O_3
REMARK    3  A    between atoms: O_3  and  C_4
REMARK    4  A    between atoms: C_4  and  C_6
REMARK    5  A    between atoms: N_9  and  C_10
REMARK    6  A    between atoms: C_13  and  N_14
REMARK    7  A    between atoms: C_18  and  C_19
REMARK    8  A    between atoms: C_23  and  C_24
REMARK    9  A    between atoms: C_24  and  O_26
REMARK   10  A    between atoms: C_30  and  C_31
REMARK                            x       y       z     vdW  Elec       q    Type
REMARK                         _______ _______ _______ _____ _____    ______ ____
ROOT
ATOM      1  C   UNL     1       1.713   7.978  19.574  0.00  0.00    +0.000 A 
ATOM      2  C   UNL     1       1.591   7.084  20.650  0.00  0.00    +0.000 A 
ATOM      3  C   UNL     1       1.827   5.719  20.459  0.00  0.00    +0.000 A 
ATOM      4  C   UNL     1       2.245   5.258  19.205  0.00  0.00    +0.000 A 
ATOM      5  C   UNL     1       2.387   6.154  18.143  0.00  0.00    +0.000 A 
ATOM      6  C   UNL     1       2.158   7.512  18.337  0.00  0.00    +0.000 A 
ENDROOT
BRANCH   1  10
ATOM      7  C   UNL     1       0.515  11.271  20.434  0.00  0.00    +0.000 A 
ATOM      8  C   UNL     1       1.138  11.381  19.182  0.00  0.00    +0.000 A 
ATOM      9  N   UNL     1       1.703  10.240  18.794  0.00  0.00    +0.000 NA
ATOM     10  N   UNL     1       1.369   9.343  19.760  0.00  0.00    +0.000 N 
ATOM     11  C   UNL     1       0.738   9.960  20.822  0.00  0.00    +0.000 A 
BRANCH  11  12
ATOM     12  C   UNL     1       0.528   9.322  22.132  0.00  0.00    +0.000 C 
ATOM     13  F   UNL     1      -0.361   8.300  22.077  0.00  0.00    +0.000 F 
ATOM     14  F   UNL     1       1.670   8.812  22.653  0.00  0.00    +0.000 F 
ATOM     15  F   UNL     1       0.022  10.192  23.042  0.00  0.00    +0.000 F 
ENDBRANCH  11  12
BRANCH   7  16
ATOM     16  C   UNL     1      -0.187  12.295  21.169  0.00  0.00    +0.000 C 
ATOM     17  O   UNL     1       0.383  13.159  21.819  0.00  0.00    +0.000 OA
BRANCH  16  18
ATOM     18  O   UNL     1      -1.532  12.101  21.120  0.00  0.00    +0.000 OA
BRANCH  18  20
ATOM     19  C   UNL     1      -2.748  11.992  19.085  0.00  0.00    +0.000 C 
ATOM     20  C   UNL     1      -2.232  12.913  20.174  0.00  0.00    +0.000 C 
ENDBRANCH  18  20
ENDBRANCH  16  18
ENDBRANCH   7  16
ENDBRANCH   1  10
BRANCH   4  21
ATOM     21  N   UNL     1       2.554   3.885  19.023  0.00  0.00    +0.000 N 
ATOM     22  N   UNL     1       1.724   2.932  19.509  0.00  0.00    +0.000 NA
ATOM     23  N   UNL     1       2.082   1.768  18.991  0.00  0.00    +0.000 NA
ATOM     24  C   UNL     1       3.230   1.962  18.286  0.00  0.00    +0.000 A 
ATOM     25  C   UNL     1       3.615   3.293  18.333  0.00  0.00    +0.000 A 
BRANCH  25  26
ATOM     26  C   UNL     1       4.837   3.946  17.843  0.00  0.00    +0.000 A 
ATOM     27  C   UNL     1       5.206   3.870  16.486  0.00  0.00    +0.000 A 
ATOM     28  C   UNL     1       6.432   4.363  16.043  0.00  0.00    +0.000 A 
ATOM     29  C   UNL     1       7.281   5.012  16.935  0.00  0.00    +0.000 A 
ATOM     30  C   UNL     1       6.893   5.181  18.270  0.00  0.00    +0.000 A 
ATOM     31  C   UNL     1       5.673   4.653  18.721  0.00  0.00    +0.000 A 
BRANCH  30  32
ATOM     32  C   UNL     1       7.794   5.971  19.151  0.00  0.00    +0.000 C 
ATOM     33  O   UNL     1       8.345   6.992  18.779  0.00  0.00    +0.000 OA
BRANCH  32  34
ATOM     34  O   UNL     1       7.976   5.443  20.378  0.00  0.00    +0.000 OA
ATOM     35  H   UNL     1       7.705   6.002  21.127  0.00  0.00    +0.000 HD
ENDBRANCH  32  34
ENDBRANCH  30  32
ENDBRANCH  25  26
ENDBRANCH   4  21
TORSDOF 9
ENDMDL
MODEL 2
REMARK VINA RESULT:      -9.2      0.706      1.310
REMARK  Name = 
REMARK  10 active torsions:
REMARK  status: ('A' for Active; 'I' for Inactive)
REMARK    1  A    between atoms: C_1  and  C_2
REMARK    2  A    between atoms: C_2  and  O_3
REMARK    3  A    between atoms: O_3  and  C_4
REMARK    4  A    between atoms: C_4  and  C_6
REMARK    5  A    between atoms: N_9  and  C_10
REMARK    6  A    between atoms: C_13  and  N_14
REMARK    7  A    between atoms: C_18  and  C_19
REMARK    8  A    between atoms: C_23  and  C_24
REMARK    9  A    between atoms: C_24  and  O_26
REMARK   10  A    between atoms: C_30  and  C_31
REMARK                            x       y       z     vdW  Elec       q    Type
REMARK                         _______ _______ _______ _____ _____    ______ ____
ROOT
ATOM      1  C   UNL     1       1.685   7.957  19.478  0.00  0.00    +0.000 A 
ATOM      2  C   UNL     1       1.740   7.100  20.589  0.00  0.00    +0.000 A 
ATOM      3  C   UNL     1       1.989   5.736  20.413  0.00  0.00    +0.000 A 
ATOM      4  C   UNL     1       2.243   5.239  19.129  0.00  0.00    +0.000 A 
ATOM      5  C   UNL     1       2.210   6.099  18.028  0.00  0.00    +0.000 A 
ATOM      6  C   UNL     1       1.968   7.457  18.207  0.00  0.00    +0.000 A 
ENDROOT
BRANCH   1  10
ATOM      7  C   UNL     1       0.394  11.231  20.274  0.00  0.00    +0.000 A 
ATOM      8  C   UNL     1       1.216  11.382  19.147  0.00  0.00    +0.000 A 
ATOM      9  N   UNL     1       1.826  10.249  18.808  0.00  0.00    +0.000 NA
ATOM     10  N   UNL     1       1.329   9.318  19.665  0.00  0.00    +0.000 N 
ATOM     11  C   UNL     1       0.537   9.900  20.635  0.00  0.00    +0.000 A 
BRANCH  11  12
ATOM     12  C   UNL     1       0.107   9.212  21.864  0.00  0.00    +0.000 C 
ATOM     13  F   UNL     1      -0.660   8.124  21.609  0.00  0.00    +0.000 F 
ATOM     14  F   UNL     1       1.151   8.782  22.612  0.00  0.00    +0.000 F 
ATOM     15  F   UNL     1      -0.652  10.014  22.652  0.00  0.00    +0.000 F 
ENDBRANCH  11  12
BRANCH   7  16
ATOM     16  C   UNL     1      -0.410  12.234  20.929  0.00  0.00    +0.000 C 
ATOM     17  O   UNL     1      -1.566  12.474  20.612  0.00  0.00    +0.000 OA
BRANCH  16  18
ATOM     18  O   UNL     1       0.317  12.923  21.848  0.00  0.00    +0.000 OA
BRANCH  18  20
ATOM     19  C   UNL     1       2.050  14.477  21.383  0.00  0.00    +0.000 C 
ATOM     20  C   UNL     1       0.551  14.299  21.535  0.00  0.00    +0.000 C 
ENDBRANCH  18  20
ENDBRANCH  16  18
ENDBRANCH   7  16
ENDBRANCH   1  10
BRANCH   4  21
ATOM     21  N   UNL     1       2.566   3.869  18.951  0.00  0.00    +0.000 N 
ATOM     22  N   UNL     1       1.740   2.909  19.429  0.00  0.00    +0.000 NA
ATOM     23  N   UNL     1       2.113   1.748  18.915  0.00  0.00    +0.000 NA
ATOM     24  C   UNL     1       3.266   1.951  18.222  0.00  0.00    +0.000 A 
ATOM     25  C   UNL     1       3.640   3.285  18.272  0.00  0.00    +0.000 A 
BRANCH  25  26
ATOM     26  C   UNL     1       4.861   3.949  17.795  0.00  0.00    +0.000 A 
ATOM     27  C   UNL     1       5.242   3.880  16.441  0.00  0.00    +0.000 A 
ATOM     28  C   UNL     1       6.467   4.383  16.009  0.00  0.00    +0.000 A 
ATOM     29  C   UNL     1       7.305   5.035  16.911  0.00  0.00    +0.000 A 
ATOM     30  C   UNL     1       6.905   5.197  18.243  0.00  0.00    +0.000 A 
ATOM     31  C   UNL     1       5.684   4.658  18.682  0.00  0.00    +0.000 A 
BRANCH  30  32
ATOM     32  C   UNL     1       7.793   5.989  19.134  0.00  0.00    +0.000 C 
ATOM     33  O   UNL     1       8.339   7.016  18.771  0.00  0.00    +0.000 OA
BRANCH  32  34
ATOM     34  O   UNL     1       7.969   5.457  20.361  0.00  0.00    +0.000 OA
ATOM     35  H   UNL     1       8.223   4.519  20.387  0.00  0.00    +0.000 HD
ENDBRANCH  32  34
ENDBRANCH  30  32
ENDBRANCH  25  26
ENDBRANCH   4  21
TORSDOF 9
ENDMDL
MODEL 3
REMARK VINA RESULT:      -9.2      1.490      2.087
REMARK  Name = 
REMARK  10 active torsions:
REMARK  status: ('A' for Active; 'I' for Inactive)
REMARK    1  A    between atoms: C_1  and  C_2
REMARK    2  A    between atoms: C_2  and  O_3
REMARK    3  A    between atoms: O_3  and  C_4
REMARK    4  A    between atoms: C_4  and  C_6
REMARK    5  A    between atoms: N_9  and  C_10
REMARK    6  A    between atoms: C_13  and  N_14
REMARK    7  A    between atoms: C_18  and  C_19
REMARK    8  A    between atoms: C_23  and  C_24
REMARK    9  A    between atoms: C_24  and  O_26
REMARK   10  A    between atoms: C_30  and  C_31
REMARK                            x       y       z     vdW  Elec       q    Type
REMARK                         _______ _______ _______ _____ _____    ______ ____
ROOT
ATOM      1  C   UNL     1       1.711   8.045  19.616  0.00  0.00    +0.000 A 
ATOM      2  C   UNL     1       1.571   7.135  20.676  0.00  0.00    +0.000 A 
ATOM      3  C   UNL     1       1.843   5.778  20.478  0.00  0.00    +0.000 A 
ATOM      4  C   UNL     1       2.315   5.341  19.235  0.00  0.00    +0.000 A 
ATOM      5  C   UNL     1       2.475   6.254  18.188  0.00  0.00    +0.000 A 
ATOM      6  C   UNL     1       2.209   7.604  18.390  0.00  0.00    +0.000 A 
ENDROOT
BRANCH   1  10
ATOM      7  C   UNL     1       0.434  11.304  20.492  0.00  0.00    +0.000 A 
ATOM      8  C   UNL     1       1.029  11.428  19.227  0.00  0.00    +0.000 A 
ATOM      9  N   UNL     1       1.619  10.303  18.831  0.00  0.00    +0.000 NA
ATOM     10  N   UNL     1       1.331   9.399  19.805  0.00  0.00    +0.000 N 
ATOM     11  C   UNL     1       0.703  10.001  20.878  0.00  0.00    +0.000 A 
BRANCH  11  12
ATOM     12  C   UNL     1       0.537   9.361  22.194  0.00  0.00    +0.000 C 
ATOM     13  F   UNL     1       0.065  10.216  23.133  0.00  0.00    +0.000 F 
ATOM     14  F   UNL     1      -0.321   8.314  22.159  0.00  0.00    +0.000 F 
ATOM     15  F   UNL     1       1.716   8.901  22.684  0.00  0.00    +0.000 F 
ENDBRANCH  11  12
BRANCH   7  16
ATOM     16  C   UNL     1      -0.283  12.309  21.238  0.00  0.00    +0.000 C 
ATOM     17  O   UNL     1       0.274  13.174  21.899  0.00  0.00    +0.000 OA
BRANCH  16  18
ATOM     18  O   UNL     1      -1.625  12.095  21.186  0.00  0.00    +0.000 OA
BRANCH  18  20
ATOM     19  C   UNL     1      -2.819  12.106  23.237  0.00  0.00    +0.000 C 
ATOM     20  C   UNL     1      -2.411  12.937  22.035  0.00  0.00    +0.000 C 
ENDBRANCH  18  20
ENDBRANCH  16  18
ENDBRANCH   7  16
ENDBRANCH   1  10
BRANCH   4  21
ATOM     21  N   UNL     1       2.660   3.978  19.048  0.00  0.00    +0.000 N 
ATOM     22  N   UNL     1       1.833   3.001  19.489  0.00  0.00    +0.000 NA
ATOM     23  N   UNL     1       2.236   1.853  18.970  0.00  0.00    +0.000 NA
ATOM     24  C   UNL     1       3.406   2.079  18.313  0.00  0.00    +0.000 A 
ATOM     25  C   UNL     1       3.760   3.417  18.392  0.00  0.00    +0.000 A 
BRANCH  25  26
ATOM     26  C   UNL     1       4.986   4.103  17.959  0.00  0.00    +0.000 A 
ATOM     27  C   UNL     1       5.779   4.819  18.877  0.00  0.00    +0.000 A 
ATOM     28  C   UNL     1       6.859   5.589  18.451  0.00  0.00    +0.000 A 
ATOM     29  C   UNL     1       7.216   5.596  17.105  0.00  0.00    +0.000 A 
ATOM     30  C   UNL     1       6.499   4.818  16.189  0.00  0.00    +0.000 A 
ATOM     31  C   UNL     1       5.389   4.071  16.616  0.00  0.00    +0.000 A 
BRANCH  30  32
ATOM     32  C   UNL     1       6.988   4.786  14.785  0.00  0.00    +0.000 C 
ATOM     33  O   UNL     1       7.843   5.550  14.371  0.00  0.00    +0.000 OA
BRANCH  32  34
ATOM     34  O   UNL     1       6.383   3.868  14.005  0.00  0.00    +0.000 OA
ATOM     35  H   UNL     1       5.900   3.164  14.471  0.00  0.00    +0.000 HD
ENDBRANCH  32  34
ENDBRANCH  30  32
ENDBRANCH  25  26
ENDBRANCH   4  21
TORSDOF 9
ENDMDL
MODEL 4
REMARK VINA RESULT:      -9.1      0.272      1.098
REMARK  Name = 
REMARK  10 active torsions:
REMARK  status: ('A' for Active; 'I' for Inactive)
REMARK    1  A    between atoms: C_1  and  C_2
REMARK    2  A    between atoms: C_2  and  O_3
REMARK    3  A    between atoms: O_3  and  C_4
REMARK    4  A    between atoms: C_4  and  C_6
REMARK    5  A    between atoms: N_9  and  C_10
REMARK    6  A    between atoms: C_13  and  N_14
REMARK    7  A    between atoms: C_18  and  C_19
REMARK    8  A    between atoms: C_23  and  C_24
REMARK    9  A    between atoms: C_24  and  O_26
REMARK   10  A    between atoms: C_30  and  C_31
REMARK                            x       y       z     vdW  Elec       q    Type
REMARK                         _______ _______ _______ _____ _____    ______ ____
ROOT
ATOM      1  C   UNL     1       1.634   7.997  19.567  0.00  0.00    +0.000 A 
ATOM      2  C   UNL     1       2.018   7.536  18.297  0.00  0.00    +0.000 A 
ATOM      3  C   UNL     1       2.392   6.201  18.117  0.00  0.00    +0.000 A 
ATOM      4  C   UNL     1       2.323   5.312  19.197  0.00  0.00    +0.000 A 
ATOM      5  C   UNL     1       1.919   5.770  20.454  0.00  0.00    +0.000 A 
ATOM      6  C   UNL     1       1.542   7.097  20.628  0.00  0.00    +0.000 A 
ENDROOT
BRANCH   1  10
ATOM      7  C   UNL     1       0.598  11.346  20.423  0.00  0.00    +0.000 A 
ATOM      8  C   UNL     1       1.240  11.426  19.178  0.00  0.00    +0.000 A 
ATOM      9  N   UNL     1       1.750  10.258  18.794  0.00  0.00    +0.000 NA
ATOM     10  N   UNL     1       1.359   9.377  19.752  0.00  0.00    +0.000 N 
ATOM     11  C   UNL     1       0.749  10.023  20.809  0.00  0.00    +0.000 A 
BRANCH  11  12
ATOM     12  C   UNL     1       0.490   9.394  22.115  0.00  0.00    +0.000 C 
ATOM     13  F   UNL     1       0.034  10.277  23.037  0.00  0.00    +0.000 F 
ATOM     14  F   UNL     1      -0.429   8.402  22.042  0.00  0.00    +0.000 F 
ATOM     15  F   UNL     1       1.618   8.862  22.651  0.00  0.00    +0.000 F 
ENDBRANCH  11  12
BRANCH   7  16
ATOM     16  C   UNL     1      -0.059  12.403  21.153  0.00  0.00    +0.000 C 
ATOM     17  O   UNL     1       0.550  13.264  21.772  0.00  0.00    +0.000 OA
BRANCH  16  18
ATOM     18  O   UNL     1      -1.409  12.244  21.139  0.00  0.00    +0.000 OA
BRANCH  18  20
ATOM     19  C   UNL     1      -3.547  12.711  20.219  0.00  0.00    +0.000 C 
ATOM     20  C   UNL     1      -2.059  12.651  19.931  0.00  0.00    +0.000 C 
ENDBRANCH  18  20
ENDBRANCH  16  18
ENDBRANCH   7  16
ENDBRANCH   1  10
BRANCH   4  21
ATOM     21  N   UNL     1       2.632   3.941  19.006  0.00  0.00    +0.000 N 
ATOM     22  N   UNL     1       1.819   2.984  19.512  0.00  0.00    +0.000 NA
ATOM     23  N   UNL     1       2.168   1.822  18.984  0.00  0.00    +0.000 NA
ATOM     24  C   UNL     1       3.296   2.020  18.250  0.00  0.00    +0.000 A 
ATOM     25  C   UNL     1       3.678   3.353  18.288  0.00  0.00    +0.000 A 
BRANCH  25  26
ATOM     26  C   UNL     1       4.884   4.011  17.769  0.00  0.00    +0.000 A 
ATOM     27  C   UNL     1       5.214   3.946  16.401  0.00  0.00    +0.000 A 
ATOM     28  C   UNL     1       6.426   4.444  15.926  0.00  0.00    +0.000 A 
ATOM     29  C   UNL     1       7.300   5.086  16.798  0.00  0.00    +0.000 A 
ATOM     30  C   UNL     1       6.952   5.245  18.145  0.00  0.00    +0.000 A 
ATOM     31  C   UNL     1       5.745   4.711  18.627  0.00  0.00    +0.000 A 
BRANCH  30  32
ATOM     32  C   UNL     1       7.877   6.027  19.005  0.00  0.00    +0.000 C 
ATOM     33  O   UNL     1       8.288   7.132  18.693  0.00  0.00    +0.000 OA
BRANCH  32  34
ATOM     34  O   UNL     1       8.250   5.399  20.139  0.00  0.00    +0.000 OA
ATOM     35  H   UNL     1       9.156   5.574  20.445  0.00  0.00    +0.000 HD
ENDBRANCH  32  34
ENDBRANCH  30  32
ENDBRANCH  25  26
ENDBRANCH   4  21
TORSDOF 9
ENDMDL
MODEL 5
REMARK VINA RESULT:      -9.0      1.395      1.976
REMARK  Name = 
REMARK  10 active torsions:
REMARK  status: ('A' for Active; 'I' for Inactive)
REMARK    1  A    between atoms: C_1  and  C_2
REMARK    2  A    between atoms: C_2  and  O_3
REMARK    3  A    between atoms: O_3  and  C_4
REMARK    4  A    between atoms: C_4  and  C_6
REMARK    5  A    between atoms: N_9  and  C_10
REMARK    6  A    between atoms: C_13  and  N_14
REMARK    7  A    between atoms: C_18  and  C_19
REMARK    8  A    between atoms: C_23  and  C_24
REMARK    9  A    between atoms: C_24  and  O_26
REMARK   10  A    between atoms: C_30  and  C_31
REMARK                            x       y       z     vdW  Elec       q    Type
REMARK                         _______ _______ _______ _____ _____    ______ ____
ROOT
ATOM      1  C   UNL     1       1.708   7.980  19.512  0.00  0.00    +0.000 A 
ATOM      2  C   UNL     1       1.710   7.120  20.622  0.00  0.00    +0.000 A 
ATOM      3  C   UNL     1       2.000   5.762  20.458  0.00  0.00    +0.000 A 
ATOM      4  C   UNL     1       2.348   5.277  19.192  0.00  0.00    +0.000 A 
ATOM      5  C   UNL     1       2.367   6.141  18.094  0.00  0.00    +0.000 A 
ATOM      6  C   UNL     1       2.085   7.492  18.260  0.00  0.00    +0.000 A 
ENDROOT
BRANCH   1  10
ATOM      7  C   UNL     1       0.338  11.227  20.286  0.00  0.00    +0.000 A 
ATOM      8  C   UNL     1       1.086  11.373  19.107  0.00  0.00    +0.000 A 
ATOM      9  N   UNL     1       1.719  10.253  18.766  0.00  0.00    +0.000 NA
ATOM     10  N   UNL     1       1.310   9.333  19.679  0.00  0.00    +0.000 N 
ATOM     11  C   UNL     1       0.555   9.916  20.677  0.00  0.00    +0.000 A 
BRANCH  11  12
ATOM     12  C   UNL     1       0.225   9.252  21.949  0.00  0.00    +0.000 C 
ATOM     13  F   UNL     1       1.319   8.756  22.576  0.00  0.00    +0.000 F 
ATOM     14  F   UNL     1      -0.380  10.084  22.829  0.00  0.00    +0.000 F 
ATOM     15  F   UNL     1      -0.599   8.189  21.765  0.00  0.00    +0.000 F 
ENDBRANCH  11  12
BRANCH   7  16
ATOM     16  C   UNL     1      -0.465  12.221  20.956  0.00  0.00    +0.000 C 
ATOM     17  O   UNL     1       0.013  13.108  21.648  0.00  0.00    +0.000 OA
BRANCH  16  18
ATOM     18  O   UNL     1      -1.792  11.970  20.797  0.00  0.00    +0.000 OA
BRANCH  18  20
ATOM     19  C   UNL     1      -2.908  11.711  18.719  0.00  0.00    +0.000 C 
ATOM     20  C   UNL     1      -2.432  12.712  19.754  0.00  0.00    +0.000 C 
ENDBRANCH  18  20
ENDBRANCH  16  18
ENDBRANCH   7  16
ENDBRANCH   1  10
BRANCH   4  21
ATOM     21  N   UNL     1       2.713   3.915  19.032  0.00  0.00    +0.000 N 
ATOM     22  N   UNL     1       1.907   2.936  19.507  0.00  0.00    +0.000 NA
ATOM     23  N   UNL     1       2.321   1.782  19.009  0.00  0.00    +0.000 NA
ATOM     24  C   UNL     1       3.477   2.011  18.331  0.00  0.00    +0.000 A 
ATOM     25  C   UNL     1       3.812   3.356  18.373  0.00  0.00    +0.000 A 
BRANCH  25  26
ATOM     26  C   UNL     1       5.020   4.051  17.907  0.00  0.00    +0.000 A 
ATOM     27  C   UNL     1       5.809   4.808  18.795  0.00  0.00    +0.000 A 
ATOM     28  C   UNL     1       6.871   5.584  18.335  0.00  0.00    +0.000 A 
ATOM     29  C   UNL     1       7.214   5.557  16.985  0.00  0.00    +0.000 A 
ATOM     30  C   UNL     1       6.502   4.739  16.100  0.00  0.00    +0.000 A 
ATOM     31  C   UNL     1       5.410   3.986  16.561  0.00  0.00    +0.000 A 
BRANCH  30  32
ATOM     32  C   UNL     1       6.977   4.674  14.693  0.00  0.00    +0.000 C 
ATOM     33  O   UNL     1       7.722   5.511  14.213  0.00  0.00    +0.000 OA
BRANCH  32  34
ATOM     34  O   UNL     1       6.488   3.634  13.987  0.00  0.00    +0.000 OA
ATOM     35  H   UNL     1       5.815   3.852  13.319  0.00  0.00    +0.000 HD
ENDBRANCH  32  34
ENDBRANCH  30  32
ENDBRANCH  25  26
ENDBRANCH   4  21
TORSDOF 9
ENDMDL
MODEL 6
REMARK VINA RESULT:      -9.0      0.684      1.095
REMARK  Name = 
REMARK  10 active torsions:
REMARK  status: ('A' for Active; 'I' for Inactive)
REMARK    1  A    between atoms: C_1  and  C_2
REMARK    2  A    between atoms: C_2  and  O_3
REMARK    3  A    between atoms: O_3  and  C_4
REMARK    4  A    between atoms: C_4  and  C_6
REMARK    5  A    between atoms: N_9  and  C_10
REMARK    6  A    between atoms: C_13  and  N_14
REMARK    7  A    between atoms: C_18  and  C_19
REMARK    8  A    between atoms: C_23  and  C_24
REMARK    9  A    between atoms: C_24  and  O_26
REMARK   10  A    between atoms: C_30  and  C_31
REMARK                            x       y       z     vdW  Elec       q    Type
REMARK                         _______ _______ _______ _____ _____    ______ ____
ROOT
ATOM      1  C   UNL     1       1.655   8.029  19.589  0.00  0.00    +0.000 A 
ATOM      2  C   UNL     1       1.494   7.115  20.642  0.00  0.00    +0.000 A 
ATOM      3  C   UNL     1       1.727   5.753  20.433  0.00  0.00    +0.000 A 
ATOM      4  C   UNL     1       2.180   5.313  19.183  0.00  0.00    +0.000 A 
ATOM      5  C   UNL     1       2.360   6.229  18.143  0.00  0.00    +0.000 A 
ATOM      6  C   UNL     1       2.134   7.585  18.357  0.00  0.00    +0.000 A 
ENDROOT
BRANCH   1  10
ATOM      7  C   UNL     1       0.460  11.314  20.485  0.00  0.00    +0.000 A 
ATOM      8  C   UNL     1       1.093  11.439  19.239  0.00  0.00    +0.000 A 
ATOM      9  N   UNL     1       1.657  10.302  18.840  0.00  0.00    +0.000 NA
ATOM     10  N   UNL     1       1.313   9.392  19.791  0.00  0.00    +0.000 N 
ATOM     11  C   UNL     1       0.676   9.996  20.856  0.00  0.00    +0.000 A 
BRANCH  11  12
ATOM     12  C   UNL     1       0.454   9.341  22.156  0.00  0.00    +0.000 C 
ATOM     13  F   UNL     1       0.054  10.211  23.116  0.00  0.00    +0.000 F 
ATOM     14  F   UNL     1      -0.491   8.372  22.096  0.00  0.00    +0.000 F 
ATOM     15  F   UNL     1       1.588   8.771  22.635  0.00  0.00    +0.000 F 
ENDBRANCH  11  12
BRANCH   7  16
ATOM     16  C   UNL     1      -0.245  12.330  21.229  0.00  0.00    +0.000 C 
ATOM     17  O   UNL     1       0.324  13.192  21.884  0.00  0.00    +0.000 OA
BRANCH  16  18
ATOM     18  O   UNL     1      -1.589  12.131  21.181  0.00  0.00    +0.000 OA
BRANCH  18  20
ATOM     19  C   UNL     1      -3.622  13.062  21.974  0.00  0.00    +0.000 C 
ATOM     20  C   UNL     1      -2.296  12.449  22.383  0.00  0.00    +0.000 C 
ENDBRANCH  18  20
ENDBRANCH  16  18
ENDBRANCH   7  16
ENDBRANCH   1  10
BRANCH   4  21
ATOM     21  N   UNL     1       2.486   3.942  18.984  0.00  0.00    +0.000 N 
ATOM     22  N   UNL     1       1.630   2.986  19.414  0.00  0.00    +0.000 NA
ATOM     23  N   UNL     1       2.001   1.831  18.885  0.00  0.00    +0.000 NA
ATOM     24  C   UNL     1       3.178   2.030  18.232  0.00  0.00    +0.000 A 
ATOM     25  C   UNL     1       3.571   3.356  18.324  0.00  0.00    +0.000 A 
BRANCH  25  26
ATOM     26  C   UNL     1       4.817   4.010  17.900  0.00  0.00    +0.000 A 
ATOM     27  C   UNL     1       5.186   4.055  16.541  0.00  0.00    +0.000 A 
ATOM     28  C   UNL     1       6.429   4.544  16.147  0.00  0.00    +0.000 A 
ATOM     29  C   UNL     1       7.300   5.071  17.098  0.00  0.00    +0.000 A 
ATOM     30  C   UNL     1       6.915   5.121  18.444  0.00  0.00    +0.000 A 
ATOM     31  C   UNL     1       5.675   4.595  18.842  0.00  0.00    +0.000 A 
BRANCH  30  32
ATOM     32  C   UNL     1       7.842   5.786  19.397  0.00  0.00    +0.000 C 
ATOM     33  O   UNL     1       8.067   5.343  20.510  0.00  0.00    +0.000 OA
BRANCH  32  34
ATOM     34  O   UNL     1       8.382   6.935  18.941  0.00  0.00    +0.000 OA
ATOM     35  H   UNL     1       7.936   7.754  19.218  0.00  0.00    +0.000 HD
ENDBRANCH  32  34
ENDBRANCH  30  32
ENDBRANCH  25  26
ENDBRANCH   4  21
TORSDOF 9
ENDMDL
MODEL 7
REMARK VINA RESULT:      -9.0      0.730      1.603
REMARK  Name = 
REMARK  10 active torsions:
REMARK  status: ('A' for Active; 'I' for Inactive)
REMARK    1  A    between atoms: C_1  and  C_2
REMARK    2  A    between atoms: C_2  and  O_3
REMARK    3  A    between atoms: O_3  and  C_4
REMARK    4  A    between atoms: C_4  and  C_6
REMARK    5  A    between atoms: N_9  and  C_10
REMARK    6  A    between atoms: C_13  and  N_14
REMARK    7  A    between atoms: C_18  and  C_19
REMARK    8  A    between atoms: C_23  and  C_24
REMARK    9  A    between atoms: C_24  and  O_26
REMARK   10  A    between atoms: C_30  and  C_31
REMARK                            x       y       z     vdW  Elec       q    Type
REMARK                         _______ _______ _______ _____ _____    ______ ____
ROOT
ATOM      1  C   UNL     1       1.612   7.929  19.503  0.00  0.00    +0.000 A 
ATOM      2  C   UNL     1       1.862   7.418  18.219  0.00  0.00    +0.000 A 
ATOM      3  C   UNL     1       2.262   6.088  18.058  0.00  0.00    +0.000 A 
ATOM      4  C   UNL     1       2.353   5.253  19.178  0.00  0.00    +0.000 A 
ATOM      5  C   UNL     1       2.082   5.760  20.452  0.00  0.00    +0.000 A 
ATOM      6  C   UNL     1       1.678   7.082  20.608  0.00  0.00    +0.000 A 
ENDROOT
BRANCH   1  10
ATOM      7  C   UNL     1       0.430  11.268  20.196  0.00  0.00    +0.000 A 
ATOM      8  C   UNL     1       1.318  11.368  19.113  0.00  0.00    +0.000 A 
ATOM      9  N   UNL     1       1.892  10.204  18.819  0.00  0.00    +0.000 NA
ATOM     10  N   UNL     1       1.308   9.308  19.657  0.00  0.00    +0.000 N 
ATOM     11  C   UNL     1       0.494   9.937  20.577  0.00  0.00    +0.000 A 
BRANCH  11  12
ATOM     12  C   UNL     1      -0.032   9.284  21.787  0.00  0.00    +0.000 C 
ATOM     13  F   UNL     1       0.950   8.887  22.633  0.00  0.00    +0.000 F 
ATOM     14  F   UNL     1      -0.852  10.093  22.501  0.00  0.00    +0.000 F 
ATOM     15  F   UNL     1      -0.731   8.159  21.491  0.00  0.00    +0.000 F 
ENDBRANCH  11  12
BRANCH   7  16
ATOM     16  C   UNL     1      -0.360  12.315  20.796  0.00  0.00    +0.000 C 
ATOM     17  O   UNL     1      -1.422  12.700  20.329  0.00  0.00    +0.000 OA
BRANCH  16  18
ATOM     18  O   UNL     1       0.280  12.865  21.862  0.00  0.00    +0.000 OA
BRANCH  18  20
ATOM     19  C   UNL     1      -1.183  13.824  23.465  0.00  0.00    +0.000 C 
ATOM     20  C   UNL     1      -0.245  14.117  22.310  0.00  0.00    +0.000 C 
ENDBRANCH  18  20
ENDBRANCH  16  18
ENDBRANCH   7  16
ENDBRANCH   1  10
BRANCH   4  21
ATOM     21  N   UNL     1       2.690   3.885  19.015  0.00  0.00    +0.000 N 
ATOM     22  N   UNL     1       1.897   2.922  19.542  0.00  0.00    +0.000 NA
ATOM     23  N   UNL     1       2.268   1.757  19.037  0.00  0.00    +0.000 NA
ATOM     24  C   UNL     1       3.391   1.962  18.298  0.00  0.00    +0.000 A 
ATOM     25  C   UNL     1       3.746   3.303  18.308  0.00  0.00    +0.000 A 
BRANCH  25  26
ATOM     26  C   UNL     1       4.939   3.974  17.773  0.00  0.00    +0.000 A 
ATOM     27  C   UNL     1       5.258   3.902  16.403  0.00  0.00    +0.000 A 
ATOM     28  C   UNL     1       6.459   4.413  15.914  0.00  0.00    +0.000 A 
ATOM     29  C   UNL     1       7.331   5.076  16.773  0.00  0.00    +0.000 A 
ATOM     30  C   UNL     1       6.990   5.241  18.122  0.00  0.00    +0.000 A 
ATOM     31  C   UNL     1       5.796   4.694  18.618  0.00  0.00    +0.000 A 
BRANCH  30  32
ATOM     32  C   UNL     1       7.911   6.045  18.968  0.00  0.00    +0.000 C 
ATOM     33  O   UNL     1       8.275   7.166  18.659  0.00  0.00    +0.000 OA
BRANCH  32  34
ATOM     34  O   UNL     1       8.335   5.416  20.083  0.00  0.00    +0.000 OA
ATOM     35  H   UNL     1       8.789   4.567  19.947  0.00  0.00    +0.000 HD
ENDBRANCH  32  34
ENDBRANCH  30  32
ENDBRANCH  25  26
ENDBRANCH   4  21
TORSDOF 9
ENDMDL
MODEL 8
REMARK VINA RESULT:      -9.0      1.547      2.224
REMARK  Name = 
REMARK  10 active torsions:
REMARK  status: ('A' for Active; 'I' for Inactive)
REMARK    1  A    between atoms: C_1  and  C_2
REMARK    2  A    between atoms: C_2  and  O_3
REMARK    3  A    between atoms: O_3  and  C_4
REMARK    4  A    between atoms: C_4  and  C_6
REMARK    5  A    between atoms: N_9  and  C_10
REMARK    6  A    between atoms: C_13  and  N_14
REMARK    7  A    between atoms: C_18  and  C_19
REMARK    8  A    between atoms: C_23  and  C_24
REMARK    9  A    between atoms: C_24  and  O_26
REMARK   10  A    between atoms: C_30  and  C_31
REMARK                            x       y       z     vdW  Elec       q    Type
REMARK                         _______ _______ _______ _____ _____    ______ ____
ROOT
ATOM      1  C   UNL     1       1.696   7.990  19.559  0.00  0.00    +0.000 A 
ATOM      2  C   UNL     1       1.654   7.108  20.651  0.00  0.00    +0.000 A 
ATOM      3  C   UNL     1       1.943   5.752  20.470  0.00  0.00    +0.000 A 
ATOM      4  C   UNL     1       2.333   5.290  19.208  0.00  0.00    +0.000 A 
ATOM      5  C   UNL     1       2.395   6.175  18.128  0.00  0.00    +0.000 A 
ATOM      6  C   UNL     1       2.114   7.525  18.312  0.00  0.00    +0.000 A 
ENDROOT
BRANCH   1  10
ATOM      7  C   UNL     1       0.306  11.228  20.337  0.00  0.00    +0.000 A 
ATOM      8  C   UNL     1       1.132  11.399  19.216  0.00  0.00    +0.000 A 
ATOM      9  N   UNL     1       1.776  10.284  18.884  0.00  0.00    +0.000 NA
ATOM     10  N   UNL     1       1.300   9.341  19.740  0.00  0.00    +0.000 N 
ATOM     11  C   UNL     1       0.485   9.903  20.702  0.00  0.00    +0.000 A 
BRANCH  11  12
ATOM     12  C   UNL     1       0.065   9.206  21.930  0.00  0.00    +0.000 C 
ATOM     13  F   UNL     1      -0.695   8.114  21.674  0.00  0.00    +0.000 F 
ATOM     14  F   UNL     1       1.116   8.779  22.671  0.00  0.00    +0.000 F 
ATOM     15  F   UNL     1      -0.696   9.998  22.725  0.00  0.00    +0.000 F 
ENDBRANCH  11  12
BRANCH   7  16
ATOM     16  C   UNL     1      -0.531  12.210  20.982  0.00  0.00    +0.000 C 
ATOM     17  O   UNL     1      -1.664  12.471  20.607  0.00  0.00    +0.000 OA
BRANCH  16  18
ATOM     18  O   UNL     1       0.143  12.855  21.972  0.00  0.00    +0.000 OA
BRANCH  18  20
ATOM     19  C   UNL     1      -0.342  15.051  22.731  0.00  0.00    +0.000 C 
ATOM     20  C   UNL     1       0.432  14.233  21.715  0.00  0.00    +0.000 C 
ENDBRANCH  18  20
ENDBRANCH  16  18
ENDBRANCH   7  16
ENDBRANCH   1  10
BRANCH   4  21
ATOM     21  N   UNL     1       2.695   3.930  19.032  0.00  0.00    +0.000 N 
ATOM     22  N   UNL     1       1.891   2.947  19.502  0.00  0.00    +0.000 NA
ATOM     23  N   UNL     1       2.301   1.797  18.991  0.00  0.00    +0.000 NA
ATOM     24  C   UNL     1       3.455   2.032  18.310  0.00  0.00    +0.000 A 
ATOM     25  C   UNL     1       3.791   3.376  18.364  0.00  0.00    +0.000 A 
BRANCH  25  26
ATOM     26  C   UNL     1       4.998   4.074  17.899  0.00  0.00    +0.000 A 
ATOM     27  C   UNL     1       5.774   4.848  18.784  0.00  0.00    +0.000 A 
ATOM     28  C   UNL     1       6.834   5.626  18.323  0.00  0.00    +0.000 A 
ATOM     29  C   UNL     1       7.188   5.586  16.977  0.00  0.00    +0.000 A 
ATOM     30  C   UNL     1       6.488   4.752  16.095  0.00  0.00    +0.000 A 
ATOM     31  C   UNL     1       5.399   3.996  16.557  0.00  0.00    +0.000 A 
BRANCH  30  32
ATOM     32  C   UNL     1       6.975   4.674  14.693  0.00  0.00    +0.000 C 
ATOM     33  O   UNL     1       7.748   5.489  14.220  0.00  0.00    +0.000 OA
BRANCH  32  34
ATOM     34  O   UNL     1       6.464   3.649  13.981  0.00  0.00    +0.000 OA
ATOM     35  H   UNL     1       6.619   3.677  13.022  0.00  0.00    +0.000 HD
ENDBRANCH  32  34
ENDBRANCH  30  32
ENDBRANCH  25  26
ENDBRANCH   4  21
TORSDOF 9
ENDMDL
MODEL 9
REMARK VINA RESULT:      -9.0      3.035      4.287
REMARK  Name = 
REMARK  10 active torsions:
REMARK  status: ('A' for Active; 'I' for Inactive)
REMARK    1  A    between atoms: C_1  and  C_2
REMARK    2  A    between atoms: C_2  and  O_3
REMARK    3  A    between atoms: O_3  and  C_4
REMARK    4  A    between atoms: C_4  and  C_6
REMARK    5  A    between atoms: N_9  and  C_10
REMARK    6  A    between atoms: C_13  and  N_14
REMARK    7  A    between atoms: C_18  and  C_19
REMARK    8  A    between atoms: C_23  and  C_24
REMARK    9  A    between atoms: C_24  and  O_26
REMARK   10  A    between atoms: C_30  and  C_31
REMARK                            x       y       z     vdW  Elec       q    Type
REMARK                         _______ _______ _______ _____ _____    ______ ____
ROOT
ATOM      1  C   UNL     1       1.130   9.429  19.775  0.00  0.00    +0.000 A 
ATOM      2  C   UNL     1       1.452   8.180  20.331  0.00  0.00    +0.000 A 
ATOM      3  C   UNL     1       2.222   7.265  19.606  0.00  0.00    +0.000 A 
ATOM      4  C   UNL     1       2.721   7.624  18.348  0.00  0.00    +0.000 A 
ATOM      5  C   UNL     1       2.416   8.876  17.807  0.00  0.00    +0.000 A 
ATOM      6  C   UNL     1       1.656   9.787  18.534  0.00  0.00    +0.000 A 
ENDROOT
BRANCH   1  10
ATOM      7  C   UNL     1      -1.254  11.799  21.086  0.00  0.00    +0.000 A 
ATOM      8  C   UNL     1      -0.370  11.491  22.132  0.00  0.00    +0.000 A 
ATOM      9  N   UNL     1       0.510  10.552  21.794  0.00  0.00    +0.000 NA
ATOM     10  N   UNL     1       0.262  10.303  20.480  0.00  0.00    +0.000 N 
ATOM     11  C   UNL     1      -0.870  10.965  20.048  0.00  0.00    +0.000 A 
BRANCH  11  12
ATOM     12  C   UNL     1      -1.561  10.666  18.783  0.00  0.00    +0.000 C 
ATOM     13  F   UNL     1      -2.858  11.060  18.792  0.00  0.00    +0.000 F 
ATOM     14  F   UNL     1      -0.982  11.270  17.718  0.00  0.00    +0.000 F 
ATOM     15  F   UNL     1      -1.589   9.334  18.525  0.00  0.00    +0.000 F 
ENDBRANCH  11  12
BRANCH   7  16
ATOM     16  C   UNL     1      -2.335  12.753  21.089  0.00  0.00    +0.000 C 
ATOM     17  O   UNL     1      -2.326  13.774  20.416  0.00  0.00    +0.000 OA
BRANCH  16  18
ATOM     18  O   UNL     1      -3.287  12.415  22.000  0.00  0.00    +0.000 OA
BRANCH  18  20
ATOM     19  C   UNL     1      -5.533  12.602  21.257  0.00  0.00    +0.000 C 
ATOM     20  C   UNL     1      -4.426  13.280  22.042  0.00  0.00    +0.000 C 
ENDBRANCH  18  20
ENDBRANCH  16  18
ENDBRANCH   7  16
ENDBRANCH   1  10
BRANCH   4  21
ATOM     21  N   UNL     1       3.560   6.729  17.638  0.00  0.00    +0.000 N 
ATOM     22  N   UNL     1       4.489   7.207  16.777  0.00  0.00    +0.000 NA
ATOM     23  N   UNL     1       5.303   6.215  16.453  0.00  0.00    +0.000 NA
ATOM     24  C   UNL     1       4.805   5.073  16.998  0.00  0.00    +0.000 A 
ATOM     25  C   UNL     1       3.646   5.335  17.711  0.00  0.00    +0.000 A 
BRANCH  25  26
ATOM     26  C   UNL     1       2.695   4.416  18.352  0.00  0.00    +0.000 A 
ATOM     27  C   UNL     1       1.524   4.004  17.685  0.00  0.00    +0.000 A 
ATOM     28  C   UNL     1       0.550   3.250  18.337  0.00  0.00    +0.000 A 
ATOM     29  C   UNL     1       0.762   2.828  19.647  0.00  0.00    +0.000 A 
ATOM     30  C   UNL     1       1.960   3.148  20.298  0.00  0.00    +0.000 A 
ATOM     31  C   UNL     1       2.924   3.937  19.650  0.00  0.00    +0.000 A 
BRANCH  30  32
ATOM     32  C   UNL     1       2.173   2.584  21.657  0.00  0.00    +0.000 C 
ATOM     33  O   UNL     1       1.284   2.522  22.488  0.00  0.00    +0.000 OA
BRANCH  32  34
ATOM     34  O   UNL     1       3.437   2.182  21.901  0.00  0.00    +0.000 OA
ATOM     35  H   UNL     1       3.751   1.423  21.381  0.00  0.00    +0.000 HD
ENDBRANCH  32  34
ENDBRANCH  30  32
ENDBRANCH  25  26
ENDBRANCH   4  21
TORSDOF 9
ENDMDL
