MODEL 1
REMARK VINA RESULT:      -7.2      0.000      0.000
REMARK  Name = 
REMARK  5 active torsions:
REMARK  status: ('A' for Active; 'I' for Inactive)
REMARK    1  A    between atoms: C_1  and  C_2
REMARK    2  A    between atoms: C_4  and  C_5
REMARK    3  A    between atoms: N_8  and  C_9
REMARK    4  A    between atoms: C_10  and  C_11
REMARK    5  A    between atoms: C_14  and  C_15
REMARK                            x       y       z     vdW  Elec       q    Type
REMARK                         _______ _______ _______ _____ _____    ______ ____
ROOT
ATOM      1  C   UNL     1      -0.717  12.963  19.634  0.00  0.00    +0.000 A 
ATOM      2  C   UNL     1      -0.419  14.241  19.132  0.00  0.00    +0.000 A 
ATOM      3  N   UNL     1       0.751  14.282  18.507  0.00  0.00    +0.000 NA
ATOM      4  N   UNL     1       1.248  13.039  18.679  0.00  0.00    +0.000 N 
ATOM      5  C   UNL     1       2.590  12.814  18.191  0.00  0.00    +0.000 C 
ATOM      6  C   UNL     1       0.394  12.167  19.341  0.00  0.00    +0.000 A 
ENDROOT
BRANCH   1  10
ATOM      7  C   UNL     1      -3.540  12.731  23.621  0.00  0.00    +0.000 C 
ATOM      8  C   UNL     1      -3.087  12.638  22.214  0.00  0.00    +0.000 A 
ATOM      9  N   UNL     1      -1.868  12.862  21.773  0.00  0.00    +0.000 NA
ATOM     10  C   UNL     1      -1.919  12.670  20.411  0.00  0.00    +0.000 A 
ATOM     11  C   UNL     1      -3.188  12.279  20.027  0.00  0.00    +0.000 A 
ATOM     12  C   UNL     1      -3.858  11.910  18.808  0.00  0.00    +0.000 A 
ATOM     13  N   UNL     1      -3.207  11.742  17.589  0.00  0.00    +0.000 N 
ATOM     14  C   UNL     1      -3.962  11.296  16.447  0.00  0.00    +0.000 C 
ATOM     15  C   UNL     1      -3.023  10.109  16.305  0.00  0.00    +0.000 C 
ATOM     16  C   UNL     1      -2.249  10.671  17.487  0.00  0.00    +0.000 C 
ATOM     17  N   UNL     1      -5.156  11.764  18.891  0.00  0.00    +0.000 NA
ATOM     18  C   UNL     1      -5.802  11.918  20.084  0.00  0.00    +0.000 A 
ATOM     19  N   UNL     1      -5.261  12.156  21.235  0.00  0.00    +0.000 NA
ATOM     20  N   UNL     1      -3.927  12.329  21.171  0.00  0.00    +0.000 N 
ENDBRANCH   1  10
BRANCH   6  21
ATOM     21  C   UNL     1       0.684  10.752  19.680  0.00  0.00    +0.000 A 
ATOM     22  C   UNL     1       1.113   9.827  18.717  0.00  0.00    +0.000 A 
ATOM     23  C   UNL     1       1.484   8.521  19.064  0.00  0.00    +0.000 A 
ATOM     24  C   UNL     1       1.485   8.110  20.399  0.00  0.00    +0.000 A 
ATOM     25  C   UNL     1       1.028   9.006  21.368  0.00  0.00    +0.000 A 
ATOM     26  C   UNL     1       0.616  10.299  21.007  0.00  0.00    +0.000 A 
BRANCH  24  27
ATOM     27  C   UNL     1       1.968   6.733  20.771  0.00  0.00    +0.000 C 
ATOM     28  F   UNL     1       0.969   5.803  20.777  0.00  0.00    +0.000 F 
ATOM     29  F   UNL     1       2.914   6.246  19.919  0.00  0.00    +0.000 F 
ENDBRANCH  24  27
ENDBRANCH   6  21
TORSDOF 3
ENDMDL
MODEL 2
REMARK VINA RESULT:      -7.2      2.242      5.148
REMARK  Name = 
REMARK  5 active torsions:
REMARK  status: ('A' for Active; 'I' for Inactive)
REMARK    1  A    between atoms: C_1  and  C_2
REMARK    2  A    between atoms: C_4  and  C_5
REMARK    3  A    between atoms: N_8  and  C_9
REMARK    4  A    between atoms: C_10  and  C_11
REMARK    5  A    between atoms: C_14  and  C_15
REMARK                            x       y       z     vdW  Elec       q    Type
REMARK                         _______ _______ _______ _____ _____    ______ ____
ROOT
ATOM      1  C   UNL     1       0.046  12.242  18.688  0.00  0.00    +0.000 A 
ATOM      2  C   UNL     1      -1.087  12.849  18.120  0.00  0.00    +0.000 A 
ATOM      3  N   UNL     1      -1.939  11.965  17.617  0.00  0.00    +0.000 NA
ATOM      4  N   UNL     1      -1.311  10.783  17.788  0.00  0.00    +0.000 N 
ATOM      5  C   UNL     1      -1.964   9.625  17.222  0.00  0.00    +0.000 C 
ATOM      6  C   UNL     1      -0.099  10.871  18.459  0.00  0.00    +0.000 A 
ENDROOT
BRANCH   1  10
ATOM      7  C   UNL     1       4.459  14.346  18.789  0.00  0.00    +0.000 C 
ATOM      8  C   UNL     1       3.101  13.913  19.190  0.00  0.00    +0.000 A 
ATOM      9  N   UNL     1       2.313  13.105  18.516  0.00  0.00    +0.000 NA
ATOM     10  C   UNL     1       1.158  12.999  19.258  0.00  0.00    +0.000 A 
ATOM     11  C   UNL     1       1.270  13.726  20.429  0.00  0.00    +0.000 A 
ATOM     12  C   UNL     1       0.464  13.990  21.592  0.00  0.00    +0.000 A 
ATOM     13  N   UNL     1      -0.750  13.359  21.849  0.00  0.00    +0.000 N 
ATOM     14  C   UNL     1      -1.438  13.641  23.083  0.00  0.00    +0.000 C 
ATOM     15  C   UNL     1      -1.406  12.160  23.425  0.00  0.00    +0.000 C 
ATOM     16  C   UNL     1      -0.726  11.938  22.083  0.00  0.00    +0.000 C 
ATOM     17  N   UNL     1       0.923  14.903  22.410  0.00  0.00    +0.000 NA
ATOM     18  C   UNL     1       2.117  15.520  22.169  0.00  0.00    +0.000 A 
ATOM     19  N   UNL     1       2.939  15.272  21.201  0.00  0.00    +0.000 NA
ATOM     20  N   UNL     1       2.478  14.349  20.335  0.00  0.00    +0.000 N 
ENDBRANCH   1  10
BRANCH   6  21
ATOM     21  C   UNL     1       0.808   9.738  18.771  0.00  0.00    +0.000 A 
ATOM     22  C   UNL     1       0.852   9.145  20.041  0.00  0.00    +0.000 A 
ATOM     23  C   UNL     1       1.634   8.012  20.298  0.00  0.00    +0.000 A 
ATOM     24  C   UNL     1       2.363   7.401  19.275  0.00  0.00    +0.000 A 
ATOM     25  C   UNL     1       2.360   7.997  18.012  0.00  0.00    +0.000 A 
ATOM     26  C   UNL     1       1.608   9.159  17.774  0.00  0.00    +0.000 A 
BRANCH  24  27
ATOM     27  C   UNL     1       3.131   6.133  19.541  0.00  0.00    +0.000 C 
ATOM     28  F   UNL     1       2.626   5.413  20.584  0.00  0.00    +0.000 F 
ATOM     29  F   UNL     1       3.143   5.278  18.479  0.00  0.00    +0.000 F 
ENDBRANCH  24  27
ENDBRANCH   6  21
TORSDOF 3
ENDMDL
MODEL 3
REMARK VINA RESULT:      -7.1      7.368      9.200
REMARK  Name = 
REMARK  5 active torsions:
REMARK  status: ('A' for Active; 'I' for Inactive)
REMARK    1  A    between atoms: C_1  and  C_2
REMARK    2  A    between atoms: C_4  and  C_5
REMARK    3  A    between atoms: N_8  and  C_9
REMARK    4  A    between atoms: C_10  and  C_11
REMARK    5  A    between atoms: C_14  and  C_15
REMARK                            x       y       z     vdW  Elec       q    Type
REMARK                         _______ _______ _______ _____ _____    ______ ____
ROOT
ATOM      1  C   UNL     1       8.534  14.841  20.356  0.00  0.00    +0.000 A 
ATOM      2  C   UNL     1       9.101  16.126  20.366  0.00  0.00    +0.000 A 
ATOM      3  N   UNL     1      10.029  16.279  19.429  0.00  0.00    +0.000 NA
ATOM      4  N   UNL     1      10.118  15.057  18.865  0.00  0.00    +0.000 N 
ATOM      5  C   UNL     1      11.149  14.887  17.867  0.00  0.00    +0.000 C 
ATOM      6  C   UNL     1       9.215  14.128  19.365  0.00  0.00    +0.000 A 
ENDROOT
BRANCH   1  10
ATOM      7  C   UNL     1       6.853  12.745  24.443  0.00  0.00    +0.000 C 
ATOM      8  C   UNL     1       6.898  13.483  23.160  0.00  0.00    +0.000 A 
ATOM      9  N   UNL     1       7.955  13.650  22.395  0.00  0.00    +0.000 NA
ATOM     10  C   UNL     1       7.530  14.403  21.324  0.00  0.00    +0.000 A 
ATOM     11  C   UNL     1       6.176  14.660  21.423  0.00  0.00    +0.000 A 
ATOM     12  C   UNL     1       5.167  15.335  20.649  0.00  0.00    +0.000 A 
ATOM     13  N   UNL     1       5.388  15.851  19.375  0.00  0.00    +0.000 N 
ATOM     14  C   UNL     1       4.288  16.440  18.657  0.00  0.00    +0.000 C 
ATOM     15  C   UNL     1       4.514  15.452  17.524  0.00  0.00    +0.000 C 
ATOM     16  C   UNL     1       5.693  14.918  18.321  0.00  0.00    +0.000 C 
ATOM     17  N   UNL     1       4.002  15.475  21.228  0.00  0.00    +0.000 NA
ATOM     18  C   UNL     1       3.774  14.964  22.473  0.00  0.00    +0.000 A 
ATOM     19  N   UNL     1       4.596  14.267  23.189  0.00  0.00    +0.000 NA
ATOM     20  N   UNL     1       5.810  14.127  22.623  0.00  0.00    +0.000 N 
ENDBRANCH   1  10
BRANCH   6  21
ATOM     21  C   UNL     1       9.099  12.710  18.943  0.00  0.00    +0.000 A 
ATOM     22  C   UNL     1       9.595  11.656  19.723  0.00  0.00    +0.000 A 
ATOM     23  C   UNL     1       9.388  10.316  19.367  0.00  0.00    +0.000 A 
ATOM     24  C   UNL     1       8.632   9.985  18.240  0.00  0.00    +0.000 A 
ATOM     25  C   UNL     1       8.159  11.022  17.432  0.00  0.00    +0.000 A 
ATOM     26  C   UNL     1       8.408  12.361  17.771  0.00  0.00    +0.000 A 
BRANCH  24  27
ATOM     27  C   UNL     1       8.343   8.544  17.915  0.00  0.00    +0.000 C 
ATOM     28  F   UNL     1       8.571   7.704  18.966  0.00  0.00    +0.000 F 
ATOM     29  F   UNL     1       7.049   8.324  17.547  0.00  0.00    +0.000 F 
ENDBRANCH  24  27
ENDBRANCH   6  21
TORSDOF 3
ENDMDL
MODEL 4
REMARK VINA RESULT:      -7.0      2.464      4.846
REMARK  Name = 
REMARK  5 active torsions:
REMARK  status: ('A' for Active; 'I' for Inactive)
REMARK    1  A    between atoms: C_1  and  C_2
REMARK    2  A    between atoms: C_4  and  C_5
REMARK    3  A    between atoms: N_8  and  C_9
REMARK    4  A    between atoms: C_10  and  C_11
REMARK    5  A    between atoms: C_14  and  C_15
REMARK                            x       y       z     vdW  Elec       q    Type
REMARK                         _______ _______ _______ _____ _____    ______ ____
ROOT
ATOM      1  C   UNL     1      -3.645  13.936  21.278  0.00  0.00    +0.000 A 
ATOM      2  C   UNL     1      -3.993  15.242  21.657  0.00  0.00    +0.000 A 
ATOM      3  N   UNL     1      -3.055  15.825  22.393  0.00  0.00    +0.000 NA
ATOM      4  N   UNL     1      -2.131  14.856  22.558  0.00  0.00    +0.000 N 
ATOM      5  C   UNL     1      -1.022  15.171  23.429  0.00  0.00    +0.000 C 
ATOM      6  C   UNL     1      -2.413  13.675  21.883  0.00  0.00    +0.000 A 
ENDROOT
BRANCH   1  10
ATOM      7  C   UNL     1      -5.069  11.192  17.487  0.00  0.00    +0.000 C 
ATOM      8  C   UNL     1      -5.051  11.858  18.810  0.00  0.00    +0.000 A 
ATOM      9  N   UNL     1      -4.156  12.724  19.232  0.00  0.00    +0.000 NA
ATOM     10  C   UNL     1      -4.533  13.062  20.512  0.00  0.00    +0.000 A 
ATOM     11  C   UNL     1      -5.706  12.417  20.855  0.00  0.00    +0.000 A 
ATOM     12  C   UNL     1      -6.596  12.368  21.984  0.00  0.00    +0.000 A 
ATOM     13  N   UNL     1      -6.477  13.195  23.098  0.00  0.00    +0.000 N 
ATOM     14  C   UNL     1      -7.468  13.117  24.139  0.00  0.00    +0.000 C 
ATOM     15  C   UNL     1      -7.763  14.597  23.954  0.00  0.00    +0.000 C 
ATOM     16  C   UNL     1      -6.666  14.610  22.901  0.00  0.00    +0.000 C 
ATOM     17  N   UNL     1      -7.538  11.460  21.932  0.00  0.00    +0.000 NA
ATOM     18  C   UNL     1      -7.667  10.650  20.840  0.00  0.00    +0.000 A 
ATOM     19  N   UNL     1      -6.969  10.696  19.752  0.00  0.00    +0.000 NA
ATOM     20  N   UNL     1      -5.980  11.611  19.791  0.00  0.00    +0.000 N 
ENDBRANCH   1  10
BRANCH   6  21
ATOM     21  C   UNL     1      -1.584  12.444  21.896  0.00  0.00    +0.000 A 
ATOM     22  C   UNL     1      -1.538  11.586  23.003  0.00  0.00    +0.000 A 
ATOM     23  C   UNL     1      -0.836  10.375  22.968  0.00  0.00    +0.000 A 
ATOM     24  C   UNL     1      -0.194   9.955  21.801  0.00  0.00    +0.000 A 
ATOM     25  C   UNL     1      -0.198  10.812  20.698  0.00  0.00    +0.000 A 
ATOM     26  C   UNL     1      -0.867  12.046  20.756  0.00  0.00    +0.000 A 
BRANCH  24  27
ATOM     27  C   UNL     1       0.485   8.612  21.746  0.00  0.00    +0.000 C 
ATOM     28  F   UNL     1      -0.381   7.588  21.489  0.00  0.00    +0.000 F 
ATOM     29  F   UNL     1       1.442   8.532  20.780  0.00  0.00    +0.000 F 
ENDBRANCH  24  27
ENDBRANCH   6  21
TORSDOF 3
ENDMDL
MODEL 5
REMARK VINA RESULT:      -7.0      1.448      1.926
REMARK  Name = 
REMARK  5 active torsions:
REMARK  status: ('A' for Active; 'I' for Inactive)
REMARK    1  A    between atoms: C_1  and  C_2
REMARK    2  A    between atoms: C_4  and  C_5
REMARK    3  A    between atoms: N_8  and  C_9
REMARK    4  A    between atoms: C_10  and  C_11
REMARK    5  A    between atoms: C_14  and  C_15
REMARK                            x       y       z     vdW  Elec       q    Type
REMARK                         _______ _______ _______ _____ _____    ______ ____
ROOT
ATOM      1  C   UNL     1      -2.233  13.776  20.824  0.00  0.00    +0.000 A 
ATOM      2  C   UNL     1      -2.184  15.134  20.469  0.00  0.00    +0.000 A 
ATOM      3  N   UNL     1      -1.095  15.439  19.775  0.00  0.00    +0.000 NA
ATOM      4  N   UNL     1      -0.396  14.285  19.754  0.00  0.00    +0.000 N 
ATOM      5  C   UNL     1       0.916  14.343  19.151  0.00  0.00    +0.000 C 
ATOM      6  C   UNL     1      -1.042  13.214  20.357  0.00  0.00    +0.000 A 
ENDROOT
BRANCH   1  10
ATOM      7  C   UNL     1      -4.553  12.498  24.935  0.00  0.00    +0.000 C 
ATOM      8  C   UNL     1      -4.252  12.708  23.500  0.00  0.00    +0.000 A 
ATOM      9  N   UNL     1      -3.122  13.160  23.002  0.00  0.00    +0.000 NA
ATOM     10  C   UNL     1      -3.302  13.200  21.637  0.00  0.00    +0.000 A 
ATOM     11  C   UNL     1      -4.555  12.721  21.302  0.00  0.00    +0.000 A 
ATOM     12  C   UNL     1      -5.311  12.484  20.101  0.00  0.00    +0.000 A 
ATOM     13  N   UNL     1      -4.784  12.614  18.819  0.00  0.00    +0.000 N 
ATOM     14  C   UNL     1      -5.607  12.278  17.686  0.00  0.00    +0.000 C 
ATOM     15  C   UNL     1      -4.564  11.264  17.245  0.00  0.00    +0.000 C 
ATOM     16  C   UNL     1      -3.731  11.709  18.436  0.00  0.00    +0.000 C 
ATOM     17  N   UNL     1      -6.568  12.159  20.271  0.00  0.00    +0.000 NA
ATOM     18  C   UNL     1      -7.090  12.021  21.526  0.00  0.00    +0.000 A 
ATOM     19  N   UNL     1      -6.454  12.125  22.648  0.00  0.00    +0.000 NA
ATOM     20  N   UNL     1      -5.163  12.478  22.498  0.00  0.00    +0.000 N 
ENDBRANCH   1  10
BRANCH   6  21
ATOM     21  C   UNL     1      -0.505  11.837  20.493  0.00  0.00    +0.000 A 
ATOM     22  C   UNL     1      -0.210  11.038  19.379  0.00  0.00    +0.000 A 
ATOM     23  C   UNL     1       0.392   9.780  19.514  0.00  0.00    +0.000 A 
ATOM     24  C   UNL     1       0.768   9.300  20.771  0.00  0.00    +0.000 A 
ATOM     25  C   UNL     1       0.450  10.066  21.895  0.00  0.00    +0.000 A 
ATOM     26  C   UNL     1      -0.194  11.305  21.754  0.00  0.00    +0.000 A 
BRANCH  24  27
ATOM     27  C   UNL     1       1.493   7.986  20.897  0.00  0.00    +0.000 C 
ATOM     28  F   UNL     1       0.652   6.932  21.108  0.00  0.00    +0.000 F 
ATOM     29  F   UNL     1       2.215   7.660  19.788  0.00  0.00    +0.000 F 
ENDBRANCH  24  27
ENDBRANCH   6  21
TORSDOF 3
ENDMDL
MODEL 6
REMARK VINA RESULT:      -6.9      8.305     10.040
REMARK  Name = 
REMARK  5 active torsions:
REMARK  status: ('A' for Active; 'I' for Inactive)
REMARK    1  A    between atoms: C_1  and  C_2
REMARK    2  A    between atoms: C_4  and  C_5
REMARK    3  A    between atoms: N_8  and  C_9
REMARK    4  A    between atoms: C_10  and  C_11
REMARK    5  A    between atoms: C_14  and  C_15
REMARK                            x       y       z     vdW  Elec       q    Type
REMARK                         _______ _______ _______ _____ _____    ______ ____
ROOT
ATOM      1  C   UNL     1       9.569  14.366  20.478  0.00  0.00    +0.000 A 
ATOM      2  C   UNL     1      10.338  15.540  20.414  0.00  0.00    +0.000 A 
ATOM      3  N   UNL     1      11.135  15.568  19.352  0.00  0.00    +0.000 NA
ATOM      4  N   UNL     1      10.938  14.366  18.773  0.00  0.00    +0.000 N 
ATOM      5  C   UNL     1      11.772  14.060  17.634  0.00  0.00    +0.000 C 
ATOM      6  C   UNL     1       9.974  13.583  19.394  0.00  0.00    +0.000 A 
ENDROOT
BRANCH   1  10
ATOM      7  C   UNL     1       8.187  12.511  24.787  0.00  0.00    +0.000 C 
ATOM      8  C   UNL     1       8.158  13.240  23.498  0.00  0.00    +0.000 A 
ATOM      9  N   UNL     1       9.114  13.260  22.595  0.00  0.00    +0.000 NA
ATOM     10  C   UNL     1       8.656  14.068  21.579  0.00  0.00    +0.000 A 
ATOM     11  C   UNL     1       7.376  14.511  21.856  0.00  0.00    +0.000 A 
ATOM     12  C   UNL     1       6.374  15.321  21.215  0.00  0.00    +0.000 A 
ATOM     13  N   UNL     1       6.489  15.806  19.916  0.00  0.00    +0.000 N 
ATOM     14  C   UNL     1       5.393  16.545  19.343  0.00  0.00    +0.000 C 
ATOM     15  C   UNL     1       5.325  15.538  18.206  0.00  0.00    +0.000 C 
ATOM     16  C   UNL     1       6.517  14.843  18.845  0.00  0.00    +0.000 C 
ATOM     17  N   UNL     1       5.328  15.620  21.944  0.00  0.00    +0.000 NA
ATOM     18  C   UNL     1       5.204  15.142  23.217  0.00  0.00    +0.000 A 
ATOM     19  N   UNL     1       6.012  14.335  23.826  0.00  0.00    +0.000 NA
ATOM     20  N   UNL     1       7.106  14.030  23.103  0.00  0.00    +0.000 N 
ENDBRANCH   1  10
BRANCH   6  21
ATOM     21  C   UNL     1       9.563  12.217  18.983  0.00  0.00    +0.000 A 
ATOM     22  C   UNL     1       9.918  11.078  19.719  0.00  0.00    +0.000 A 
ATOM     23  C   UNL     1       9.440   9.804  19.383  0.00  0.00    +0.000 A 
ATOM     24  C   UNL     1       8.546   9.635  18.323  0.00  0.00    +0.000 A 
ATOM     25  C   UNL     1       8.208  10.752  17.556  0.00  0.00    +0.000 A 
ATOM     26  C   UNL     1       8.727  12.018  17.873  0.00  0.00    +0.000 A 
BRANCH  24  27
ATOM     27  C   UNL     1       7.970   8.276  18.023  0.00  0.00    +0.000 C 
ATOM     28  F   UNL     1       8.189   7.878  16.737  0.00  0.00    +0.000 F 
ATOM     29  F   UNL     1       8.489   7.287  18.805  0.00  0.00    +0.000 F 
ENDBRANCH  24  27
ENDBRANCH   6  21
TORSDOF 3
ENDMDL
MODEL 7
REMARK VINA RESULT:      -6.9      3.776      6.352
REMARK  Name = 
REMARK  5 active torsions:
REMARK  status: ('A' for Active; 'I' for Inactive)
REMARK    1  A    between atoms: C_1  and  C_2
REMARK    2  A    between atoms: C_4  and  C_5
REMARK    3  A    between atoms: N_8  and  C_9
REMARK    4  A    between atoms: C_10  and  C_11
REMARK    5  A    between atoms: C_14  and  C_15
REMARK                            x       y       z     vdW  Elec       q    Type
REMARK                         _______ _______ _______ _____ _____    ______ ____
ROOT
ATOM      1  C   UNL     1      -2.898  13.194  21.246  0.00  0.00    +0.000 A 
ATOM      2  C   UNL     1      -2.954  12.638  22.535  0.00  0.00    +0.000 A 
ATOM      3  N   UNL     1      -2.248  13.332  23.419  0.00  0.00    +0.000 NA
ATOM      4  N   UNL     1      -1.665  14.296  22.676  0.00  0.00    +0.000 N 
ATOM      5  C   UNL     1      -0.728  15.155  23.364  0.00  0.00    +0.000 C 
ATOM      6  C   UNL     1      -2.035  14.290  21.338  0.00  0.00    +0.000 A 
ENDROOT
BRANCH   1  10
ATOM      7  C   UNL     1      -6.565  12.155  18.182  0.00  0.00    +0.000 C 
ATOM      8  C   UNL     1      -5.214  12.215  18.785  0.00  0.00    +0.000 A 
ATOM      9  N   UNL     1      -4.904  12.750  19.946  0.00  0.00    +0.000 NA
ATOM     10  C   UNL     1      -3.544  12.586  20.084  0.00  0.00    +0.000 A 
ATOM     11  C   UNL     1      -3.028  11.899  19.001  0.00  0.00    +0.000 A 
ATOM     12  C   UNL     1      -1.746  11.405  18.574  0.00  0.00    +0.000 A 
ATOM     13  N   UNL     1      -0.603  11.439  19.367  0.00  0.00    +0.000 N 
ATOM     14  C   UNL     1       0.613  10.847  18.871  0.00  0.00    +0.000 C 
ATOM     15  C   UNL     1       0.654   9.938  20.089  0.00  0.00    +0.000 C 
ATOM     16  C   UNL     1      -0.602  10.646  20.571  0.00  0.00    +0.000 C 
ATOM     17  N   UNL     1      -1.692  10.935  17.354  0.00  0.00    +0.000 NA
ATOM     18  C   UNL     1      -2.811  10.891  16.572  0.00  0.00    +0.000 A 
ATOM     19  N   UNL     1      -4.012  11.227  16.915  0.00  0.00    +0.000 NA
ATOM     20  N   UNL     1      -4.089  11.732  18.161  0.00  0.00    +0.000 N 
ENDBRANCH   1  10
BRANCH   6  21
ATOM     21  C   UNL     1      -1.542  15.221  20.293  0.00  0.00    +0.000 A 
ATOM     22  C   UNL     1      -2.061  16.514  20.140  0.00  0.00    +0.000 A 
ATOM     23  C   UNL     1      -1.520  17.421  19.220  0.00  0.00    +0.000 A 
ATOM     24  C   UNL     1      -0.402  17.080  18.455  0.00  0.00    +0.000 A 
ATOM     25  C   UNL     1       0.108  15.785  18.567  0.00  0.00    +0.000 A 
ATOM     26  C   UNL     1      -0.469  14.866  19.460  0.00  0.00    +0.000 A 
BRANCH  24  27
ATOM     27  C   UNL     1       0.226  18.092  17.532  0.00  0.00    +0.000 C 
ATOM     28  F   UNL     1       1.545  17.843  17.288  0.00  0.00    +0.000 F 
ATOM     29  F   UNL     1      -0.369  18.145  16.307  0.00  0.00    +0.000 F 
ENDBRANCH  24  27
ENDBRANCH   6  21
TORSDOF 3
ENDMDL
MODEL 8
REMARK VINA RESULT:      -6.8      7.472     10.131
REMARK  Name = 
REMARK  5 active torsions:
REMARK  status: ('A' for Active; 'I' for Inactive)
REMARK    1  A    between atoms: C_1  and  C_2
REMARK    2  A    between atoms: C_4  and  C_5
REMARK    3  A    between atoms: N_8  and  C_9
REMARK    4  A    between atoms: C_10  and  C_11
REMARK    5  A    between atoms: C_14  and  C_15
REMARK                            x       y       z     vdW  Elec       q    Type
REMARK                         _______ _______ _______ _____ _____    ______ ____
ROOT
ATOM      1  C   UNL     1       8.932  15.281  19.496  0.00  0.00    +0.000 A 
ATOM      2  C   UNL     1       9.867  16.304  19.727  0.00  0.00    +0.000 A 
ATOM      3  N   UNL     1      11.118  15.902  19.539  0.00  0.00    +0.000 NA
ATOM      4  N   UNL     1      10.993  14.587  19.264  0.00  0.00    +0.000 N 
ATOM      5  C   UNL     1      12.224  13.844  19.121  0.00  0.00    +0.000 C 
ATOM      6  C   UNL     1       9.680  14.138  19.197  0.00  0.00    +0.000 A 
ENDROOT
BRANCH   1  10
ATOM      7  C   UNL     1       4.373  16.612  18.330  0.00  0.00    +0.000 C 
ATOM      8  C   UNL     1       5.525  16.046  19.070  0.00  0.00    +0.000 A 
ATOM      9  N   UNL     1       6.789  16.126  18.717  0.00  0.00    +0.000 NA
ATOM     10  C   UNL     1       7.494  15.453  19.690  0.00  0.00    +0.000 A 
ATOM     11  C   UNL     1       6.639  14.994  20.674  0.00  0.00    +0.000 A 
ATOM     12  C   UNL     1       6.744  14.278  21.918  0.00  0.00    +0.000 A 
ATOM     13  N   UNL     1       7.955  13.954  22.523  0.00  0.00    +0.000 N 
ATOM     14  C   UNL     1       7.946  13.303  23.807  0.00  0.00    +0.000 C 
ATOM     15  C   UNL     1       8.777  14.442  24.377  0.00  0.00    +0.000 C 
ATOM     16  C   UNL     1       8.784  15.041  22.979  0.00  0.00    +0.000 C 
ATOM     17  N   UNL     1       5.612  13.904  22.460  0.00  0.00    +0.000 NA
ATOM     18  C   UNL     1       4.419  14.225  21.878  0.00  0.00    +0.000 A 
ATOM     19  N   UNL     1       4.241  14.942  20.816  0.00  0.00    +0.000 NA
ATOM     20  N   UNL     1       5.393  15.322  20.229  0.00  0.00    +0.000 N 
ENDBRANCH   1  10
BRANCH   6  21
ATOM     21  C   UNL     1       9.248  12.744  18.928  0.00  0.00    +0.000 A 
ATOM     22  C   UNL     1       8.554  12.390  17.763  0.00  0.00    +0.000 A 
ATOM     23  C   UNL     1       8.242  11.056  17.468  0.00  0.00    +0.000 A 
ATOM     24  C   UNL     1       8.660  10.023  18.309  0.00  0.00    +0.000 A 
ATOM     25  C   UNL     1       9.322  10.359  19.493  0.00  0.00    +0.000 A 
ATOM     26  C   UNL     1       9.592  11.701  19.803  0.00  0.00    +0.000 A 
BRANCH  24  27
ATOM     27  C   UNL     1       8.396   8.587  17.940  0.00  0.00    +0.000 C 
ATOM     28  F   UNL     1       8.669   7.717  18.956  0.00  0.00    +0.000 F 
ATOM     29  F   UNL     1       7.098   8.350  17.596  0.00  0.00    +0.000 F 
ENDBRANCH  24  27
ENDBRANCH   6  21
TORSDOF 3
ENDMDL
MODEL 9
REMARK VINA RESULT:      -6.8      8.435     10.064
REMARK  Name = 
REMARK  5 active torsions:
REMARK  status: ('A' for Active; 'I' for Inactive)
REMARK    1  A    between atoms: C_1  and  C_2
REMARK    2  A    between atoms: C_4  and  C_5
REMARK    3  A    between atoms: N_8  and  C_9
REMARK    4  A    between atoms: C_10  and  C_11
REMARK    5  A    between atoms: C_14  and  C_15
REMARK                            x       y       z     vdW  Elec       q    Type
REMARK                         _______ _______ _______ _____ _____    ______ ____
ROOT
ATOM      1  C   UNL     1       9.650  14.499  20.244  0.00  0.00    +0.000 A 
ATOM      2  C   UNL     1      10.524  15.585  20.070  0.00  0.00    +0.000 A 
ATOM      3  N   UNL     1      11.274  15.465  18.981  0.00  0.00    +0.000 NA
ATOM      4  N   UNL     1      10.939  14.252  18.495  0.00  0.00    +0.000 N 
ATOM      5  C   UNL     1      11.692  13.791  17.351  0.00  0.00    +0.000 C 
ATOM      6  C   UNL     1       9.932  13.609  19.203  0.00  0.00    +0.000 A 
ENDROOT
BRANCH   1  10
ATOM      7  C   UNL     1       8.333  13.210  24.774  0.00  0.00    +0.000 C 
ATOM      8  C   UNL     1       8.291  13.784  23.410  0.00  0.00    +0.000 A 
ATOM      9  N   UNL     1       9.220  13.664  22.487  0.00  0.00    +0.000 NA
ATOM     10  C   UNL     1       8.760  14.365  21.395  0.00  0.00    +0.000 A 
ATOM     11  C   UNL     1       7.504  14.885  21.650  0.00  0.00    +0.000 A 
ATOM     12  C   UNL     1       6.513  15.652  20.945  0.00  0.00    +0.000 A 
ATOM     13  N   UNL     1       6.606  15.978  19.595  0.00  0.00    +0.000 N 
ATOM     14  C   UNL     1       5.519  16.686  18.968  0.00  0.00    +0.000 C 
ATOM     15  C   UNL     1       5.383  15.557  17.958  0.00  0.00    +0.000 C 
ATOM     16  C   UNL     1       6.569  14.896  18.643  0.00  0.00    +0.000 C 
ATOM     17  N   UNL     1       5.500  16.072  21.659  0.00  0.00    +0.000 NA
ATOM     18  C   UNL     1       5.396  15.750  22.982  0.00  0.00    +0.000 A 
ATOM     19  N   UNL     1       6.194  14.990  23.661  0.00  0.00    +0.000 NA
ATOM     20  N   UNL     1       7.255  14.562  22.951  0.00  0.00    +0.000 N 
ENDBRANCH   1  10
BRANCH   6  21
ATOM     21  C   UNL     1       9.377  12.265  18.905  0.00  0.00    +0.000 A 
ATOM     22  C   UNL     1       8.578  12.021  17.779  0.00  0.00    +0.000 A 
ATOM     23  C   UNL     1       8.146  10.730  17.449  0.00  0.00    +0.000 A 
ATOM     24  C   UNL     1       8.542   9.628  18.211  0.00  0.00    +0.000 A 
ATOM     25  C   UNL     1       9.308   9.855  19.356  0.00  0.00    +0.000 A 
ATOM     26  C   UNL     1       9.700  11.158  19.705  0.00  0.00    +0.000 A 
BRANCH  24  27
ATOM     27  C   UNL     1       8.143   8.235  17.799  0.00  0.00    +0.000 C 
ATOM     28  F   UNL     1       8.415   7.300  18.754  0.00  0.00    +0.000 F 
ATOM     29  F   UNL     1       6.811   8.112  17.536  0.00  0.00    +0.000 F 
ENDBRANCH  24  27
ENDBRANCH   6  21
TORSDOF 3
ENDMDL
