MODEL 1
REMARK VINA RESULT:      -7.6      0.000      0.000
REMARK  Name = 
REMARK  5 active torsions:
REMARK  status: ('A' for Active; 'I' for Inactive)
REMARK    1  A    between atoms: C_2  and  C_17
REMARK    2  A    between atoms: N_3  and  C_4
REMARK    3  A    between atoms: C_4  and  C_5
REMARK    4  A    between atoms: C_5  and  C_6
REMARK    5  A    between atoms: C_9  and  C_10
REMARK                            x       y       z     vdW  Elec       q    Type
REMARK                         _______ _______ _______ _____ _____    ______ ____
ROOT
ATOM      1  C   UNL     1       5.214   3.784  19.129  0.00  0.00    +0.000 C 
ENDROOT
BRANCH   1   2
ATOM      2  C   UNL     1       3.951   4.490  19.502  0.00  0.00    +0.000 A 
ATOM      3  C   UNL     1       2.930   3.979  20.277  0.00  0.00    +0.000 A 
ATOM      4  S   UNL     1       1.689   5.137  20.456  0.00  0.00    +0.000 S 
ATOM      5  C   UNL     1       2.586   6.254  19.493  0.00  0.00    +0.000 A 
ATOM      6  N   UNL     1       3.743   5.789  19.057  0.00  0.00    +0.000 NA
BRANCH   5   7
ATOM      7  C   UNL     1       2.097   7.626  19.262  0.00  0.00    +0.000 A 
ATOM      8  C   UNL     1       1.469   8.312  20.309  0.00  0.00    +0.000 A 
ATOM      9  C   UNL     1       0.970   9.583  20.074  0.00  0.00    +0.000 A 
ATOM     10  N   UNL     1       1.061  10.216  18.887  0.00  0.00    +0.000 NA
ATOM     11  C   UNL     1       1.686   9.553  17.894  0.00  0.00    +0.000 A 
ATOM     12  C   UNL     1       2.216   8.280  18.031  0.00  0.00    +0.000 A 
ENDBRANCH   5   7
ENDBRANCH   1   2
BRANCH   1  13
ATOM     13  C   UNL     1       6.163   4.685  18.344  0.00  0.00    +0.000 C 
BRANCH  13  16
ATOM     14  O   UNL     1       7.539   6.122  16.340  0.00  0.00    +0.000 OA
ATOM     15  C   UNL     1       6.871   5.146  16.018  0.00  0.00    +0.000 C 
ATOM     16  N   UNL     1       6.181   4.368  16.925  0.00  0.00    +0.000 N 
ATOM     17  H   UNL     1       5.820   3.468  16.638  0.00  0.00    +0.000 HD
BRANCH  15  18
ATOM     18  C   UNL     1       6.801   4.713  14.596  0.00  0.00    +0.000 A 
ATOM     19  C   UNL     1       7.698   5.276  13.679  0.00  0.00    +0.000 A 
ATOM     20  C   UNL     1       7.659   4.895  12.336  0.00  0.00    +0.000 A 
ATOM     21  C   UNL     1       6.717   3.963  11.902  0.00  0.00    +0.000 A 
ATOM     22  C   UNL     1       5.808   3.413  12.805  0.00  0.00    +0.000 A 
ATOM     23  C   UNL     1       5.845   3.789  14.151  0.00  0.00    +0.000 A 
ENDBRANCH  15  18
ENDBRANCH  13  16
ENDBRANCH   1  13
TORSDOF 5
ENDMDL
MODEL 2
REMARK VINA RESULT:      -7.5      4.972      6.847
REMARK  Name = 
REMARK  5 active torsions:
REMARK  status: ('A' for Active; 'I' for Inactive)
REMARK    1  A    between atoms: C_2  and  C_17
REMARK    2  A    between atoms: N_3  and  C_4
REMARK    3  A    between atoms: C_4  and  C_5
REMARK    4  A    between atoms: C_5  and  C_6
REMARK    5  A    between atoms: C_9  and  C_10
REMARK                            x       y       z     vdW  Elec       q    Type
REMARK                         _______ _______ _______ _____ _____    ______ ____
ROOT
ATOM      1  C   UNL     1       7.737   6.136  18.776  0.00  0.00    +0.000 C 
ENDROOT
BRANCH   1   2
ATOM      2  C   UNL     1       6.523   5.339  18.425  0.00  0.00    +0.000 A 
ATOM      3  C   UNL     1       6.261   4.747  17.207  0.00  0.00    +0.000 A 
ATOM      4  S   UNL     1       4.765   3.927  17.259  0.00  0.00    +0.000 S 
ATOM      5  C   UNL     1       4.554   4.405  18.905  0.00  0.00    +0.000 A 
ATOM      6  N   UNL     1       5.541   5.140  19.387  0.00  0.00    +0.000 NA
BRANCH   5   7
ATOM      7  C   UNL     1       3.391   3.949  19.688  0.00  0.00    +0.000 A 
ATOM      8  C   UNL     1       2.215   4.707  19.669  0.00  0.00    +0.000 A 
ATOM      9  C   UNL     1       1.140   4.300  20.443  0.00  0.00    +0.000 A 
ATOM     10  N   UNL     1       1.152   3.196  21.218  0.00  0.00    +0.000 NA
ATOM     11  C   UNL     1       2.283   2.463  21.211  0.00  0.00    +0.000 A 
ATOM     12  C   UNL     1       3.409   2.790  20.471  0.00  0.00    +0.000 A 
ENDBRANCH   5   7
ENDBRANCH   1   2
BRANCH   1  13
ATOM     13  C   UNL     1       7.807   7.446  17.995  0.00  0.00    +0.000 C 
BRANCH  13  16
ATOM     14  O   UNL     1       7.832  10.220  17.471  0.00  0.00    +0.000 OA
ATOM     15  C   UNL     1       8.616   9.765  18.296  0.00  0.00    +0.000 C 
ATOM     16  N   UNL     1       8.666   8.428  18.635  0.00  0.00    +0.000 N 
ATOM     17  H   UNL     1       9.180   8.141  19.458  0.00  0.00    +0.000 HD
BRANCH  15  18
ATOM     18  C   UNL     1       9.555  10.661  19.024  0.00  0.00    +0.000 A 
ATOM     19  C   UNL     1      10.670  11.160  18.341  0.00  0.00    +0.000 A 
ATOM     20  C   UNL     1      11.574  12.002  18.993  0.00  0.00    +0.000 A 
ATOM     21  C   UNL     1      11.374  12.338  20.331  0.00  0.00    +0.000 A 
ATOM     22  C   UNL     1      10.275  11.829  21.024  0.00  0.00    +0.000 A 
ATOM     23  C   UNL     1       9.367  10.988  20.375  0.00  0.00    +0.000 A 
ENDBRANCH  15  18
ENDBRANCH  13  16
ENDBRANCH   1  13
TORSDOF 5
ENDMDL
MODEL 3
REMARK VINA RESULT:      -7.4      0.311      1.075
REMARK  Name = 
REMARK  5 active torsions:
REMARK  status: ('A' for Active; 'I' for Inactive)
REMARK    1  A    between atoms: C_2  and  C_17
REMARK    2  A    between atoms: N_3  and  C_4
REMARK    3  A    between atoms: C_4  and  C_5
REMARK    4  A    between atoms: C_5  and  C_6
REMARK    5  A    between atoms: C_9  and  C_10
REMARK                            x       y       z     vdW  Elec       q    Type
REMARK                         _______ _______ _______ _____ _____    ______ ____
ROOT
ATOM      1  C   UNL     1       4.945   3.589  18.876  0.00  0.00    +0.000 C 
ENDROOT
BRANCH   1   2
ATOM      2  C   UNL     1       3.790   4.383  19.396  0.00  0.00    +0.000 A 
ATOM      3  C   UNL     1       2.870   3.965  20.335  0.00  0.00    +0.000 A 
ATOM      4  S   UNL     1       1.732   5.201  20.637  0.00  0.00    +0.000 S 
ATOM      5  C   UNL     1       2.535   6.224  19.501  0.00  0.00    +0.000 A 
ATOM      6  N   UNL     1       3.588   5.674  18.924  0.00  0.00    +0.000 NA
BRANCH   5   7
ATOM      7  C   UNL     1       2.090   7.612  19.279  0.00  0.00    +0.000 A 
ATOM      8  C   UNL     1       1.477   8.309  20.327  0.00  0.00    +0.000 A 
ATOM      9  C   UNL     1       1.019   9.597  20.100  0.00  0.00    +0.000 A 
ATOM     10  N   UNL     1       1.138  10.237  18.919  0.00  0.00    +0.000 NA
ATOM     11  C   UNL     1       1.750   9.563  17.924  0.00  0.00    +0.000 A 
ATOM     12  C   UNL     1       2.239   8.273  18.054  0.00  0.00    +0.000 A 
ENDBRANCH   5   7
ENDBRANCH   1   2
BRANCH   1  13
ATOM     13  C   UNL     1       6.027   4.480  18.274  0.00  0.00    +0.000 C 
BRANCH  13  16
ATOM     14  O   UNL     1       6.467   6.424  16.274  0.00  0.00    +0.000 OA
ATOM     15  C   UNL     1       6.426   5.242  15.954  0.00  0.00    +0.000 C 
ATOM     16  N   UNL     1       6.237   4.218  16.860  0.00  0.00    +0.000 N 
ATOM     17  H   UNL     1       6.416   3.263  16.578  0.00  0.00    +0.000 HD
BRANCH  15  18
ATOM     18  C   UNL     1       6.623   4.835  14.536  0.00  0.00    +0.000 A 
ATOM     19  C   UNL     1       5.816   3.816  14.014  0.00  0.00    +0.000 A 
ATOM     20  C   UNL     1       5.975   3.406  12.688  0.00  0.00    +0.000 A 
ATOM     21  C   UNL     1       6.946   4.002  11.885  0.00  0.00    +0.000 A 
ATOM     22  C   UNL     1       7.766   5.004  12.404  0.00  0.00    +0.000 A 
ATOM     23  C   UNL     1       7.610   5.419  13.729  0.00  0.00    +0.000 A 
ENDBRANCH  15  18
ENDBRANCH  13  16
ENDBRANCH   1  13
TORSDOF 5
ENDMDL
MODEL 4
REMARK VINA RESULT:      -7.3      0.997      1.755
REMARK  Name = 
REMARK  5 active torsions:
REMARK  status: ('A' for Active; 'I' for Inactive)
REMARK    1  A    between atoms: C_2  and  C_17
REMARK    2  A    between atoms: N_3  and  C_4
REMARK    3  A    between atoms: C_4  and  C_5
REMARK    4  A    between atoms: C_5  and  C_6
REMARK    5  A    between atoms: C_9  and  C_10
REMARK                            x       y       z     vdW  Elec       q    Type
REMARK                         _______ _______ _______ _____ _____    ______ ____
ROOT
ATOM      1  C   UNL     1       6.274   4.373  18.907  0.00  0.00    +0.000 C 
ENDROOT
BRANCH   1   2
ATOM      2  C   UNL     1       4.840   4.734  18.692  0.00  0.00    +0.000 A 
ATOM      3  C   UNL     1       3.835   3.877  18.293  0.00  0.00    +0.000 A 
ATOM      4  S   UNL     1       2.352   4.715  18.188  0.00  0.00    +0.000 S 
ATOM      5  C   UNL     1       3.134   6.172  18.685  0.00  0.00    +0.000 A 
ATOM      6  N   UNL     1       4.430   6.043  18.911  0.00  0.00    +0.000 NA
BRANCH   5   7
ATOM      7  C   UNL     1       2.369   7.415  18.896  0.00  0.00    +0.000 A 
ATOM      8  C   UNL     1       2.179   8.291  17.821  0.00  0.00    +0.000 A 
ATOM      9  C   UNL     1       1.499   9.479  18.034  0.00  0.00    +0.000 A 
ATOM     10  N   UNL     1       0.991   9.847  19.228  0.00  0.00    +0.000 NA
ATOM     11  C   UNL     1       1.162   8.984  20.250  0.00  0.00    +0.000 A 
ATOM     12  C   UNL     1       1.828   7.774  20.135  0.00  0.00    +0.000 A 
ENDBRANCH   5   7
ENDBRANCH   1   2
BRANCH   1  13
ATOM     13  C   UNL     1       7.211   5.216  18.047  0.00  0.00    +0.000 C 
BRANCH  13  16
ATOM     14  O   UNL     1       5.891   6.457  15.881  0.00  0.00    +0.000 OA
ATOM     15  C   UNL     1       6.544   5.440  15.674  0.00  0.00    +0.000 C 
ATOM     16  N   UNL     1       7.240   4.774  16.662  0.00  0.00    +0.000 N 
ATOM     17  H   UNL     1       7.920   4.071  16.406  0.00  0.00    +0.000 HD
BRANCH  15  18
ATOM     18  C   UNL     1       6.654   4.878  14.301  0.00  0.00    +0.000 A 
ATOM     19  C   UNL     1       5.737   3.897  13.903  0.00  0.00    +0.000 A 
ATOM     20  C   UNL     1       5.812   3.344  12.623  0.00  0.00    +0.000 A 
ATOM     21  C   UNL     1       6.810   3.759  11.741  0.00  0.00    +0.000 A 
ATOM     22  C   UNL     1       7.739   4.721  12.137  0.00  0.00    +0.000 A 
ATOM     23  C   UNL     1       7.666   5.279  13.417  0.00  0.00    +0.000 A 
ENDBRANCH  15  18
ENDBRANCH  13  16
ENDBRANCH   1  13
TORSDOF 5
ENDMDL
MODEL 5
REMARK VINA RESULT:      -7.2      1.025      1.476
REMARK  Name = 
REMARK  5 active torsions:
REMARK  status: ('A' for Active; 'I' for Inactive)
REMARK    1  A    between atoms: C_2  and  C_17
REMARK    2  A    between atoms: N_3  and  C_4
REMARK    3  A    between atoms: C_4  and  C_5
REMARK    4  A    between atoms: C_5  and  C_6
REMARK    5  A    between atoms: C_9  and  C_10
REMARK                            x       y       z     vdW  Elec       q    Type
REMARK                         _______ _______ _______ _____ _____    ______ ____
ROOT
ATOM      1  C   UNL     1       6.282   4.510  18.890  0.00  0.00    +0.000 C 
ENDROOT
BRANCH   1   2
ATOM      2  C   UNL     1       4.847   4.863  18.664  0.00  0.00    +0.000 A 
ATOM      3  C   UNL     1       3.850   4.002  18.253  0.00  0.00    +0.000 A 
ATOM      4  S   UNL     1       2.364   4.832  18.139  0.00  0.00    +0.000 S 
ATOM      5  C   UNL     1       3.134   6.292  18.647  0.00  0.00    +0.000 A 
ATOM      6  N   UNL     1       4.428   6.169  18.883  0.00  0.00    +0.000 NA
BRANCH   5   7
ATOM      7  C   UNL     1       2.360   7.529  18.855  0.00  0.00    +0.000 A 
ATOM      8  C   UNL     1       1.853   7.811  20.130  0.00  0.00    +0.000 A 
ATOM      9  C   UNL     1       1.087   8.951  20.310  0.00  0.00    +0.000 A 
ATOM     10  N   UNL     1       0.803   9.827  19.325  0.00  0.00    +0.000 NA
ATOM     11  C   UNL     1       1.315   9.555  18.108  0.00  0.00    +0.000 A 
ATOM     12  C   UNL     1       2.090   8.441  17.828  0.00  0.00    +0.000 A 
ENDBRANCH   5   7
ENDBRANCH   1   2
BRANCH   1  13
ATOM     13  C   UNL     1       7.216   5.304  17.981  0.00  0.00    +0.000 C 
BRANCH  13  16
ATOM     14  O   UNL     1       6.035   6.600  15.768  0.00  0.00    +0.000 OA
ATOM     15  C   UNL     1       6.583   5.516  15.599  0.00  0.00    +0.000 C 
ATOM     16  N   UNL     1       7.205   4.816  16.612  0.00  0.00    +0.000 N 
ATOM     17  H   UNL     1       7.812   4.040  16.383  0.00  0.00    +0.000 HD
BRANCH  15  18
ATOM     18  C   UNL     1       6.641   4.901  14.245  0.00  0.00    +0.000 A 
ATOM     19  C   UNL     1       5.697   3.921  13.914  0.00  0.00    +0.000 A 
ATOM     20  C   UNL     1       5.723   3.319  12.654  0.00  0.00    +0.000 A 
ATOM     21  C   UNL     1       6.698   3.684  11.726  0.00  0.00    +0.000 A 
ATOM     22  C   UNL     1       7.653   4.646  12.056  0.00  0.00    +0.000 A 
ATOM     23  C   UNL     1       7.630   5.252  13.315  0.00  0.00    +0.000 A 
ENDBRANCH  15  18
ENDBRANCH  13  16
ENDBRANCH   1  13
TORSDOF 5
ENDMDL
MODEL 6
REMARK VINA RESULT:      -7.1      2.650      3.814
REMARK  Name = 
REMARK  5 active torsions:
REMARK  status: ('A' for Active; 'I' for Inactive)
REMARK    1  A    between atoms: C_2  and  C_17
REMARK    2  A    between atoms: N_3  and  C_4
REMARK    3  A    between atoms: C_4  and  C_5
REMARK    4  A    between atoms: C_5  and  C_6
REMARK    5  A    between atoms: C_9  and  C_10
REMARK                            x       y       z     vdW  Elec       q    Type
REMARK                         _______ _______ _______ _____ _____    ______ ____
ROOT
ATOM      1  C   UNL     1       6.626   6.199  16.750  0.00  0.00    +0.000 C 
ENDROOT
BRANCH   1   2
ATOM      2  C   UNL     1       5.234   6.312  17.281  0.00  0.00    +0.000 A 
ATOM      3  C   UNL     1       4.466   7.458  17.318  0.00  0.00    +0.000 A 
ATOM      4  S   UNL     1       2.937   7.122  17.996  0.00  0.00    +0.000 S 
ATOM      5  C   UNL     1       3.384   5.467  18.199  0.00  0.00    +0.000 A 
ATOM      6  N   UNL     1       4.607   5.181  17.789  0.00  0.00    +0.000 NA
BRANCH   5   7
ATOM      7  C   UNL     1       2.426   4.477  18.722  0.00  0.00    +0.000 A 
ATOM      8  C   UNL     1       1.880   4.662  19.998  0.00  0.00    +0.000 A 
ATOM      9  C   UNL     1       1.015   3.705  20.504  0.00  0.00    +0.000 A 
ATOM     10  N   UNL     1       0.651   2.594  19.832  0.00  0.00    +0.000 NA
ATOM     11  C   UNL     1       1.166   2.438  18.596  0.00  0.00    +0.000 A 
ATOM     12  C   UNL     1       2.039   3.339  18.005  0.00  0.00    +0.000 A 
ENDBRANCH   5   7
ENDBRANCH   1   2
BRANCH   1  13
ATOM     13  C   UNL     1       7.067   4.744  16.606  0.00  0.00    +0.000 C 
BRANCH  13  16
ATOM     14  O   UNL     1       7.742   5.289  13.919  0.00  0.00    +0.000 OA
ATOM     15  C   UNL     1       6.876   4.454  14.156  0.00  0.00    +0.000 C 
ATOM     16  N   UNL     1       6.492   4.104  15.434  0.00  0.00    +0.000 N 
ATOM     17  H   UNL     1       5.930   3.275  15.578  0.00  0.00    +0.000 HD
BRANCH  15  18
ATOM     18  C   UNL     1       6.203   3.725  13.047  0.00  0.00    +0.000 A 
ATOM     19  C   UNL     1       4.855   3.998  12.786  0.00  0.00    +0.000 A 
ATOM     20  C   UNL     1       4.190   3.331  11.755  0.00  0.00    +0.000 A 
ATOM     21  C   UNL     1       4.866   2.381  10.990  0.00  0.00    +0.000 A 
ATOM     22  C   UNL     1       6.203   2.089  11.256  0.00  0.00    +0.000 A 
ATOM     23  C   UNL     1       6.873   2.756  12.286  0.00  0.00    +0.000 A 
ENDBRANCH  15  18
ENDBRANCH  13  16
ENDBRANCH   1  13
TORSDOF 5
ENDMDL
MODEL 7
REMARK VINA RESULT:      -7.1      0.712      1.228
REMARK  Name = 
REMARK  5 active torsions:
REMARK  status: ('A' for Active; 'I' for Inactive)
REMARK    1  A    between atoms: C_2  and  C_17
REMARK    2  A    between atoms: N_3  and  C_4
REMARK    3  A    between atoms: C_4  and  C_5
REMARK    4  A    between atoms: C_5  and  C_6
REMARK    5  A    between atoms: C_9  and  C_10
REMARK                            x       y       z     vdW  Elec       q    Type
REMARK                         _______ _______ _______ _____ _____    ______ ____
ROOT
ATOM      1  C   UNL     1       5.548   4.115  18.994  0.00  0.00    +0.000 C 
ENDROOT
BRANCH   1   2
ATOM      2  C   UNL     1       4.209   4.648  19.392  0.00  0.00    +0.000 A 
ATOM      3  C   UNL     1       3.222   3.954  20.061  0.00  0.00    +0.000 A 
ATOM      4  S   UNL     1       1.866   4.958  20.317  0.00  0.00    +0.000 S 
ATOM      5  C   UNL     1       2.674   6.261  19.524  0.00  0.00    +0.000 A 
ATOM      6  N   UNL     1       3.885   5.964  19.087  0.00  0.00    +0.000 NA
BRANCH   5   7
ATOM      7  C   UNL     1       2.056   7.597  19.429  0.00  0.00    +0.000 A 
ATOM      8  C   UNL     1       2.088   8.278  18.207  0.00  0.00    +0.000 A 
ATOM      9  C   UNL     1       1.547   9.552  18.134  0.00  0.00    +0.000 A 
ATOM     10  N   UNL     1       0.973  10.183  19.179  0.00  0.00    +0.000 NA
ATOM     11  C   UNL     1       0.931   9.507  20.344  0.00  0.00    +0.000 A 
ATOM     12  C   UNL     1       1.445   8.232  20.516  0.00  0.00    +0.000 A 
ENDBRANCH   5   7
ENDBRANCH   1   2
BRANCH   1  13
ATOM     13  C   UNL     1       6.388   5.163  18.270  0.00  0.00    +0.000 C 
BRANCH  13  16
ATOM     14  O   UNL     1       4.858   5.898  16.015  0.00  0.00    +0.000 OA
ATOM     15  C   UNL     1       5.845   5.190  15.856  0.00  0.00    +0.000 C 
ATOM     16  N   UNL     1       6.667   4.795  16.892  0.00  0.00    +0.000 N 
ATOM     17  H   UNL     1       7.570   4.389  16.686  0.00  0.00    +0.000 HD
BRANCH  15  18
ATOM     18  C   UNL     1       6.243   4.738  14.496  0.00  0.00    +0.000 A 
ATOM     19  C   UNL     1       7.368   5.319  13.899  0.00  0.00    +0.000 A 
ATOM     20  C   UNL     1       7.769   4.922  12.621  0.00  0.00    +0.000 A 
ATOM     21  C   UNL     1       7.041   3.953  11.931  0.00  0.00    +0.000 A 
ATOM     22  C   UNL     1       5.908   3.383  12.512  0.00  0.00    +0.000 A 
ATOM     23  C   UNL     1       5.504   3.777  13.791  0.00  0.00    +0.000 A 
ENDBRANCH  15  18
ENDBRANCH  13  16
ENDBRANCH   1  13
TORSDOF 5
ENDMDL
MODEL 8
REMARK VINA RESULT:      -7.1      4.816      6.921
REMARK  Name = 
REMARK  5 active torsions:
REMARK  status: ('A' for Active; 'I' for Inactive)
REMARK    1  A    between atoms: C_2  and  C_17
REMARK    2  A    between atoms: N_3  and  C_4
REMARK    3  A    between atoms: C_4  and  C_5
REMARK    4  A    between atoms: C_5  and  C_6
REMARK    5  A    between atoms: C_9  and  C_10
REMARK                            x       y       z     vdW  Elec       q    Type
REMARK                         _______ _______ _______ _____ _____    ______ ____
ROOT
ATOM      1  C   UNL     1       0.445   9.103  21.729  0.00  0.00    +0.000 C 
ENDROOT
BRANCH   1   2
ATOM      2  C   UNL     1       0.042  10.101  20.692  0.00  0.00    +0.000 A 
ATOM      3  C   UNL     1       0.619  11.337  20.482  0.00  0.00    +0.000 A 
ATOM      4  S   UNL     1      -0.152  12.135  19.185  0.00  0.00    +0.000 S 
ATOM      5  C   UNL     1      -1.208  10.785  18.975  0.00  0.00    +0.000 A 
ATOM      6  N   UNL     1      -1.002   9.797  19.828  0.00  0.00    +0.000 NA
BRANCH   5   7
ATOM      7  C   UNL     1      -2.194  10.752  17.879  0.00  0.00    +0.000 A 
ATOM      8  C   UNL     1      -1.944   9.948  16.761  0.00  0.00    +0.000 A 
ATOM      9  C   UNL     1      -2.850   9.955  15.713  0.00  0.00    +0.000 A 
ATOM     10  N   UNL     1      -3.981  10.690  15.705  0.00  0.00    +0.000 NA
ATOM     11  C   UNL     1      -4.220  11.443  16.797  0.00  0.00    +0.000 A 
ATOM     12  C   UNL     1      -3.374  11.503  17.893  0.00  0.00    +0.000 A 
ENDBRANCH   5   7
ENDBRANCH   1   2
BRANCH   1  13
ATOM     13  C   UNL     1       1.760   8.413  21.378  0.00  0.00    +0.000 C 
BRANCH  13  16
ATOM     14  O   UNL     1       2.791   7.279  19.006  0.00  0.00    +0.000 OA
ATOM     15  C   UNL     1       2.097   6.587  19.742  0.00  0.00    +0.000 C 
ATOM     16  N   UNL     1       1.566   7.043  20.931  0.00  0.00    +0.000 N 
ATOM     17  H   UNL     1       1.180   6.382  21.592  0.00  0.00    +0.000 HD
BRANCH  15  18
ATOM     18  C   UNL     1       1.816   5.166  19.402  0.00  0.00    +0.000 A 
ATOM     19  C   UNL     1       1.268   4.336  20.388  0.00  0.00    +0.000 A 
ATOM     20  C   UNL     1       0.994   2.996  20.105  0.00  0.00    +0.000 A 
ATOM     21  C   UNL     1       1.278   2.478  18.842  0.00  0.00    +0.000 A 
ATOM     22  C   UNL     1       1.842   3.293  17.861  0.00  0.00    +0.000 A 
ATOM     23  C   UNL     1       2.116   4.635  18.139  0.00  0.00    +0.000 A 
ENDBRANCH  15  18
ENDBRANCH  13  16
ENDBRANCH   1  13
TORSDOF 5
ENDMDL
MODEL 9
REMARK VINA RESULT:      -7.1      2.482      3.274
REMARK  Name = 
REMARK  5 active torsions:
REMARK  status: ('A' for Active; 'I' for Inactive)
REMARK    1  A    between atoms: C_2  and  C_17
REMARK    2  A    between atoms: N_3  and  C_4
REMARK    3  A    between atoms: C_4  and  C_5
REMARK    4  A    between atoms: C_5  and  C_6
REMARK    5  A    between atoms: C_9  and  C_10
REMARK                            x       y       z     vdW  Elec       q    Type
REMARK                         _______ _______ _______ _____ _____    ______ ____
ROOT
ATOM      1  C   UNL     1       2.316   2.572  17.987  0.00  0.00    +0.000 C 
ENDROOT
BRANCH   1   2
ATOM      2  C   UNL     1       2.236   3.729  18.929  0.00  0.00    +0.000 A 
ATOM      3  C   UNL     1       2.341   3.670  20.304  0.00  0.00    +0.000 A 
ATOM      4  S   UNL     1       2.203   5.233  20.974  0.00  0.00    +0.000 S 
ATOM      5  C   UNL     1       2.014   5.900  19.393  0.00  0.00    +0.000 A 
ATOM      6  N   UNL     1       2.047   5.008  18.419  0.00  0.00    +0.000 NA
BRANCH   5   7
ATOM      7  C   UNL     1       1.902   7.356  19.188  0.00  0.00    +0.000 A 
ATOM      8  C   UNL     1       1.453   8.162  20.241  0.00  0.00    +0.000 A 
ATOM      9  C   UNL     1       1.306   9.523  20.030  0.00  0.00    +0.000 A 
ATOM     10  N   UNL     1       1.581  10.134  18.859  0.00  0.00    +0.000 NA
ATOM     11  C   UNL     1       2.033   9.350  17.860  0.00  0.00    +0.000 A 
ATOM     12  C   UNL     1       2.212   7.980  17.974  0.00  0.00    +0.000 A 
ENDBRANCH   5   7
ENDBRANCH   1   2
BRANCH   1  13
ATOM     13  C   UNL     1       3.758   2.230  17.622  0.00  0.00    +0.000 C 
BRANCH  13  16
ATOM     14  O   UNL     1       4.893   4.030  15.766  0.00  0.00    +0.000 OA
ATOM     15  C   UNL     1       5.196   4.129  16.950  0.00  0.00    +0.000 C 
ATOM     16  N   UNL     1       4.679   3.311  17.934  0.00  0.00    +0.000 N 
ATOM     17  H   UNL     1       4.800   3.562  18.906  0.00  0.00    +0.000 HD
BRANCH  15  18
ATOM     18  C   UNL     1       6.133   5.191  17.405  0.00  0.00    +0.000 A 
ATOM     19  C   UNL     1       7.003   4.907  18.466  0.00  0.00    +0.000 A 
ATOM     20  C   UNL     1       7.894   5.881  18.922  0.00  0.00    +0.000 A 
ATOM     21  C   UNL     1       7.911   7.143  18.330  0.00  0.00    +0.000 A 
ATOM     22  C   UNL     1       7.035   7.439  17.286  0.00  0.00    +0.000 A 
ATOM     23  C   UNL     1       6.143   6.467  16.825  0.00  0.00    +0.000 A 
ENDBRANCH  15  18
ENDBRANCH  13  16
ENDBRANCH   1  13
TORSDOF 5
ENDMDL
