MODEL 1
REMARK VINA RESULT:      -7.4      0.000      0.000
REMARK  Name = 
REMARK  11 active torsions:
REMARK  status: ('A' for Active; 'I' for Inactive)
REMARK    1  A    between atoms: C_1  and  C_2
REMARK    2  A    between atoms: C_2  and  N_3
REMARK    3  A    between atoms: C_7  and  C_8
REMARK    4  A    between atoms: C_11  and  C_12
REMARK    5  A    between atoms: C_12  and  O_13
REMARK    6  A    between atoms: C_14  and  C_15
REMARK    7  A    between atoms: C_18  and  S_19
REMARK    8  A    between atoms: S_19  and  C_22
REMARK    9  A    between atoms: C_22  and  C_23
REMARK   10  A    between atoms: C_25  and  O_26
REMARK   11  A    between atoms: O_26  and  C_27
REMARK                            x       y       z     vdW  Elec       q    Type
REMARK                         _______ _______ _______ _____ _____    ______ ____
ROOT
ATOM      1  C   UNL     1      -1.722  11.918  18.659  0.00  0.00    +0.000 A 
ATOM      2  C   UNL     1      -1.068  13.077  18.238  0.00  0.00    +0.000 A 
ATOM      3  C   UNL     1       0.323  13.164  18.264  0.00  0.00    +0.000 A 
ATOM      4  C   UNL     1       1.138  12.083  18.675  0.00  0.00    +0.000 A 
ATOM      5  C   UNL     1       0.515  10.866  19.070  0.00  0.00    +0.000 A 
ATOM      6  C   UNL     1      -0.904  10.859  19.104  0.00  0.00    +0.000 A 
ENDROOT
BRANCH   1  11
ATOM      7  N   UNL     1      -6.086  12.359  20.433  0.00  0.00    +0.000 N 
ATOM      8  C   UNL     1      -5.133  12.770  21.322  0.00  0.00    +0.000 A 
ATOM      9  N   UNL     1      -3.918  12.621  20.836  0.00  0.00    +0.000 NA
ATOM     10  C   UNL     1      -4.087  12.103  19.565  0.00  0.00    +0.000 A 
ATOM     11  C   UNL     1      -3.183  11.754  18.549  0.00  0.00    +0.000 A 
ATOM     12  C   UNL     1      -3.830  11.286  17.397  0.00  0.00    +0.000 A 
ATOM     13  N   UNL     1      -5.172  11.139  17.217  0.00  0.00    +0.000 NA
ATOM     14  N   UNL     1      -5.997  11.465  18.181  0.00  0.00    +0.000 NA
ATOM     15  C   UNL     1      -5.442  11.937  19.308  0.00  0.00    +0.000 A 
BRANCH   7  17
ATOM     16  C   UNL     1      -7.913  12.145  22.070  0.00  0.00    +0.000 C 
ATOM     17  C   UNL     1      -7.518  12.403  20.628  0.00  0.00    +0.000 C 
ENDBRANCH   7  17
ENDBRANCH   1  11
BRANCH   5  18
ATOM     18  C   UNL     1       1.221   9.550  19.256  0.00  0.00    +0.000 A 
ATOM     19  C   UNL     1       1.701   8.896  18.100  0.00  0.00    +0.000 A 
ATOM     20  C   UNL     1       2.306   7.642  18.127  0.00  0.00    +0.000 A 
ATOM     21  C   UNL     1       2.417   6.980  19.336  0.00  0.00    +0.000 A 
ATOM     22  C   UNL     1       1.925   7.553  20.503  0.00  0.00    +0.000 A 
ATOM     23  C   UNL     1       1.312   8.820  20.480  0.00  0.00    +0.000 A 
BRANCH  21  24
ATOM     24  S   UNL     1       3.086   5.341  19.383  0.00  0.00    +0.000 S 
ATOM     25  O   UNL     1       4.531   5.457  19.422  0.00  0.00    +0.000 OA
ATOM     26  O   UNL     1       2.362   4.625  20.424  0.00  0.00    +0.000 OA
BRANCH  24  27
ATOM     27  C   UNL     1       2.635   4.635  17.812  0.00  0.00    +0.000 C 
ATOM     28  C   UNL     1       3.855   4.078  17.109  0.00  0.00    +0.000 C 
ENDBRANCH  24  27
ENDBRANCH  21  24
BRANCH  23  29
ATOM     29  O   UNL     1       0.809   9.373  21.639  0.00  0.00    +0.000 OA
ATOM     30  C   UNL     1      -0.385   8.766  22.156  0.00  0.00    +0.000 C 
ENDBRANCH  23  29
ENDBRANCH   5  18
BRANCH   4  31
ATOM     31  C   UNL     1       2.628  12.331  18.511  0.00  0.00    +0.000 C 
BRANCH  31  32
ATOM     32  O   UNL     1       2.963  13.443  17.703  0.00  0.00    +0.000 OA
ATOM     33  H   UNL     1       3.459  13.099  16.942  0.00  0.00    +0.000 HD
ENDBRANCH  31  32
ENDBRANCH   4  31
TORSDOF 8
ENDMDL
MODEL 2
REMARK VINA RESULT:      -7.3      3.657      5.764
REMARK  Name = 
REMARK  11 active torsions:
REMARK  status: ('A' for Active; 'I' for Inactive)
REMARK    1  A    between atoms: C_1  and  C_2
REMARK    2  A    between atoms: C_2  and  N_3
REMARK    3  A    between atoms: C_7  and  C_8
REMARK    4  A    between atoms: C_11  and  C_12
REMARK    5  A    between atoms: C_12  and  O_13
REMARK    6  A    between atoms: C_14  and  C_15
REMARK    7  A    between atoms: C_18  and  S_19
REMARK    8  A    between atoms: S_19  and  C_22
REMARK    9  A    between atoms: C_22  and  C_23
REMARK   10  A    between atoms: C_25  and  O_26
REMARK   11  A    between atoms: O_26  and  C_27
REMARK                            x       y       z     vdW  Elec       q    Type
REMARK                         _______ _______ _______ _____ _____    ______ ____
ROOT
ATOM      1  C   UNL     1       1.413   9.310  19.450  0.00  0.00    +0.000 A 
ATOM      2  C   UNL     1       0.877   8.787  20.627  0.00  0.00    +0.000 A 
ATOM      3  C   UNL     1       1.083   7.453  20.976  0.00  0.00    +0.000 A 
ATOM      4  C   UNL     1       1.869   6.581  20.188  0.00  0.00    +0.000 A 
ATOM      5  C   UNL     1       2.473   7.085  19.003  0.00  0.00    +0.000 A 
ATOM      6  C   UNL     1       2.164   8.424  18.650  0.00  0.00    +0.000 A 
ENDROOT
BRANCH   1  11
ATOM      7  N   UNL     1      -0.711  13.520  19.845  0.00  0.00    +0.000 N 
ATOM      8  C   UNL     1      -1.349  12.558  20.577  0.00  0.00    +0.000 A 
ATOM      9  N   UNL     1      -0.772  11.382  20.444  0.00  0.00    +0.000 NA
ATOM     10  C   UNL     1       0.302  11.589  19.597  0.00  0.00    +0.000 A 
ATOM     11  C   UNL     1       1.301  10.738  19.101  0.00  0.00    +0.000 A 
ATOM     12  C   UNL     1       2.216  11.413  18.279  0.00  0.00    +0.000 A 
ATOM     13  N   UNL     1       2.192  12.732  17.942  0.00  0.00    +0.000 NA
ATOM     14  N   UNL     1       1.245  13.506  18.413  0.00  0.00    +0.000 NA
ATOM     15  C   UNL     1       0.344  12.926  19.220  0.00  0.00    +0.000 A 
BRANCH   7  17
ATOM     16  C   UNL     1      -1.946  15.353  20.932  0.00  0.00    +0.000 C 
ATOM     17  C   UNL     1      -1.060  14.921  19.778  0.00  0.00    +0.000 C 
ENDBRANCH   7  17
ENDBRANCH   1  11
BRANCH   5  18
ATOM     18  C   UNL     1       3.553   6.391  18.216  0.00  0.00    +0.000 A 
ATOM     19  C   UNL     1       4.733   7.117  17.943  0.00  0.00    +0.000 A 
ATOM     20  C   UNL     1       5.774   6.618  17.165  0.00  0.00    +0.000 A 
ATOM     21  C   UNL     1       5.643   5.363  16.599  0.00  0.00    +0.000 A 
ATOM     22  C   UNL     1       4.488   4.616  16.796  0.00  0.00    +0.000 A 
ATOM     23  C   UNL     1       3.432   5.118  17.580  0.00  0.00    +0.000 A 
BRANCH  21  24
ATOM     24  S   UNL     1       6.907   4.749  15.521  0.00  0.00    +0.000 S 
ATOM     25  O   UNL     1       7.362   5.854  14.701  0.00  0.00    +0.000 OA
ATOM     26  O   UNL     1       7.836   3.999  16.355  0.00  0.00    +0.000 OA
BRANCH  24  27
ATOM     27  C   UNL     1       6.061   3.593  14.463  0.00  0.00    +0.000 C 
ATOM     28  C   UNL     1       6.433   3.828  13.013  0.00  0.00    +0.000 C 
ENDBRANCH  24  27
ENDBRANCH  21  24
BRANCH  23  29
ATOM     29  O   UNL     1       2.280   4.378  17.755  0.00  0.00    +0.000 OA
ATOM     30  C   UNL     1       2.402   2.966  17.526  0.00  0.00    +0.000 C 
ENDBRANCH  23  29
ENDBRANCH   5  18
BRANCH   4  31
ATOM     31  C   UNL     1       2.078   5.207  20.803  0.00  0.00    +0.000 C 
BRANCH  31  32
ATOM     32  O   UNL     1       1.044   4.275  20.551  0.00  0.00    +0.000 OA
ATOM     33  H   UNL     1       1.439   3.548  20.041  0.00  0.00    +0.000 HD
ENDBRANCH  31  32
ENDBRANCH   4  31
TORSDOF 8
ENDMDL
MODEL 3
REMARK VINA RESULT:      -7.2      4.327      6.774
REMARK  Name = 
REMARK  11 active torsions:
REMARK  status: ('A' for Active; 'I' for Inactive)
REMARK    1  A    between atoms: C_1  and  C_2
REMARK    2  A    between atoms: C_2  and  N_3
REMARK    3  A    between atoms: C_7  and  C_8
REMARK    4  A    between atoms: C_11  and  C_12
REMARK    5  A    between atoms: C_12  and  O_13
REMARK    6  A    between atoms: C_14  and  C_15
REMARK    7  A    between atoms: C_18  and  S_19
REMARK    8  A    between atoms: S_19  and  C_22
REMARK    9  A    between atoms: C_22  and  C_23
REMARK   10  A    between atoms: C_25  and  O_26
REMARK   11  A    between atoms: O_26  and  C_27
REMARK                            x       y       z     vdW  Elec       q    Type
REMARK                         _______ _______ _______ _____ _____    ______ ____
ROOT
ATOM      1  C   UNL     1       1.282  13.647  19.045  0.00  0.00    +0.000 A 
ATOM      2  C   UNL     1      -0.067  13.889  18.787  0.00  0.00    +0.000 A 
ATOM      3  C   UNL     1      -0.931  12.846  18.456  0.00  0.00    +0.000 A 
ATOM      4  C   UNL     1      -0.501  11.499  18.405  0.00  0.00    +0.000 A 
ATOM      5  C   UNL     1       0.857  11.201  18.706  0.00  0.00    +0.000 A 
ATOM      6  C   UNL     1       1.711  12.307  18.954  0.00  0.00    +0.000 A 
ENDROOT
BRANCH   1  11
ATOM      7  N   UNL     1       5.373  16.003  18.719  0.00  0.00    +0.000 N 
ATOM      8  C   UNL     1       5.309  14.970  17.826  0.00  0.00    +0.000 A 
ATOM      9  N   UNL     1       4.181  14.299  17.937  0.00  0.00    +0.000 NA
ATOM     10  C   UNL     1       3.469  14.934  18.940  0.00  0.00    +0.000 A 
ATOM     11  C   UNL     1       2.200  14.709  19.496  0.00  0.00    +0.000 A 
ATOM     12  C   UNL     1       1.882  15.644  20.491  0.00  0.00    +0.000 A 
ATOM     13  N   UNL     1       2.667  16.666  20.933  0.00  0.00    +0.000 NA
ATOM     14  N   UNL     1       3.849  16.852  20.403  0.00  0.00    +0.000 NA
ATOM     15  C   UNL     1       4.211  16.000  19.432  0.00  0.00    +0.000 A 
BRANCH   7  17
ATOM     16  C   UNL     1       7.511  16.488  19.840  0.00  0.00    +0.000 C 
ATOM     17  C   UNL     1       6.453  16.953  18.856  0.00  0.00    +0.000 C 
ENDBRANCH   7  17
ENDBRANCH   1  11
BRANCH   5  18
ATOM     18  C   UNL     1       1.404   9.825  18.976  0.00  0.00    +0.000 A 
ATOM     19  C   UNL     1       2.036   9.152  17.907  0.00  0.00    +0.000 A 
ATOM     20  C   UNL     1       2.518   7.849  18.003  0.00  0.00    +0.000 A 
ATOM     21  C   UNL     1       2.346   7.159  19.189  0.00  0.00    +0.000 A 
ATOM     22  C   UNL     1       1.695   7.752  20.264  0.00  0.00    +0.000 A 
ATOM     23  C   UNL     1       1.204   9.069  20.170  0.00  0.00    +0.000 A 
BRANCH  21  24
ATOM     24  S   UNL     1       2.857   5.467  19.304  0.00  0.00    +0.000 S 
ATOM     25  O   UNL     1       2.286   4.757  18.176  0.00  0.00    +0.000 OA
ATOM     26  O   UNL     1       4.295   5.481  19.533  0.00  0.00    +0.000 OA
BRANCH  24  27
ATOM     27  C   UNL     1       2.069   4.867  20.784  0.00  0.00    +0.000 C 
ATOM     28  C   UNL     1       1.086   3.763  20.454  0.00  0.00    +0.000 C 
ENDBRANCH  24  27
ENDBRANCH  21  24
BRANCH  23  29
ATOM     29  O   UNL     1       0.542   9.644  21.235  0.00  0.00    +0.000 OA
ATOM     30  C   UNL     1      -0.393   8.797  21.921  0.00  0.00    +0.000 C 
ENDBRANCH  23  29
ENDBRANCH   5  18
BRANCH   4  31
ATOM     31  C   UNL     1      -1.618  10.500  18.153  0.00  0.00    +0.000 C 
BRANCH  31  32
ATOM     32  O   UNL     1      -1.543   9.819  16.916  0.00  0.00    +0.000 OA
ATOM     33  H   UNL     1      -0.726  10.114  16.482  0.00  0.00    +0.000 HD
ENDBRANCH  31  32
ENDBRANCH   4  31
TORSDOF 8
ENDMDL
MODEL 4
REMARK VINA RESULT:      -7.2      1.025      1.144
REMARK  Name = 
REMARK  11 active torsions:
REMARK  status: ('A' for Active; 'I' for Inactive)
REMARK    1  A    between atoms: C_1  and  C_2
REMARK    2  A    between atoms: C_2  and  N_3
REMARK    3  A    between atoms: C_7  and  C_8
REMARK    4  A    between atoms: C_11  and  C_12
REMARK    5  A    between atoms: C_12  and  O_13
REMARK    6  A    between atoms: C_14  and  C_15
REMARK    7  A    between atoms: C_18  and  S_19
REMARK    8  A    between atoms: S_19  and  C_22
REMARK    9  A    between atoms: C_22  and  C_23
REMARK   10  A    between atoms: C_25  and  O_26
REMARK   11  A    between atoms: O_26  and  C_27
REMARK                            x       y       z     vdW  Elec       q    Type
REMARK                         _______ _______ _______ _____ _____    ______ ____
ROOT
ATOM      1  C   UNL     1      -1.673  11.903  18.691  0.00  0.00    +0.000 A 
ATOM      2  C   UNL     1      -1.017  13.040  18.218  0.00  0.00    +0.000 A 
ATOM      3  C   UNL     1       0.376  13.096  18.171  0.00  0.00    +0.000 A 
ATOM      4  C   UNL     1       1.187  12.004  18.558  0.00  0.00    +0.000 A 
ATOM      5  C   UNL     1       0.559  10.807  19.003  0.00  0.00    +0.000 A 
ATOM      6  C   UNL     1      -0.856  10.833  19.110  0.00  0.00    +0.000 A 
ENDROOT
BRANCH   1  11
ATOM      7  N   UNL     1      -5.930  12.487  20.670  0.00  0.00    +0.000 N 
ATOM      8  C   UNL     1      -4.924  12.898  21.500  0.00  0.00    +0.000 A 
ATOM      9  N   UNL     1      -3.739  12.709  20.957  0.00  0.00    +0.000 NA
ATOM     10  C   UNL     1      -3.984  12.164  19.710  0.00  0.00    +0.000 A 
ATOM     11  C   UNL     1      -3.140  11.770  18.659  0.00  0.00    +0.000 A 
ATOM     12  C   UNL     1      -3.856  11.289  17.553  0.00  0.00    +0.000 A 
ATOM     13  N   UNL     1      -5.208  11.169  17.444  0.00  0.00    +0.000 NA
ATOM     14  N   UNL     1      -5.975  11.538  18.440  0.00  0.00    +0.000 NA
ATOM     15  C   UNL     1      -5.354  12.023  19.526  0.00  0.00    +0.000 A 
BRANCH   7  17
ATOM     16  C   UNL     1      -7.911  11.269  21.482  0.00  0.00    +0.000 C 
ATOM     17  C   UNL     1      -7.349  12.569  20.936  0.00  0.00    +0.000 C 
ENDBRANCH   7  17
ENDBRANCH   1  11
BRANCH   5  18
ATOM     18  C   UNL     1       1.245   9.479  19.175  0.00  0.00    +0.000 A 
ATOM     19  C   UNL     1       1.928   8.947  18.058  0.00  0.00    +0.000 A 
ATOM     20  C   UNL     1       2.540   7.696  18.063  0.00  0.00    +0.000 A 
ATOM     21  C   UNL     1       2.453   6.913  19.200  0.00  0.00    +0.000 A 
ATOM     22  C   UNL     1       1.759   7.363  20.316  0.00  0.00    +0.000 A 
ATOM     23  C   UNL     1       1.137   8.627  20.315  0.00  0.00    +0.000 A 
BRANCH  21  24
ATOM     24  S   UNL     1       3.133   5.278  19.195  0.00  0.00    +0.000 S 
ATOM     25  O   UNL     1       2.760   4.649  17.944  0.00  0.00    +0.000 OA
ATOM     26  O   UNL     1       4.531   5.407  19.584  0.00  0.00    +0.000 OA
BRANCH  24  27
ATOM     27  C   UNL     1       2.272   4.438  20.508  0.00  0.00    +0.000 C 
ATOM     28  C   UNL     1       1.043   3.733  19.974  0.00  0.00    +0.000 C 
ENDBRANCH  24  27
ENDBRANCH  21  24
BRANCH  23  29
ATOM     29  O   UNL     1       0.433   9.058  21.421  0.00  0.00    +0.000 OA
ATOM     30  C   UNL     1       1.180   9.822  22.380  0.00  0.00    +0.000 C 
ENDBRANCH  23  29
ENDBRANCH   5  18
BRANCH   4  31
ATOM     31  C   UNL     1       2.672  12.216  18.313  0.00  0.00    +0.000 C 
BRANCH  31  32
ATOM     32  O   UNL     1       2.997  13.387  17.589  0.00  0.00    +0.000 OA
ATOM     33  H   UNL     1       2.178  13.902  17.505  0.00  0.00    +0.000 HD
ENDBRANCH  31  32
ENDBRANCH   4  31
TORSDOF 8
ENDMDL
MODEL 5
REMARK VINA RESULT:      -7.2      4.132      6.449
REMARK  Name = 
REMARK  11 active torsions:
REMARK  status: ('A' for Active; 'I' for Inactive)
REMARK    1  A    between atoms: C_1  and  C_2
REMARK    2  A    between atoms: C_2  and  N_3
REMARK    3  A    between atoms: C_7  and  C_8
REMARK    4  A    between atoms: C_11  and  C_12
REMARK    5  A    between atoms: C_12  and  O_13
REMARK    6  A    between atoms: C_14  and  C_15
REMARK    7  A    between atoms: C_18  and  S_19
REMARK    8  A    between atoms: S_19  and  C_22
REMARK    9  A    between atoms: C_22  and  C_23
REMARK   10  A    between atoms: C_25  and  O_26
REMARK   11  A    between atoms: O_26  and  C_27
REMARK                            x       y       z     vdW  Elec       q    Type
REMARK                         _______ _______ _______ _____ _____    ______ ____
ROOT
ATOM      1  C   UNL     1       1.415  13.650  18.787  0.00  0.00    +0.000 A 
ATOM      2  C   UNL     1       0.058  13.931  18.626  0.00  0.00    +0.000 A 
ATOM      3  C   UNL     1      -0.871  12.904  18.463  0.00  0.00    +0.000 A 
ATOM      4  C   UNL     1      -0.499  11.540  18.490  0.00  0.00    +0.000 A 
ATOM      5  C   UNL     1       0.869  11.207  18.698  0.00  0.00    +0.000 A 
ATOM      6  C   UNL     1       1.783  12.289  18.775  0.00  0.00    +0.000 A 
ENDROOT
BRANCH   1  11
ATOM      7  N   UNL     1       4.794  15.548  21.501  0.00  0.00    +0.000 N 
ATOM      8  C   UNL     1       4.266  14.419  22.062  0.00  0.00    +0.000 A 
ATOM      9  N   UNL     1       3.307  13.909  21.318  0.00  0.00    +0.000 NA
ATOM     10  C   UNL     1       3.216  14.734  20.212  0.00  0.00    +0.000 A 
ATOM     11  C   UNL     1       2.410  14.703  19.063  0.00  0.00    +0.000 A 
ATOM     12  C   UNL     1       2.697  15.755  18.182  0.00  0.00    +0.000 A 
ATOM     13  N   UNL     1       3.621  16.739  18.359  0.00  0.00    +0.000 NA
ATOM     14  N   UNL     1       4.358  16.751  19.441  0.00  0.00    +0.000 NA
ATOM     15  C   UNL     1       4.145  15.761  20.322  0.00  0.00    +0.000 A 
BRANCH   7  17
ATOM     16  C   UNL     1       7.236  15.862  21.573  0.00  0.00    +0.000 C 
ATOM     17  C   UNL     1       5.874  16.348  22.034  0.00  0.00    +0.000 C 
ENDBRANCH   7  17
ENDBRANCH   1  11
BRANCH   5  18
ATOM     18  C   UNL     1       1.386   9.834  19.037  0.00  0.00    +0.000 A 
ATOM     19  C   UNL     1       1.948   9.071  17.990  0.00  0.00    +0.000 A 
ATOM     20  C   UNL     1       2.394   7.761  18.154  0.00  0.00    +0.000 A 
ATOM     21  C   UNL     1       2.254   7.158  19.390  0.00  0.00    +0.000 A 
ATOM     22  C   UNL     1       1.670   7.843  20.449  0.00  0.00    +0.000 A 
ATOM     23  C   UNL     1       1.216   9.166  20.287  0.00  0.00    +0.000 A 
BRANCH  21  24
ATOM     24  S   UNL     1       2.718   5.462  19.598  0.00  0.00    +0.000 S 
ATOM     25  O   UNL     1       4.166   5.398  19.603  0.00  0.00    +0.000 OA
ATOM     26  O   UNL     1       1.939   4.951  20.717  0.00  0.00    +0.000 OA
BRANCH  24  27
ATOM     27  C   UNL     1       2.141   4.661  18.116  0.00  0.00    +0.000 C 
ATOM     28  C   UNL     1       1.474   3.343  18.447  0.00  0.00    +0.000 C 
ENDBRANCH  24  27
ENDBRANCH  21  24
BRANCH  23  29
ATOM     29  O   UNL     1       0.620   9.832  21.338  0.00  0.00    +0.000 OA
ATOM     30  C   UNL     1      -0.248   9.044  22.167  0.00  0.00    +0.000 C 
ENDBRANCH  23  29
ENDBRANCH   5  18
BRANCH   4  31
ATOM     31  C   UNL     1      -1.671  10.575  18.423  0.00  0.00    +0.000 C 
BRANCH  31  32
ATOM     32  O   UNL     1      -1.754   9.817  17.232  0.00  0.00    +0.000 OA
ATOM     33  H   UNL     1      -1.249  10.299  16.556  0.00  0.00    +0.000 HD
ENDBRANCH  31  32
ENDBRANCH   4  31
TORSDOF 8
ENDMDL
MODEL 6
REMARK VINA RESULT:      -7.1      1.424      2.151
REMARK  Name = 
REMARK  11 active torsions:
REMARK  status: ('A' for Active; 'I' for Inactive)
REMARK    1  A    between atoms: C_1  and  C_2
REMARK    2  A    between atoms: C_2  and  N_3
REMARK    3  A    between atoms: C_7  and  C_8
REMARK    4  A    between atoms: C_11  and  C_12
REMARK    5  A    between atoms: C_12  and  O_13
REMARK    6  A    between atoms: C_14  and  C_15
REMARK    7  A    between atoms: C_18  and  S_19
REMARK    8  A    between atoms: S_19  and  C_22
REMARK    9  A    between atoms: C_22  and  C_23
REMARK   10  A    between atoms: C_25  and  O_26
REMARK   11  A    between atoms: O_26  and  C_27
REMARK                            x       y       z     vdW  Elec       q    Type
REMARK                         _______ _______ _______ _____ _____    ______ ____
ROOT
ATOM      1  C   UNL     1      -1.367  12.867  19.887  0.00  0.00    +0.000 A 
ATOM      2  C   UNL     1      -0.767  13.893  19.157  0.00  0.00    +0.000 A 
ATOM      3  C   UNL     1       0.533  13.760  18.670  0.00  0.00    +0.000 A 
ATOM      4  C   UNL     1       1.289  12.579  18.853  0.00  0.00    +0.000 A 
ATOM      5  C   UNL     1       0.699  11.489  19.553  0.00  0.00    +0.000 A 
ATOM      6  C   UNL     1      -0.592  11.707  20.098  0.00  0.00    +0.000 A 
ENDROOT
BRANCH   1  11
ATOM      7  N   UNL     1      -5.935  11.759  19.348  0.00  0.00    +0.000 N 
ATOM      8  C   UNL     1      -5.170  11.268  18.328  0.00  0.00    +0.000 A 
ATOM      9  N   UNL     1      -3.903  11.601  18.466  0.00  0.00    +0.000 NA
ATOM     10  C   UNL     1      -3.837  12.330  19.639  0.00  0.00    +0.000 A 
ATOM     11  C   UNL     1      -2.772  12.931  20.329  0.00  0.00    +0.000 A 
ATOM     12  C   UNL     1      -3.188  13.552  21.515  0.00  0.00    +0.000 A 
ATOM     13  N   UNL     1      -4.460  13.622  21.998  0.00  0.00    +0.000 NA
ATOM     14  N   UNL     1      -5.438  13.059  21.334  0.00  0.00    +0.000 NA
ATOM     15  C   UNL     1      -5.106  12.432  20.195  0.00  0.00    +0.000 A 
BRANCH   7  17
ATOM     16  C   UNL     1      -7.672  10.507  20.565  0.00  0.00    +0.000 C 
ATOM     17  C   UNL     1      -7.357  11.566  19.525  0.00  0.00    +0.000 C 
ENDBRANCH   7  17
ENDBRANCH   1  11
BRANCH   5  18
ATOM     18  C   UNL     1       1.241  10.085  19.588  0.00  0.00    +0.000 A 
ATOM     19  C   UNL     1       1.639   9.508  18.361  0.00  0.00    +0.000 A 
ATOM     20  C   UNL     1       2.086   8.194  18.246  0.00  0.00    +0.000 A 
ATOM     21  C   UNL     1       2.115   7.396  19.375  0.00  0.00    +0.000 A 
ATOM     22  C   UNL     1       1.697   7.894  20.603  0.00  0.00    +0.000 A 
ATOM     23  C   UNL     1       1.242   9.221  20.724  0.00  0.00    +0.000 A 
BRANCH  21  24
ATOM     24  S   UNL     1       2.582   5.693  19.237  0.00  0.00    +0.000 S 
ATOM     25  O   UNL     1       1.966   5.164  18.036  0.00  0.00    +0.000 OA
ATOM     26  O   UNL     1       4.024   5.640  19.428  0.00  0.00    +0.000 OA
BRANCH  24  27
ATOM     27  C   UNL     1       1.811   4.909  20.638  0.00  0.00    +0.000 C 
ATOM     28  C   UNL     1       0.905   3.783  20.186  0.00  0.00    +0.000 C 
ENDBRANCH  24  27
ENDBRANCH  21  24
BRANCH  23  29
ATOM     29  O   UNL     1       0.809   9.701  21.943  0.00  0.00    +0.000 OA
ATOM     30  C   UNL     1      -0.343   9.050  22.500  0.00  0.00    +0.000 C 
ENDBRANCH  23  29
ENDBRANCH   5  18
BRANCH   4  31
ATOM     31  C   UNL     1       2.630  12.583  18.139  0.00  0.00    +0.000 C 
BRANCH  31  32
ATOM     32  O   UNL     1       2.974  13.807  17.520  0.00  0.00    +0.000 OA
ATOM     33  H   UNL     1       2.973  13.647  16.562  0.00  0.00    +0.000 HD
ENDBRANCH  31  32
ENDBRANCH   4  31
TORSDOF 8
ENDMDL
MODEL 7
REMARK VINA RESULT:      -7.1      4.230      6.471
REMARK  Name = 
REMARK  11 active torsions:
REMARK  status: ('A' for Active; 'I' for Inactive)
REMARK    1  A    between atoms: C_1  and  C_2
REMARK    2  A    between atoms: C_2  and  N_3
REMARK    3  A    between atoms: C_7  and  C_8
REMARK    4  A    between atoms: C_11  and  C_12
REMARK    5  A    between atoms: C_12  and  O_13
REMARK    6  A    between atoms: C_14  and  C_15
REMARK    7  A    between atoms: C_18  and  S_19
REMARK    8  A    between atoms: S_19  and  C_22
REMARK    9  A    between atoms: C_22  and  C_23
REMARK   10  A    between atoms: C_25  and  O_26
REMARK   11  A    between atoms: O_26  and  C_27
REMARK                            x       y       z     vdW  Elec       q    Type
REMARK                         _______ _______ _______ _____ _____    ______ ____
ROOT
ATOM      1  C   UNL     1       1.438  13.643  18.852  0.00  0.00    +0.000 A 
ATOM      2  C   UNL     1       0.075  13.927  18.774  0.00  0.00    +0.000 A 
ATOM      3  C   UNL     1      -0.863  12.905  18.630  0.00  0.00    +0.000 A 
ATOM      4  C   UNL     1      -0.491  11.541  18.598  0.00  0.00    +0.000 A 
ATOM      5  C   UNL     1       0.886  11.202  18.721  0.00  0.00    +0.000 A 
ATOM      6  C   UNL     1       1.804  12.283  18.781  0.00  0.00    +0.000 A 
ENDROOT
BRANCH   1  11
ATOM      7  N   UNL     1       4.872  15.530  21.503  0.00  0.00    +0.000 N 
ATOM      8  C   UNL     1       4.340  14.413  22.083  0.00  0.00    +0.000 A 
ATOM      9  N   UNL     1       3.366  13.905  21.356  0.00  0.00    +0.000 NA
ATOM     10  C   UNL     1       3.269  14.721  20.243  0.00  0.00    +0.000 A 
ATOM     11  C   UNL     1       2.447  14.687  19.106  0.00  0.00    +0.000 A 
ATOM     12  C   UNL     1       2.734  15.728  18.210  0.00  0.00    +0.000 A 
ATOM     13  N   UNL     1       3.670  16.704  18.366  0.00  0.00    +0.000 NA
ATOM     14  N   UNL     1       4.422  16.719  19.438  0.00  0.00    +0.000 NA
ATOM     15  C   UNL     1       4.210  15.739  20.331  0.00  0.00    +0.000 A 
BRANCH   7  17
ATOM     16  C   UNL     1       5.558  17.180  23.199  0.00  0.00    +0.000 C 
ATOM     17  C   UNL     1       5.967  16.324  22.014  0.00  0.00    +0.000 C 
ENDBRANCH   7  17
ENDBRANCH   1  11
BRANCH   5  18
ATOM     18  C   UNL     1       1.419   9.821  18.991  0.00  0.00    +0.000 A 
ATOM     19  C   UNL     1       1.954   9.102  17.899  0.00  0.00    +0.000 A 
ATOM     20  C   UNL     1       2.411   7.790  17.999  0.00  0.00    +0.000 A 
ATOM     21  C   UNL     1       2.310   7.138  19.214  0.00  0.00    +0.000 A 
ATOM     22  C   UNL     1       1.754   7.778  20.315  0.00  0.00    +0.000 A 
ATOM     23  C   UNL     1       1.289   9.104  20.219  0.00  0.00    +0.000 A 
BRANCH  21  24
ATOM     24  S   UNL     1       2.788   5.438  19.342  0.00  0.00    +0.000 S 
ATOM     25  O   UNL     1       2.275   4.747  18.175  0.00  0.00    +0.000 OA
ATOM     26  O   UNL     1       4.210   5.427  19.656  0.00  0.00    +0.000 OA
BRANCH  24  27
ATOM     27  C   UNL     1       1.905   4.837  20.767  0.00  0.00    +0.000 C 
ATOM     28  C   UNL     1       1.137   3.577  20.425  0.00  0.00    +0.000 C 
ENDBRANCH  24  27
ENDBRANCH  21  24
BRANCH  23  29
ATOM     29  O   UNL     1       0.720   9.725  21.311  0.00  0.00    +0.000 OA
ATOM     30  C   UNL     1      -0.309   8.985  21.986  0.00  0.00    +0.000 C 
ENDBRANCH  23  29
ENDBRANCH   5  18
BRANCH   4  31
ATOM     31  C   UNL     1      -1.666  10.578  18.565  0.00  0.00    +0.000 C 
BRANCH  31  32
ATOM     32  O   UNL     1      -2.780  11.018  17.813  0.00  0.00    +0.000 OA
ATOM     33  H   UNL     1      -2.632  10.730  16.898  0.00  0.00    +0.000 HD
ENDBRANCH  31  32
ENDBRANCH   4  31
TORSDOF 8
ENDMDL
MODEL 8
REMARK VINA RESULT:      -7.0      2.409      3.268
REMARK  Name = 
REMARK  11 active torsions:
REMARK  status: ('A' for Active; 'I' for Inactive)
REMARK    1  A    between atoms: C_1  and  C_2
REMARK    2  A    between atoms: C_2  and  N_3
REMARK    3  A    between atoms: C_7  and  C_8
REMARK    4  A    between atoms: C_11  and  C_12
REMARK    5  A    between atoms: C_12  and  O_13
REMARK    6  A    between atoms: C_14  and  C_15
REMARK    7  A    between atoms: C_18  and  S_19
REMARK    8  A    between atoms: S_19  and  C_22
REMARK    9  A    between atoms: C_22  and  C_23
REMARK   10  A    between atoms: C_25  and  O_26
REMARK   11  A    between atoms: O_26  and  C_27
REMARK                            x       y       z     vdW  Elec       q    Type
REMARK                         _______ _______ _______ _____ _____    ______ ____
ROOT
ATOM      1  C   UNL     1      -1.369  10.313  19.023  0.00  0.00    +0.000 A 
ATOM      2  C   UNL     1      -1.310  10.957  20.259  0.00  0.00    +0.000 A 
ATOM      3  C   UNL     1      -0.316  10.641  21.185  0.00  0.00    +0.000 A 
ATOM      4  C   UNL     1       0.697   9.694  20.909  0.00  0.00    +0.000 A 
ATOM      5  C   UNL     1       0.703   9.046  19.642  0.00  0.00    +0.000 A 
ATOM      6  C   UNL     1      -0.377   9.342  18.771  0.00  0.00    +0.000 A 
ENDROOT
BRANCH   1  11
ATOM      7  N   UNL     1      -5.425  12.350  17.689  0.00  0.00    +0.000 N 
ATOM      8  C   UNL     1      -5.253  12.401  19.044  0.00  0.00    +0.000 A 
ATOM      9  N   UNL     1      -4.137  11.809  19.415  0.00  0.00    +0.000 NA
ATOM     10  C   UNL     1      -3.545  11.365  18.246  0.00  0.00    +0.000 A 
ATOM     11  C   UNL     1      -2.342  10.692  17.983  0.00  0.00    +0.000 A 
ATOM     12  C   UNL     1      -2.143  10.472  16.612  0.00  0.00    +0.000 A 
ATOM     13  N   UNL     1      -2.982  10.823  15.599  0.00  0.00    +0.000 NA
ATOM     14  N   UNL     1      -4.103  11.445  15.869  0.00  0.00    +0.000 NA
ATOM     15  C   UNL     1      -4.347  11.702  17.163  0.00  0.00    +0.000 A 
BRANCH   7  17
ATOM     16  C   UNL     1      -7.649  13.398  17.840  0.00  0.00    +0.000 C 
ATOM     17  C   UNL     1      -6.524  12.918  16.941  0.00  0.00    +0.000 C 
ENDBRANCH   7  17
ENDBRANCH   1  11
BRANCH   5  18
ATOM     18  C   UNL     1       1.847   8.243  19.083  0.00  0.00    +0.000 A 
ATOM     19  C   UNL     1       2.475   8.725  17.913  0.00  0.00    +0.000 A 
ATOM     20  C   UNL     1       3.493   8.040  17.256  0.00  0.00    +0.000 A 
ATOM     21  C   UNL     1       3.895   6.810  17.743  0.00  0.00    +0.000 A 
ATOM     22  C   UNL     1       3.287   6.263  18.866  0.00  0.00    +0.000 A 
ATOM     23  C   UNL     1       2.255   6.951  19.533  0.00  0.00    +0.000 A 
BRANCH  21  24
ATOM     24  S   UNL     1       5.115   5.873  16.867  0.00  0.00    +0.000 S 
ATOM     25  O   UNL     1       4.680   4.490  16.850  0.00  0.00    +0.000 OA
ATOM     26  O   UNL     1       5.382   6.591  15.628  0.00  0.00    +0.000 OA
BRANCH  24  27
ATOM     27  C   UNL     1       6.570   5.976  17.888  0.00  0.00    +0.000 C 
ATOM     28  C   UNL     1       7.382   7.205  17.534  0.00  0.00    +0.000 C 
ENDBRANCH  24  27
ENDBRANCH  21  24
BRANCH  23  29
ATOM     29  O   UNL     1       1.642   6.391  20.636  0.00  0.00    +0.000 OA
ATOM     30  C   UNL     1       1.886   4.991  20.844  0.00  0.00    +0.000 C 
ENDBRANCH  23  29
ENDBRANCH   5  18
BRANCH   4  31
ATOM     31  C   UNL     1       1.758   9.586  21.991  0.00  0.00    +0.000 C 
BRANCH  31  32
ATOM     32  O   UNL     1       1.269   9.647  23.317  0.00  0.00    +0.000 OA
ATOM     33  H   UNL     1       0.301   9.584  23.262  0.00  0.00    +0.000 HD
ENDBRANCH  31  32
ENDBRANCH   4  31
TORSDOF 8
ENDMDL
MODEL 9
REMARK VINA RESULT:      -7.0      5.960     10.339
REMARK  Name = 
REMARK  11 active torsions:
REMARK  status: ('A' for Active; 'I' for Inactive)
REMARK    1  A    between atoms: C_1  and  C_2
REMARK    2  A    between atoms: C_2  and  N_3
REMARK    3  A    between atoms: C_7  and  C_8
REMARK    4  A    between atoms: C_11  and  C_12
REMARK    5  A    between atoms: C_12  and  O_13
REMARK    6  A    between atoms: C_14  and  C_15
REMARK    7  A    between atoms: C_18  and  S_19
REMARK    8  A    between atoms: S_19  and  C_22
REMARK    9  A    between atoms: C_22  and  C_23
REMARK   10  A    between atoms: C_25  and  O_26
REMARK   11  A    between atoms: O_26  and  C_27
REMARK                            x       y       z     vdW  Elec       q    Type
REMARK                         _______ _______ _______ _____ _____    ______ ____
ROOT
ATOM      1  C   UNL     1       4.503   5.610  18.049  0.00  0.00    +0.000 A 
ATOM      2  C   UNL     1       4.058   4.389  18.558  0.00  0.00    +0.000 A 
ATOM      3  C   UNL     1       2.937   4.324  19.386  0.00  0.00    +0.000 A 
ATOM      4  C   UNL     1       2.178   5.470  19.717  0.00  0.00    +0.000 A 
ATOM      5  C   UNL     1       2.568   6.730  19.183  0.00  0.00    +0.000 A 
ATOM      6  C   UNL     1       3.762   6.753  18.416  0.00  0.00    +0.000 A 
ENDROOT
BRANCH   1  11
ATOM      7  N   UNL     1       6.530   4.489  13.924  0.00  0.00    +0.000 N 
ATOM      8  C   UNL     1       5.330   3.854  14.089  0.00  0.00    +0.000 A 
ATOM      9  N   UNL     1       4.781   4.147  15.250  0.00  0.00    +0.000 NA
ATOM     10  C   UNL     1       5.656   5.025  15.864  0.00  0.00    +0.000 A 
ATOM     11  C   UNL     1       5.619   5.704  17.092  0.00  0.00    +0.000 A 
ATOM     12  C   UNL     1       6.740   6.527  17.279  0.00  0.00    +0.000 A 
ATOM     13  N   UNL     1       7.789   6.685  16.425  0.00  0.00    +0.000 NA
ATOM     14  N   UNL     1       7.804   6.037  15.288  0.00  0.00    +0.000 NA
ATOM     15  C   UNL     1       6.751   5.242  15.038  0.00  0.00    +0.000 A 
BRANCH   7  17
ATOM     16  C   UNL     1       6.943   3.342  11.783  0.00  0.00    +0.000 C 
ATOM     17  C   UNL     1       7.388   4.413  12.764  0.00  0.00    +0.000 C 
ENDBRANCH   7  17
ENDBRANCH   1  11
BRANCH   5  18
ATOM     18  C   UNL     1       1.727   7.977  19.197  0.00  0.00    +0.000 A 
ATOM     19  C   UNL     1       1.441   8.587  17.955  0.00  0.00    +0.000 A 
ATOM     20  C   UNL     1       0.737   9.783  17.836  0.00  0.00    +0.000 A 
ATOM     21  C   UNL     1       0.321  10.431  18.985  0.00  0.00    +0.000 A 
ATOM     22  C   UNL     1       0.609   9.903  20.237  0.00  0.00    +0.000 A 
ATOM     23  C   UNL     1       1.322   8.695  20.363  0.00  0.00    +0.000 A 
BRANCH  21  24
ATOM     24  S   UNL     1      -0.484  12.004  18.865  0.00  0.00    +0.000 S 
ATOM     25  O   UNL     1      -1.462  11.917  17.798  0.00  0.00    +0.000 OA
ATOM     26  O   UNL     1      -0.878  12.375  20.217  0.00  0.00    +0.000 OA
BRANCH  24  27
ATOM     27  C   UNL     1       0.801  13.119  18.340  0.00  0.00    +0.000 C 
ATOM     28  C   UNL     1       2.038  12.948  19.197  0.00  0.00    +0.000 C 
ENDBRANCH  24  27
ENDBRANCH  21  24
BRANCH  23  29
ATOM     29  O   UNL     1       1.620   8.187  21.610  0.00  0.00    +0.000 OA
ATOM     30  C   UNL     1       1.331   9.049  22.722  0.00  0.00    +0.000 C 
ENDBRANCH  23  29
ENDBRANCH   5  18
BRANCH   4  31
ATOM     31  C   UNL     1       0.924   5.172  20.523  0.00  0.00    +0.000 C 
BRANCH  31  32
ATOM     32  O   UNL     1       0.485   3.829  20.471  0.00  0.00    +0.000 OA
ATOM     33  H   UNL     1       1.208   3.312  20.080  0.00  0.00    +0.000 HD
ENDBRANCH  31  32
ENDBRANCH   4  31
TORSDOF 8
ENDMDL
