MODEL 1
REMARK VINA RESULT:      -7.8      0.000      0.000
REMARK  Name = 
REMARK  6 active torsions:
REMARK  status: ('A' for Active; 'I' for Inactive)
REMARK    1  A    between atoms: C_2  and  C_3
REMARK    2  A    between atoms: C_6  and  C_7
REMARK    3  A    between atoms: C_7  and  N_8
REMARK    4  A    between atoms: N_8  and  C_9
REMARK    5  A    between atoms: C_16  and  C_17
REMARK    6  A    between atoms: N_19  and  O_20
REMARK                            x       y       z     vdW  Elec       q    Type
REMARK                         _______ _______ _______ _____ _____    ______ ____
ROOT
ATOM      1  C   UNL     1       6.847   7.309  17.456  0.00  0.00    +0.000 C 
ATOM      2  C   UNL     1       6.648   6.500  16.195  0.00  0.00    +0.000 C 
ATOM      3  C   UNL     1       5.558   5.473  16.108  0.00  0.00    +0.000 C 
ATOM      4  N   UNL     1       5.878   4.507  17.158  0.00  0.00    +0.000 N 
ATOM      5  C   UNL     1       4.838   4.075  17.952  0.00  0.00    +0.000 A 
ATOM      6  N   UNL     1       3.602   3.981  17.421  0.00  0.00    +0.000 NA
ATOM      7  C   UNL     1       2.590   3.592  18.233  0.00  0.00    +0.000 A 
ATOM      8  C   UNL     1       2.754   3.323  19.570  0.00  0.00    +0.000 A 
ATOM      9  C   UNL     1       4.046   3.422  20.021  0.00  0.00    +0.000 A 
ATOM     10  N   UNL     1       5.084   3.779  19.238  0.00  0.00    +0.000 NA
ATOM     11  C   UNL     1       7.178   4.751  17.788  0.00  0.00    +0.000 C 
ATOM     12  C   UNL     1       7.637   6.051  17.208  0.00  0.00    +0.000 C 
ENDROOT
BRANCH   8  13
ATOM     13  C   UNL     1       1.688   2.933  20.499  0.00  0.00    +0.000 C 
ATOM     14  O   UNL     1       0.533   2.804  20.103  0.00  0.00    +0.000 OA
ATOM     15  N   UNL     1       2.038   2.679  21.804  0.00  0.00    +0.000 N 
ATOM     16  H   UNL     1       2.976   2.623  22.184  0.00  0.00    +0.000 HD
BRANCH  15  17
ATOM     17  O   UNL     1       0.995   2.197  22.630  0.00  0.00    +0.000 OA
ATOM     18  H   UNL     1       0.272   2.028  21.985  0.00  0.00    +0.000 HD
ENDBRANCH  15  17
ENDBRANCH   8  13
BRANCH   1  19
ATOM     19  N   UNL     1       7.566   8.590  17.432  0.00  0.00    +0.000 NA
ATOM     20  H   UNL     1       7.988   8.738  16.513  0.00  0.00    +0.000 HD
BRANCH  19  21
ATOM     21  C   UNL     1       8.618   8.651  18.445  0.00  0.00    +0.000 C 
BRANCH  21  25
ATOM     22  C   UNL     1       9.824  12.692  19.400  0.00  0.00    +0.000 A 
ATOM     23  C   UNL     1       9.825  11.705  20.390  0.00  0.00    +0.000 A 
ATOM     24  C   UNL     1       9.413  10.406  20.083  0.00  0.00    +0.000 A 
ATOM     25  C   UNL     1       8.993  10.075  18.786  0.00  0.00    +0.000 A 
ATOM     26  C   UNL     1       8.986  11.073  17.802  0.00  0.00    +0.000 A 
ATOM     27  C   UNL     1       9.400  12.373  18.106  0.00  0.00    +0.000 A 
BRANCH  22  29
ATOM     28  N   UNL     1      10.629  15.094  19.958  0.00  0.00    +0.000 NA
ATOM     29  C   UNL     1      10.267  14.024  19.707  0.00  0.00    +0.000 C 
ENDBRANCH  22  29
ENDBRANCH  21  25
ENDBRANCH  19  21
ENDBRANCH   1  19
TORSDOF 6
ENDMDL
MODEL 2
REMARK VINA RESULT:      -7.5      0.775      1.300
REMARK  Name = 
REMARK  6 active torsions:
REMARK  status: ('A' for Active; 'I' for Inactive)
REMARK    1  A    between atoms: C_2  and  C_3
REMARK    2  A    between atoms: C_6  and  C_7
REMARK    3  A    between atoms: C_7  and  N_8
REMARK    4  A    between atoms: N_8  and  C_9
REMARK    5  A    between atoms: C_16  and  C_17
REMARK    6  A    between atoms: N_19  and  O_20
REMARK                            x       y       z     vdW  Elec       q    Type
REMARK                         _______ _______ _______ _____ _____    ______ ____
ROOT
ATOM      1  C   UNL     1       6.902   7.273  17.467  0.00  0.00    +0.000 C 
ATOM      2  C   UNL     1       6.057   6.927  16.264  0.00  0.00    +0.000 C 
ATOM      3  C   UNL     1       4.825   6.082  16.409  0.00  0.00    +0.000 C 
ATOM      4  N   UNL     1       5.313   4.809  16.936  0.00  0.00    +0.000 N 
ATOM      5  C   UNL     1       4.599   4.243  17.970  0.00  0.00    +0.000 A 
ATOM      6  N   UNL     1       3.266   4.432  18.028  0.00  0.00    +0.000 NA
ATOM      7  C   UNL     1       2.594   3.898  19.076  0.00  0.00    +0.000 A 
ATOM      8  C   UNL     1       3.204   3.205  20.092  0.00  0.00    +0.000 A 
ATOM      9  C   UNL     1       4.558   3.039  19.941  0.00  0.00    +0.000 A 
ATOM     10  N   UNL     1       5.258   3.532  18.899  0.00  0.00    +0.000 NA
ATOM     11  C   UNL     1       6.775   4.722  16.972  0.00  0.00    +0.000 C 
ATOM     12  C   UNL     1       7.240   6.093  16.594  0.00  0.00    +0.000 C 
ENDROOT
BRANCH   8  13
ATOM     13  C   UNL     1       2.529   2.638  21.265  0.00  0.00    +0.000 C 
ATOM     14  O   UNL     1       3.175   2.059  22.135  0.00  0.00    +0.000 OA
ATOM     15  N   UNL     1       1.170   2.817  21.371  0.00  0.00    +0.000 N 
ATOM     16  H   UNL     1       0.584   3.396  20.780  0.00  0.00    +0.000 HD
BRANCH  15  17
ATOM     17  O   UNL     1       0.588   2.351  22.572  0.00  0.00    +0.000 OA
ATOM     18  H   UNL     1       0.995   2.937  23.249  0.00  0.00    +0.000 HD
ENDBRANCH  15  17
ENDBRANCH   8  13
BRANCH   1  19
ATOM     19  N   UNL     1       7.813   8.426  17.451  0.00  0.00    +0.000 NA
ATOM     20  H   UNL     1       8.486   8.330  16.688  0.00  0.00    +0.000 HD
BRANCH  19  21
ATOM     21  C   UNL     1       8.547   8.566  18.707  0.00  0.00    +0.000 C 
BRANCH  21  25
ATOM     22  C   UNL     1       9.933  12.625  19.259  0.00  0.00    +0.000 A 
ATOM     23  C   UNL     1       9.666  12.141  17.975  0.00  0.00    +0.000 A 
ATOM     24  C   UNL     1       9.240  10.823  17.798  0.00  0.00    +0.000 A 
ATOM     25  C   UNL     1       9.077   9.968  18.900  0.00  0.00    +0.000 A 
ATOM     26  C   UNL     1       9.357  10.458  20.183  0.00  0.00    +0.000 A 
ATOM     27  C   UNL     1       9.780  11.778  20.362  0.00  0.00    +0.000 A 
BRANCH  22  29
ATOM     28  N   UNL     1      10.680  15.085  19.599  0.00  0.00    +0.000 NA
ATOM     29  C   UNL     1      10.350  13.987  19.446  0.00  0.00    +0.000 C 
ENDBRANCH  22  29
ENDBRANCH  21  25
ENDBRANCH  19  21
ENDBRANCH   1  19
TORSDOF 6
ENDMDL
MODEL 3
REMARK VINA RESULT:      -7.5      6.000      8.225
REMARK  Name = 
REMARK  6 active torsions:
REMARK  status: ('A' for Active; 'I' for Inactive)
REMARK    1  A    between atoms: C_2  and  C_3
REMARK    2  A    between atoms: C_6  and  C_7
REMARK    3  A    between atoms: C_7  and  N_8
REMARK    4  A    between atoms: N_8  and  C_9
REMARK    5  A    between atoms: C_16  and  C_17
REMARK    6  A    between atoms: N_19  and  O_20
REMARK                            x       y       z     vdW  Elec       q    Type
REMARK                         _______ _______ _______ _____ _____    ______ ____
ROOT
ATOM      1  C   UNL     1       2.059   6.145  20.195  0.00  0.00    +0.000 C 
ATOM      2  C   UNL     1       2.637   4.932  20.886  0.00  0.00    +0.000 C 
ATOM      3  C   UNL     1       3.811   4.202  20.301  0.00  0.00    +0.000 C 
ATOM      4  N   UNL     1       3.340   3.735  18.998  0.00  0.00    +0.000 N 
ATOM      5  C   UNL     1       4.192   3.897  17.928  0.00  0.00    +0.000 A 
ATOM      6  N   UNL     1       5.523   3.831  18.132  0.00  0.00    +0.000 NA
ATOM      7  C   UNL     1       6.339   4.033  17.070  0.00  0.00    +0.000 A 
ATOM      8  C   UNL     1       5.882   4.333  15.811  0.00  0.00    +0.000 A 
ATOM      9  C   UNL     1       4.515   4.358  15.688  0.00  0.00    +0.000 A 
ATOM     10  N   UNL     1       3.669   4.135  16.715  0.00  0.00    +0.000 NA
ATOM     11  C   UNL     1       1.908   3.963  18.787  0.00  0.00    +0.000 C 
ATOM     12  C   UNL     1       1.480   4.772  19.970  0.00  0.00    +0.000 C 
ENDROOT
BRANCH   8  13
ATOM     13  C   UNL     1       6.721   4.596  14.637  0.00  0.00    +0.000 C 
ATOM     14  O   UNL     1       6.499   4.024  13.572  0.00  0.00    +0.000 OA
ATOM     15  N   UNL     1       7.725   5.527  14.763  0.00  0.00    +0.000 N 
ATOM     16  H   UNL     1       7.890   6.143  15.551  0.00  0.00    +0.000 HD
BRANCH  15  17
ATOM     17  O   UNL     1       8.430   5.825  13.573  0.00  0.00    +0.000 OA
ATOM     18  H   UNL     1       7.844   6.484  13.137  0.00  0.00    +0.000 HD
ENDBRANCH  15  17
ENDBRANCH   8  13
BRANCH   1  19
ATOM     19  N   UNL     1       1.247   7.124  20.930  0.00  0.00    +0.000 NA
ATOM     20  H   UNL     1       0.256   6.886  20.853  0.00  0.00    +0.000 HD
BRANCH  19  21
ATOM     21  C   UNL     1       1.440   8.485  20.432  0.00  0.00    +0.000 C 
BRANCH  21  25
ATOM     22  C   UNL     1      -1.183  11.279  22.435  0.00  0.00    +0.000 A 
ATOM     23  C   UNL     1      -0.714  11.554  21.147  0.00  0.00    +0.000 A 
ATOM     24  C   UNL     1       0.152  10.660  20.512  0.00  0.00    +0.000 A 
ATOM     25  C   UNL     1       0.562   9.481  21.153  0.00  0.00    +0.000 A 
ATOM     26  C   UNL     1       0.094   9.218  22.448  0.00  0.00    +0.000 A 
ATOM     27  C   UNL     1      -0.774  10.110  23.085  0.00  0.00    +0.000 A 
BRANCH  22  29
ATOM     28  N   UNL     1      -2.825  12.915  23.599  0.00  0.00    +0.000 NA
ATOM     29  C   UNL     1      -2.090  12.185  23.082  0.00  0.00    +0.000 C 
ENDBRANCH  22  29
ENDBRANCH  21  25
ENDBRANCH  19  21
ENDBRANCH   1  19
TORSDOF 6
ENDMDL
MODEL 4
REMARK VINA RESULT:      -7.4      1.556      1.914
REMARK  Name = 
REMARK  6 active torsions:
REMARK  status: ('A' for Active; 'I' for Inactive)
REMARK    1  A    between atoms: C_2  and  C_3
REMARK    2  A    between atoms: C_6  and  C_7
REMARK    3  A    between atoms: C_7  and  N_8
REMARK    4  A    between atoms: N_8  and  C_9
REMARK    5  A    between atoms: C_16  and  C_17
REMARK    6  A    between atoms: N_19  and  O_20
REMARK                            x       y       z     vdW  Elec       q    Type
REMARK                         _______ _______ _______ _____ _____    ______ ____
ROOT
ATOM      1  C   UNL     1       7.193   8.040  17.824  0.00  0.00    +0.000 C 
ATOM      2  C   UNL     1       7.817   7.059  16.859  0.00  0.00    +0.000 C 
ATOM      3  C   UNL     1       7.129   5.767  16.528  0.00  0.00    +0.000 C 
ATOM      4  N   UNL     1       7.032   5.064  17.807  0.00  0.00    +0.000 N 
ATOM      5  C   UNL     1       5.828   4.462  18.102  0.00  0.00    +0.000 A 
ATOM      6  N   UNL     1       5.079   3.965  17.098  0.00  0.00    +0.000 NA
ATOM      7  C   UNL     1       3.882   3.413  17.411  0.00  0.00    +0.000 A 
ATOM      8  C   UNL     1       3.382   3.367  18.689  0.00  0.00    +0.000 A 
ATOM      9  C   UNL     1       4.219   3.874  19.652  0.00  0.00    +0.000 A 
ATOM     10  N   UNL     1       5.429   4.407  19.382  0.00  0.00    +0.000 NA
ATOM     11  C   UNL     1       7.757   5.735  18.889  0.00  0.00    +0.000 C 
ATOM     12  C   UNL     1       8.208   7.030  18.291  0.00  0.00    +0.000 C 
ENDROOT
BRANCH   8  13
ATOM     13  C   UNL     1       2.080   2.814  19.077  0.00  0.00    +0.000 C 
ATOM     14  O   UNL     1       1.854   1.612  18.960  0.00  0.00    +0.000 OA
ATOM     15  N   UNL     1       1.152   3.676  19.613  0.00  0.00    +0.000 N 
ATOM     16  H   UNL     1       1.299   4.644  19.875  0.00  0.00    +0.000 HD
BRANCH  15  17
ATOM     17  O   UNL     1      -0.042   3.074  20.075  0.00  0.00    +0.000 OA
ATOM     18  H   UNL     1      -0.239   3.588  20.890  0.00  0.00    +0.000 HD
ENDBRANCH  15  17
ENDBRANCH   8  13
BRANCH   1  19
ATOM     19  N   UNL     1       7.581   9.457  17.825  0.00  0.00    +0.000 NA
ATOM     20  H   UNL     1       7.717   9.784  16.866  0.00  0.00    +0.000 HD
BRANCH  19  21
ATOM     21  C   UNL     1       8.812   9.692  18.578  0.00  0.00    +0.000 C 
BRANCH  21  25
ATOM     22  C   UNL     1      10.689  13.460  17.594  0.00  0.00    +0.000 A 
ATOM     23  C   UNL     1       9.299  13.329  17.528  0.00  0.00    +0.000 A 
ATOM     24  C   UNL     1       8.697  12.104  17.825  0.00  0.00    +0.000 A 
ATOM     25  C   UNL     1       9.474  10.993  18.189  0.00  0.00    +0.000 A 
ATOM     26  C   UNL     1      10.868  11.131  18.243  0.00  0.00    +0.000 A 
ATOM     27  C   UNL     1      11.472  12.357  17.949  0.00  0.00    +0.000 A 
BRANCH  22  29
ATOM     28  N   UNL     1      11.804  15.746  17.085  0.00  0.00    +0.000 NA
ATOM     29  C   UNL     1      11.310  14.725  17.311  0.00  0.00    +0.000 C 
ENDBRANCH  22  29
ENDBRANCH  21  25
ENDBRANCH  19  21
ENDBRANCH   1  19
TORSDOF 6
ENDMDL
MODEL 5
REMARK VINA RESULT:      -7.4      4.963     10.191
REMARK  Name = 
REMARK  6 active torsions:
REMARK  status: ('A' for Active; 'I' for Inactive)
REMARK    1  A    between atoms: C_2  and  C_3
REMARK    2  A    between atoms: C_6  and  C_7
REMARK    3  A    between atoms: C_7  and  N_8
REMARK    4  A    between atoms: N_8  and  C_9
REMARK    5  A    between atoms: C_16  and  C_17
REMARK    6  A    between atoms: N_19  and  O_20
REMARK                            x       y       z     vdW  Elec       q    Type
REMARK                         _______ _______ _______ _____ _____    ______ ____
ROOT
ATOM      1  C   UNL     1       8.806  10.157  18.929  0.00  0.00    +0.000 C 
ATOM      2  C   UNL     1       9.797  10.791  19.878  0.00  0.00    +0.000 C 
ATOM      3  C   UNL     1       9.564  12.172  20.419  0.00  0.00    +0.000 C 
ATOM      4  N   UNL     1       9.537  13.030  19.235  0.00  0.00    +0.000 N 
ATOM      5  C   UNL     1       8.541  13.980  19.172  0.00  0.00    +0.000 A 
ATOM      6  N   UNL     1       8.091  14.537  20.314  0.00  0.00    +0.000 NA
ATOM      7  C   UNL     1       7.084  15.438  20.227  0.00  0.00    +0.000 A 
ATOM      8  C   UNL     1       6.480  15.787  19.044  0.00  0.00    +0.000 A 
ATOM      9  C   UNL     1       7.015  15.190  17.930  0.00  0.00    +0.000 A 
ATOM     10  N   UNL     1       8.035  14.309  17.973  0.00  0.00    +0.000 NA
ATOM     11  C   UNL     1       9.905  12.326  18.004  0.00  0.00    +0.000 C 
ATOM     12  C   UNL     1      10.016  10.891  18.413  0.00  0.00    +0.000 C 
ENDROOT
BRANCH   8  13
ATOM     13  C   UNL     1       5.365  16.729  18.899  0.00  0.00    +0.000 C 
ATOM     14  O   UNL     1       5.439  17.859  19.376  0.00  0.00    +0.000 OA
ATOM     15  N   UNL     1       4.268  16.318  18.179  0.00  0.00    +0.000 N 
ATOM     16  H   UNL     1       4.180  15.466  17.637  0.00  0.00    +0.000 HD
BRANCH  15  17
ATOM     17  O   UNL     1       3.273  17.301  17.973  0.00  0.00    +0.000 OA
ATOM     18  H   UNL     1       3.527  18.000  18.617  0.00  0.00    +0.000 HD
ENDBRANCH  15  17
ENDBRANCH   8  13
BRANCH   1  19
ATOM     19  N   UNL     1       8.754   8.700  18.746  0.00  0.00    +0.000 NA
ATOM     20  H   UNL     1       9.699   8.324  18.656  0.00  0.00    +0.000 HD
BRANCH  19  21
ATOM     21  C   UNL     1       7.984   8.321  17.563  0.00  0.00    +0.000 C 
BRANCH  21  25
ATOM     22  C   UNL     1       5.541   4.843  18.356  0.00  0.00    +0.000 A 
ATOM     23  C   UNL     1       6.759   5.012  19.019  0.00  0.00    +0.000 A 
ATOM     24  C   UNL     1       7.557   6.125  18.744  0.00  0.00    +0.000 A 
ATOM     25  C   UNL     1       7.151   7.083  17.803  0.00  0.00    +0.000 A 
ATOM     26  C   UNL     1       5.932   6.901  17.135  0.00  0.00    +0.000 A 
ATOM     27  C   UNL     1       5.130   5.789  17.411  0.00  0.00    +0.000 A 
BRANCH  22  29
ATOM     28  N   UNL     1       4.032   2.801  18.887  0.00  0.00    +0.000 NA
ATOM     29  C   UNL     1       4.708   3.711  18.653  0.00  0.00    +0.000 C 
ENDBRANCH  22  29
ENDBRANCH  21  25
ENDBRANCH  19  21
ENDBRANCH   1  19
TORSDOF 6
ENDMDL
MODEL 6
REMARK VINA RESULT:      -7.4      1.515      1.932
REMARK  Name = 
REMARK  6 active torsions:
REMARK  status: ('A' for Active; 'I' for Inactive)
REMARK    1  A    between atoms: C_2  and  C_3
REMARK    2  A    between atoms: C_6  and  C_7
REMARK    3  A    between atoms: C_7  and  N_8
REMARK    4  A    between atoms: N_8  and  C_9
REMARK    5  A    between atoms: C_16  and  C_17
REMARK    6  A    between atoms: N_19  and  O_20
REMARK                            x       y       z     vdW  Elec       q    Type
REMARK                         _______ _______ _______ _____ _____    ______ ____
ROOT
ATOM      1  C   UNL     1       7.309   8.123  17.895  0.00  0.00    +0.000 C 
ATOM      2  C   UNL     1       7.916   7.106  16.957  0.00  0.00    +0.000 C 
ATOM      3  C   UNL     1       7.163   5.864  16.581  0.00  0.00    +0.000 C 
ATOM      4  N   UNL     1       6.953   5.165  17.848  0.00  0.00    +0.000 N 
ATOM      5  C   UNL     1       5.699   4.642  18.076  0.00  0.00    +0.000 A 
ATOM      6  N   UNL     1       4.972   4.199  17.030  0.00  0.00    +0.000 NA
ATOM      7  C   UNL     1       3.727   3.726  17.277  0.00  0.00    +0.000 A 
ATOM      8  C   UNL     1       3.159   3.708  18.527  0.00  0.00    +0.000 A 
ATOM      9  C   UNL     1       3.975   4.156  19.535  0.00  0.00    +0.000 A 
ATOM     10  N   UNL     1       5.230   4.608  19.333  0.00  0.00    +0.000 NA
ATOM     11  C   UNL     1       7.663   5.782  18.971  0.00  0.00    +0.000 C 
ATOM     12  C   UNL     1       8.230   7.046  18.407  0.00  0.00    +0.000 C 
ENDROOT
BRANCH   8  13
ATOM     13  C   UNL     1       1.804   3.241  18.843  0.00  0.00    +0.000 C 
ATOM     14  O   UNL     1       1.014   3.975  19.431  0.00  0.00    +0.000 OA
ATOM     15  N   UNL     1       1.447   1.982  18.421  0.00  0.00    +0.000 N 
ATOM     16  H   UNL     1       1.978   1.369  17.815  0.00  0.00    +0.000 HD
BRANCH  15  17
ATOM     17  O   UNL     1       0.097   1.626  18.651  0.00  0.00    +0.000 OA
ATOM     18  H   UNL     1       0.048   0.720  18.270  0.00  0.00    +0.000 HD
ENDBRANCH  15  17
ENDBRANCH   8  13
BRANCH   1  19
ATOM     19  N   UNL     1       7.788   9.511  17.926  0.00  0.00    +0.000 NA
ATOM     20  H   UNL     1       8.091   9.799  16.993  0.00  0.00    +0.000 HD
BRANCH  19  21
ATOM     21  C   UNL     1       8.903   9.689  18.855  0.00  0.00    +0.000 C 
BRANCH  21  25
ATOM     22  C   UNL     1      10.551  13.681  18.639  0.00  0.00    +0.000 A 
ATOM     23  C   UNL     1       9.515  13.300  17.781  0.00  0.00    +0.000 A 
ATOM     24  C   UNL     1       9.000  12.003  17.838  0.00  0.00    +0.000 A 
ATOM     25  C   UNL     1       9.513  11.068  18.750  0.00  0.00    +0.000 A 
ATOM     26  C   UNL     1      10.558  11.455  19.600  0.00  0.00    +0.000 A 
ATOM     27  C   UNL     1      11.073  12.754  19.547  0.00  0.00    +0.000 A 
BRANCH  22  29
ATOM     28  N   UNL     1      11.480  16.101  18.560  0.00  0.00    +0.000 NA
ATOM     29  C   UNL     1      11.068  15.021  18.598  0.00  0.00    +0.000 C 
ENDBRANCH  22  29
ENDBRANCH  21  25
ENDBRANCH  19  21
ENDBRANCH   1  19
TORSDOF 6
ENDMDL
MODEL 7
REMARK VINA RESULT:      -7.3      0.671      1.128
REMARK  Name = 
REMARK  6 active torsions:
REMARK  status: ('A' for Active; 'I' for Inactive)
REMARK    1  A    between atoms: C_2  and  C_3
REMARK    2  A    between atoms: C_6  and  C_7
REMARK    3  A    between atoms: C_7  and  N_8
REMARK    4  A    between atoms: N_8  and  C_9
REMARK    5  A    between atoms: C_16  and  C_17
REMARK    6  A    between atoms: N_19  and  O_20
REMARK                            x       y       z     vdW  Elec       q    Type
REMARK                         _______ _______ _______ _____ _____    ______ ____
ROOT
ATOM      1  C   UNL     1       7.336   7.018  17.985  0.00  0.00    +0.000 C 
ATOM      2  C   UNL     1       6.827   6.642  16.613  0.00  0.00    +0.000 C 
ATOM      3  C   UNL     1       5.519   5.924  16.451  0.00  0.00    +0.000 C 
ATOM      4  N   UNL     1       5.700   4.664  17.170  0.00  0.00    +0.000 N 
ATOM      5  C   UNL     1       4.669   4.256  17.989  0.00  0.00    +0.000 A 
ATOM      6  N   UNL     1       3.401   4.565  17.652  0.00  0.00    +0.000 NA
ATOM      7  C   UNL     1       2.410   4.186  18.494  0.00  0.00    +0.000 A 
ATOM      8  C   UNL     1       2.635   3.535  19.682  0.00  0.00    +0.000 A 
ATOM      9  C   UNL     1       3.951   3.239  19.935  0.00  0.00    +0.000 A 
ATOM     10  N   UNL     1       4.963   3.576  19.108  0.00  0.00    +0.000 NA
ATOM     11  C   UNL     1       7.076   4.455  17.628  0.00  0.00    +0.000 C 
ATOM     12  C   UNL     1       7.774   5.741  17.317  0.00  0.00    +0.000 C 
ENDROOT
BRANCH   8  13
ATOM     13  C   UNL     1       1.603   3.134  20.644  0.00  0.00    +0.000 C 
ATOM     14  O   UNL     1       0.412   3.237  20.360  0.00  0.00    +0.000 OA
ATOM     15  N   UNL     1       2.017   2.603  21.843  0.00  0.00    +0.000 N 
ATOM     16  H   UNL     1       2.963   2.352  22.104  0.00  0.00    +0.000 HD
BRANCH  15  17
ATOM     17  O   UNL     1       0.985   2.128  22.686  0.00  0.00    +0.000 OA
ATOM     18  H   UNL     1       1.423   2.103  23.567  0.00  0.00    +0.000 HD
ENDBRANCH  15  17
ENDBRANCH   8  13
BRANCH   1  19
ATOM     19  N   UNL     1       8.335   8.081  18.161  0.00  0.00    +0.000 NA
ATOM     20  H   UNL     1       8.692   8.072  19.118  0.00  0.00    +0.000 HD
BRANCH  19  21
ATOM     21  C   UNL     1       7.785   9.406  17.880  0.00  0.00    +0.000 C 
BRANCH  21  25
ATOM     22  C   UNL     1      10.384  12.621  19.145  0.00  0.00    +0.000 A 
ATOM     23  C   UNL     1       9.537  12.793  18.047  0.00  0.00    +0.000 A 
ATOM     24  C   UNL     1       8.715  11.745  17.627  0.00  0.00    +0.000 A 
ATOM     25  C   UNL     1       8.728  10.511  18.295  0.00  0.00    +0.000 A 
ATOM     26  C   UNL     1       9.589  10.344  19.389  0.00  0.00    +0.000 A 
ATOM     27  C   UNL     1      10.411  11.392  19.813  0.00  0.00    +0.000 A 
BRANCH  22  29
ATOM     28  N   UNL     1      11.888  14.576  19.948  0.00  0.00    +0.000 NA
ATOM     29  C   UNL     1      11.216  13.704  19.593  0.00  0.00    +0.000 C 
ENDBRANCH  22  29
ENDBRANCH  21  25
ENDBRANCH  19  21
ENDBRANCH   1  19
TORSDOF 6
ENDMDL
MODEL 8
REMARK VINA RESULT:      -7.3      6.340      9.067
REMARK  Name = 
REMARK  6 active torsions:
REMARK  status: ('A' for Active; 'I' for Inactive)
REMARK    1  A    between atoms: C_2  and  C_3
REMARK    2  A    between atoms: C_6  and  C_7
REMARK    3  A    between atoms: C_7  and  N_8
REMARK    4  A    between atoms: N_8  and  C_9
REMARK    5  A    between atoms: C_16  and  C_17
REMARK    6  A    between atoms: N_19  and  O_20
REMARK                            x       y       z     vdW  Elec       q    Type
REMARK                         _______ _______ _______ _____ _____    ______ ____
ROOT
ATOM      1  C   UNL     1       1.165   6.540  20.264  0.00  0.00    +0.000 C 
ATOM      2  C   UNL     1       1.756   7.701  21.030  0.00  0.00    +0.000 C 
ATOM      3  C   UNL     1       1.106   9.053  20.996  0.00  0.00    +0.000 C 
ATOM      4  N   UNL     1       1.142   9.442  19.587  0.00  0.00    +0.000 N 
ATOM      5  C   UNL     1      -0.005   9.993  19.059  0.00  0.00    +0.000 A 
ATOM      6  N   UNL     1      -0.807  10.730  19.853  0.00  0.00    +0.000 NA
ATOM      7  C   UNL     1      -1.948  11.226  19.319  0.00  0.00    +0.000 A 
ATOM      8  C   UNL     1      -2.343  10.989  18.026  0.00  0.00    +0.000 A 
ATOM      9  C   UNL     1      -1.458  10.250  17.281  0.00  0.00    +0.000 A 
ATOM     10  N   UNL     1      -0.299   9.761  17.770  0.00  0.00    +0.000 NA
ATOM     11  C   UNL     1       1.918   8.520  18.755  0.00  0.00    +0.000 C 
ATOM     12  C   UNL     1       2.260   7.387  19.670  0.00  0.00    +0.000 C 
ENDROOT
BRANCH   8  13
ATOM     13  C   UNL     1      -3.584  11.472  17.409  0.00  0.00    +0.000 C 
ATOM     14  O   UNL     1      -3.900  11.108  16.280  0.00  0.00    +0.000 OA
ATOM     15  N   UNL     1      -4.388  12.302  18.154  0.00  0.00    +0.000 N 
ATOM     16  H   UNL     1      -4.279  12.539  19.134  0.00  0.00    +0.000 HD
BRANCH  15  17
ATOM     17  O   UNL     1      -5.624  12.647  17.558  0.00  0.00    +0.000 OA
ATOM     18  H   UNL     1      -6.273  12.172  18.124  0.00  0.00    +0.000 HD
ENDBRANCH  15  17
ENDBRANCH   8  13
BRANCH   1  19
ATOM     19  N   UNL     1       1.485   5.152  20.621  0.00  0.00    +0.000 NA
ATOM     20  H   UNL     1       2.388   5.111  21.098  0.00  0.00    +0.000 HD
BRANCH  19  21
ATOM     21  C   UNL     1       1.536   4.279  19.450  0.00  0.00    +0.000 C 
BRANCH  21  25
ATOM     22  C   UNL     1       5.451   4.392  17.618  0.00  0.00    +0.000 A 
ATOM     23  C   UNL     1       4.302   4.470  16.826  0.00  0.00    +0.000 A 
ATOM     24  C   UNL     1       3.038   4.410  17.419  0.00  0.00    +0.000 A 
ATOM     25  C   UNL     1       2.905   4.270  18.809  0.00  0.00    +0.000 A 
ATOM     26  C   UNL     1       4.062   4.183  19.595  0.00  0.00    +0.000 A 
ATOM     27  C   UNL     1       5.328   4.245  19.003  0.00  0.00    +0.000 A 
BRANCH  22  29
ATOM     28  N   UNL     1       7.797   4.543  16.521  0.00  0.00    +0.000 NA
ATOM     29  C   UNL     1       6.752   4.475  17.014  0.00  0.00    +0.000 C 
ENDBRANCH  22  29
ENDBRANCH  21  25
ENDBRANCH  19  21
ENDBRANCH   1  19
TORSDOF 6
ENDMDL
MODEL 9
REMARK VINA RESULT:      -7.2      6.060      8.186
REMARK  Name = 
REMARK  6 active torsions:
REMARK  status: ('A' for Active; 'I' for Inactive)
REMARK    1  A    between atoms: C_2  and  C_3
REMARK    2  A    between atoms: C_6  and  C_7
REMARK    3  A    between atoms: C_7  and  N_8
REMARK    4  A    between atoms: N_8  and  C_9
REMARK    5  A    between atoms: C_16  and  C_17
REMARK    6  A    between atoms: N_19  and  O_20
REMARK                            x       y       z     vdW  Elec       q    Type
REMARK                         _______ _______ _______ _____ _____    ______ ____
ROOT
ATOM      1  C   UNL     1       2.254   6.060  19.867  0.00  0.00    +0.000 C 
ATOM      2  C   UNL     1       2.992   4.966  20.601  0.00  0.00    +0.000 C 
ATOM      3  C   UNL     1       4.242   4.365  20.027  0.00  0.00    +0.000 C 
ATOM      4  N   UNL     1       3.818   3.779  18.757  0.00  0.00    +0.000 N 
ATOM      5  C   UNL     1       4.627   3.998  17.663  0.00  0.00    +0.000 A 
ATOM      6  N   UNL     1       5.958   4.112  17.844  0.00  0.00    +0.000 NA
ATOM      7  C   UNL     1       6.727   4.366  16.758  0.00  0.00    +0.000 A 
ATOM      8  C   UNL     1       6.217   4.545  15.495  0.00  0.00    +0.000 A 
ATOM      9  C   UNL     1       4.857   4.388  15.398  0.00  0.00    +0.000 A 
ATOM     10  N   UNL     1       4.061   4.109  16.451  0.00  0.00    +0.000 NA
ATOM     11  C   UNL     1       2.365   3.811  18.564  0.00  0.00    +0.000 C 
ATOM     12  C   UNL     1       1.853   4.616  19.716  0.00  0.00    +0.000 C 
ENDROOT
BRANCH   8  13
ATOM     13  C   UNL     1       7.000   4.856  14.294  0.00  0.00    +0.000 C 
ATOM     14  O   UNL     1       7.970   5.606  14.361  0.00  0.00    +0.000 OA
ATOM     15  N   UNL     1       6.635   4.247  13.117  0.00  0.00    +0.000 N 
ATOM     16  H   UNL     1       5.945   3.513  12.998  0.00  0.00    +0.000 HD
BRANCH  15  17
ATOM     17  O   UNL     1       7.490   4.491  12.016  0.00  0.00    +0.000 OA
ATOM     18  H   UNL     1       7.694   5.448  12.112  0.00  0.00    +0.000 HD
ENDBRANCH  15  17
ENDBRANCH   8  13
BRANCH   1  19
ATOM     19  N   UNL     1       1.332   6.961  20.572  0.00  0.00    +0.000 NA
ATOM     20  H   UNL     1       0.366   6.729  20.335  0.00  0.00    +0.000 HD
BRANCH  19  21
ATOM     21  C   UNL     1       1.570   8.365  20.239  0.00  0.00    +0.000 C 
BRANCH  21  25
ATOM     22  C   UNL     1      -1.066  11.072  22.339  0.00  0.00    +0.000 A 
ATOM     23  C   UNL     1      -0.565   9.938  22.983  0.00  0.00    +0.000 A 
ATOM     24  C   UNL     1       0.268   9.053  22.295  0.00  0.00    +0.000 A 
ATOM     25  C   UNL     1       0.611   9.287  20.954  0.00  0.00    +0.000 A 
ATOM     26  C   UNL     1       0.096  10.422  20.313  0.00  0.00    +0.000 A 
ATOM     27  C   UNL     1      -0.736  11.310  21.001  0.00  0.00    +0.000 A 
BRANCH  22  29
ATOM     28  N   UNL     1      -2.586  12.741  23.617  0.00  0.00    +0.000 NA
ATOM     29  C   UNL     1      -1.906  11.996  23.050  0.00  0.00    +0.000 C 
ENDBRANCH  22  29
ENDBRANCH  21  25
ENDBRANCH  19  21
ENDBRANCH   1  19
TORSDOF 6
ENDMDL
