MODEL 1
REMARK VINA RESULT:      -9.0      0.000      0.000
REMARK  Name = 
REMARK  6 active torsions:
REMARK  status: ('A' for Active; 'I' for Inactive)
REMARK    1  A    between atoms: C_1  and  C_2
REMARK    2  A    between atoms: N_5  and  C_6
REMARK    3  A    between atoms: C_6  and  C_7
REMARK    4  A    between atoms: C_6  and  C_8
REMARK    5  A    between atoms: C_12  and  C_13
REMARK    6  A    between atoms: C_22  and  C_23
REMARK                            x       y       z     vdW  Elec       q    Type
REMARK                         _______ _______ _______ _____ _____    ______ ____
ROOT
ATOM      1  C   UNL     1       0.250  13.809  22.196  0.00  0.00    +0.000 C 
ATOM      2  C   UNL     1      -0.149  12.732  21.236  0.00  0.00    +0.000 A 
ATOM      3  N   UNL     1       0.694  11.699  21.052  0.00  0.00    +0.000 NA
ATOM      4  C   UNL     1       0.286  10.703  20.257  0.00  0.00    +0.000 A 
ATOM      5  N   UNL     1       1.159   9.634  20.129  0.00  0.00    +0.000 N 
ATOM      6  C   UNL     1      -0.961  10.725  19.669  0.00  0.00    +0.000 A 
ATOM      7  C   UNL     1      -1.755  11.837  19.869  0.00  0.00    +0.000 A 
ATOM      8  N   UNL     1      -1.352  12.858  20.649  0.00  0.00    +0.000 NA
ATOM      9  H   UNL     1       2.048   9.908  20.539  0.00  0.00    +0.000 HD
ENDROOT
BRANCH   7  10
ATOM     10  C   UNL     1      -3.083  11.973  19.236  0.00  0.00    +0.000 A 
ATOM     11  C   UNL     1      -3.323  11.448  17.957  0.00  0.00    +0.000 A 
ATOM     12  C   UNL     1      -4.580  11.545  17.342  0.00  0.00    +0.000 A 
ATOM     13  C   UNL     1      -5.638  12.187  18.010  0.00  0.00    +0.000 A 
ATOM     14  N   UNL     1      -6.925  12.359  17.527  0.00  0.00    +0.000 NA
ATOM     15  C   UNL     1      -7.643  13.011  18.415  0.00  0.00    +0.000 A 
ATOM     16  S   UNL     1      -6.849  13.441  19.869  0.00  0.00    +0.000 S 
ATOM     17  C   UNL     1      -5.402  12.713  19.279  0.00  0.00    +0.000 A 
ATOM     18  C   UNL     1      -4.145  12.620  19.902  0.00  0.00    +0.000 A 
ENDBRANCH   7  10
BRANCH   5  19
ATOM     19  C   UNL     1       1.250   8.879  18.884  0.00  0.00    +0.000 C 
ATOM     20  C   UNL     1       1.878   9.719  17.771  0.00  0.00    +0.000 C 
BRANCH  19  21
ATOM     21  C   UNL     1       2.035   7.590  19.072  0.00  0.00    +0.000 A 
ATOM     22  C   UNL     1       1.927   6.790  20.213  0.00  0.00    +0.000 A 
ATOM     23  C   UNL     1       2.747   5.674  20.367  0.00  0.00    +0.000 A 
ATOM     24  C   UNL     1       3.697   5.356  19.392  0.00  0.00    +0.000 A 
ATOM     25  C   UNL     1       3.837   6.123  18.224  0.00  0.00    +0.000 A 
ATOM     26  C   UNL     1       2.973   7.225  18.083  0.00  0.00    +0.000 A 
BRANCH  25  27
ATOM     27  C   UNL     1       4.865   5.813  17.204  0.00  0.00    +0.000 A 
ATOM     28  C   UNL     1       4.779   4.706  16.353  0.00  0.00    +0.000 A 
ATOM     29  C   UNL     1       5.791   4.436  15.429  0.00  0.00    +0.000 A 
ATOM     30  C   UNL     1       6.874   5.294  15.346  0.00  0.00    +0.000 A 
ATOM     31  N   UNL     1       7.914   5.044  14.457  0.00  0.00    +0.000 N 
ATOM     32  N   UNL     1       7.002   6.370  16.132  0.00  0.00    +0.000 NA
ATOM     33  C   UNL     1       6.013   6.596  17.034  0.00  0.00    +0.000 A 
ATOM     34  H   UNL     1       7.578   4.918  13.510  0.00  0.00    +0.000 HD
ATOM     35  H   UNL     1       8.560   5.827  14.532  0.00  0.00    +0.000 HD
ENDBRANCH  25  27
ENDBRANCH  19  21
ENDBRANCH   5  19
TORSDOF 4
ENDMDL
MODEL 2
REMARK VINA RESULT:      -8.9      3.259     10.683
REMARK  Name = 
REMARK  6 active torsions:
REMARK  status: ('A' for Active; 'I' for Inactive)
REMARK    1  A    between atoms: C_1  and  C_2
REMARK    2  A    between atoms: N_5  and  C_6
REMARK    3  A    between atoms: C_6  and  C_7
REMARK    4  A    between atoms: C_6  and  C_8
REMARK    5  A    between atoms: C_12  and  C_13
REMARK    6  A    between atoms: C_22  and  C_23
REMARK                            x       y       z     vdW  Elec       q    Type
REMARK                         _______ _______ _______ _____ _____    ______ ____
ROOT
ATOM      1  C   UNL     1       1.491   3.668  21.201  0.00  0.00    +0.000 C 
ATOM      2  C   UNL     1       1.999   4.863  20.457  0.00  0.00    +0.000 A 
ATOM      3  N   UNL     1       1.447   6.062  20.725  0.00  0.00    +0.000 NA
ATOM      4  C   UNL     1       1.970   7.132  20.115  0.00  0.00    +0.000 A 
ATOM      5  N   UNL     1       1.409   8.354  20.452  0.00  0.00    +0.000 N 
ATOM      6  C   UNL     1       3.047   7.013  19.264  0.00  0.00    +0.000 A 
ATOM      7  C   UNL     1       3.534   5.747  19.004  0.00  0.00    +0.000 A 
ATOM      8  N   UNL     1       3.007   4.656  19.592  0.00  0.00    +0.000 NA
ATOM      9  H   UNL     1       0.561   8.172  20.982  0.00  0.00    +0.000 HD
ENDROOT
BRANCH   7  10
ATOM     10  C   UNL     1       4.650   5.516  18.063  0.00  0.00    +0.000 A 
ATOM     11  C   UNL     1       5.981   5.672  18.480  0.00  0.00    +0.000 A 
ATOM     12  C   UNL     1       7.060   5.437  17.615  0.00  0.00    +0.000 A 
ATOM     13  C   UNL     1       6.818   5.040  16.288  0.00  0.00    +0.000 A 
ATOM     14  N   UNL     1       7.778   4.778  15.324  0.00  0.00    +0.000 NA
ATOM     15  C   UNL     1       7.189   4.442  14.198  0.00  0.00    +0.000 A 
ATOM     16  S   UNL     1       5.479   4.400  14.216  0.00  0.00    +0.000 S 
ATOM     17  C   UNL     1       5.496   4.888  15.869  0.00  0.00    +0.000 A 
ATOM     18  C   UNL     1       4.411   5.120  16.731  0.00  0.00    +0.000 A 
ENDBRANCH   7  10
BRANCH   5  19
ATOM     19  C   UNL     1       1.319   9.436  19.478  0.00  0.00    +0.000 C 
ATOM     20  C   UNL     1       0.886   8.913  18.107  0.00  0.00    +0.000 C 
BRANCH  19  21
ATOM     21  C   UNL     1       0.366  10.527  19.945  0.00  0.00    +0.000 A 
ATOM     22  C   UNL     1       0.576  11.278  21.105  0.00  0.00    +0.000 A 
ATOM     23  C   UNL     1      -0.385  12.193  21.530  0.00  0.00    +0.000 A 
ATOM     24  C   UNL     1      -1.574  12.353  20.814  0.00  0.00    +0.000 A 
ATOM     25  C   UNL     1      -1.828  11.629  19.638  0.00  0.00    +0.000 A 
ATOM     26  C   UNL     1      -0.825  10.735  19.216  0.00  0.00    +0.000 A 
BRANCH  25  27
ATOM     27  C   UNL     1      -3.100  11.767  18.893  0.00  0.00    +0.000 A 
ATOM     28  C   UNL     1      -3.240  11.384  17.554  0.00  0.00    +0.000 A 
ATOM     29  C   UNL     1      -4.451  11.566  16.883  0.00  0.00    +0.000 A 
ATOM     30  C   UNL     1      -5.525  12.108  17.568  0.00  0.00    +0.000 A 
ATOM     31  N   UNL     1      -6.740  12.328  16.926  0.00  0.00    +0.000 N 
ATOM     32  N   UNL     1      -5.447  12.484  18.850  0.00  0.00    +0.000 NA
ATOM     33  C   UNL     1      -4.251  12.315  19.471  0.00  0.00    +0.000 A 
ATOM     34  H   UNL     1      -7.084  11.490  16.474  0.00  0.00    +0.000 HD
ATOM     35  H   UNL     1      -7.387  12.675  17.631  0.00  0.00    +0.000 HD
ENDBRANCH  25  27
ENDBRANCH  19  21
ENDBRANCH   5  19
TORSDOF 4
ENDMDL
MODEL 3
REMARK VINA RESULT:      -8.8      3.472      5.314
REMARK  Name = 
REMARK  6 active torsions:
REMARK  status: ('A' for Active; 'I' for Inactive)
REMARK    1  A    between atoms: C_1  and  C_2
REMARK    2  A    between atoms: N_5  and  C_6
REMARK    3  A    between atoms: C_6  and  C_7
REMARK    4  A    between atoms: C_6  and  C_8
REMARK    5  A    between atoms: C_12  and  C_13
REMARK    6  A    between atoms: C_22  and  C_23
REMARK                            x       y       z     vdW  Elec       q    Type
REMARK                         _______ _______ _______ _____ _____    ______ ____
ROOT
ATOM      1  C   UNL     1      -3.059  11.716  17.694  0.00  0.00    +0.000 C 
ATOM      2  C   UNL     1      -1.657  11.538  18.188  0.00  0.00    +0.000 A 
ATOM      3  N   UNL     1      -1.243  10.294  18.495  0.00  0.00    +0.000 NA
ATOM      4  C   UNL     1       0.037  10.141  18.853  0.00  0.00    +0.000 A 
ATOM      5  N   UNL     1       0.440   8.841  19.115  0.00  0.00    +0.000 N 
ATOM      6  C   UNL     1       0.904  11.212  18.882  0.00  0.00    +0.000 A 
ATOM      7  C   UNL     1       0.399  12.465  18.594  0.00  0.00    +0.000 A 
ATOM      8  N   UNL     1      -0.892  12.642  18.253  0.00  0.00    +0.000 NA
ATOM      9  H   UNL     1      -0.393   8.260  19.159  0.00  0.00    +0.000 HD
ENDROOT
BRANCH   7  10
ATOM     10  C   UNL     1       1.239  13.680  18.653  0.00  0.00    +0.000 A 
ATOM     11  C   UNL     1       0.684  14.916  19.017  0.00  0.00    +0.000 A 
ATOM     12  C   UNL     1       1.463  16.080  19.102  0.00  0.00    +0.000 A 
ATOM     13  C   UNL     1       2.838  16.024  18.812  0.00  0.00    +0.000 A 
ATOM     14  N   UNL     1       3.726  17.086  18.850  0.00  0.00    +0.000 NA
ATOM     15  C   UNL     1       4.925  16.668  18.510  0.00  0.00    +0.000 A 
ATOM     16  S   UNL     1       5.076  15.004  18.144  0.00  0.00    +0.000 S 
ATOM     17  C   UNL     1       3.391  14.797  18.445  0.00  0.00    +0.000 A 
ATOM     18  C   UNL     1       2.617  13.627  18.358  0.00  0.00    +0.000 A 
ENDBRANCH   7  10
BRANCH   5  19
ATOM     19  C   UNL     1       1.456   8.555  20.122  0.00  0.00    +0.000 C 
ATOM     20  C   UNL     1       0.891   8.700  21.536  0.00  0.00    +0.000 C 
BRANCH  19  21
ATOM     21  C   UNL     1       2.047   7.165  19.937  0.00  0.00    +0.000 A 
ATOM     22  C   UNL     1       1.755   6.092  20.783  0.00  0.00    +0.000 A 
ATOM     23  C   UNL     1       2.405   4.872  20.619  0.00  0.00    +0.000 A 
ATOM     24  C   UNL     1       3.371   4.715  19.620  0.00  0.00    +0.000 A 
ATOM     25  C   UNL     1       3.693   5.760  18.738  0.00  0.00    +0.000 A 
ATOM     26  C   UNL     1       2.995   6.970  18.910  0.00  0.00    +0.000 A 
BRANCH  25  27
ATOM     27  C   UNL     1       4.739   5.613  17.700  0.00  0.00    +0.000 A 
ATOM     28  C   UNL     1       4.616   6.158  16.418  0.00  0.00    +0.000 A 
ATOM     29  C   UNL     1       5.614   5.963  15.461  0.00  0.00    +0.000 A 
ATOM     30  C   UNL     1       6.745   5.243  15.805  0.00  0.00    +0.000 A 
ATOM     31  N   UNL     1       7.750   5.006  14.872  0.00  0.00    +0.000 N 
ATOM     32  N   UNL     1       6.916   4.706  17.019  0.00  0.00    +0.000 NA
ATOM     33  C   UNL     1       5.919   4.894  17.922  0.00  0.00    +0.000 A 
ATOM     34  H   UNL     1       8.077   5.864  14.445  0.00  0.00    +0.000 HD
ATOM     35  H   UNL     1       8.494   4.513  15.359  0.00  0.00    +0.000 HD
ENDBRANCH  25  27
ENDBRANCH  19  21
ENDBRANCH   5  19
TORSDOF 4
ENDMDL
MODEL 4
REMARK VINA RESULT:      -8.8      3.854      7.298
REMARK  Name = 
REMARK  6 active torsions:
REMARK  status: ('A' for Active; 'I' for Inactive)
REMARK    1  A    between atoms: C_1  and  C_2
REMARK    2  A    between atoms: N_5  and  C_6
REMARK    3  A    between atoms: C_6  and  C_7
REMARK    4  A    between atoms: C_6  and  C_8
REMARK    5  A    between atoms: C_12  and  C_13
REMARK    6  A    between atoms: C_22  and  C_23
REMARK                            x       y       z     vdW  Elec       q    Type
REMARK                         _______ _______ _______ _____ _____    ______ ____
ROOT
ATOM      1  C   UNL     1       2.876   2.613  20.328  0.00  0.00    +0.000 C 
ATOM      2  C   UNL     1       3.226   3.805  19.495  0.00  0.00    +0.000 A 
ATOM      3  N   UNL     1       4.074   3.635  18.462  0.00  0.00    +0.000 NA
ATOM      4  C   UNL     1       4.310   4.691  17.676  0.00  0.00    +0.000 A 
ATOM      5  N   UNL     1       5.149   4.466  16.596  0.00  0.00    +0.000 N 
ATOM      6  C   UNL     1       3.689   5.901  17.901  0.00  0.00    +0.000 A 
ATOM      7  C   UNL     1       2.864   6.014  19.003  0.00  0.00    +0.000 A 
ATOM      8  N   UNL     1       2.632   4.968  19.818  0.00  0.00    +0.000 NA
ATOM      9  H   UNL     1       5.577   3.553  16.720  0.00  0.00    +0.000 HD
ENDROOT
BRANCH   7  10
ATOM     10  C   UNL     1       2.199   7.286  19.356  0.00  0.00    +0.000 A 
ATOM     11  C   UNL     1       2.029   8.294  18.395  0.00  0.00    +0.000 A 
ATOM     12  C   UNL     1       1.382   9.502  18.696  0.00  0.00    +0.000 A 
ATOM     13  C   UNL     1       0.889   9.726  19.994  0.00  0.00    +0.000 A 
ATOM     14  N   UNL     1       0.236  10.864  20.436  0.00  0.00    +0.000 NA
ATOM     15  C   UNL     1      -0.073  10.729  21.706  0.00  0.00    +0.000 A 
ATOM     16  S   UNL     1       0.374   9.251  22.444  0.00  0.00    +0.000 S 
ATOM     17  C   UNL     1       1.060   8.727  20.953  0.00  0.00    +0.000 A 
ATOM     18  C   UNL     1       1.707   7.515  20.657  0.00  0.00    +0.000 A 
ENDBRANCH   7  10
BRANCH   5  19
ATOM     19  C   UNL     1       6.036   5.512  16.100  0.00  0.00    +0.000 C 
ATOM     20  C   UNL     1       5.242   6.684  15.522  0.00  0.00    +0.000 C 
BRANCH  19  21
ATOM     21  C   UNL     1       6.978   6.005  17.188  0.00  0.00    +0.000 A 
ATOM     22  C   UNL     1       7.432   5.192  18.230  0.00  0.00    +0.000 A 
ATOM     23  C   UNL     1       8.213   5.731  19.251  0.00  0.00    +0.000 A 
ATOM     24  C   UNL     1       8.531   7.092  19.252  0.00  0.00    +0.000 A 
ATOM     25  C   UNL     1       8.107   7.948  18.223  0.00  0.00    +0.000 A 
ATOM     26  C   UNL     1       7.347   7.367  17.190  0.00  0.00    +0.000 A 
BRANCH  25  27
ATOM     27  C   UNL     1       8.411   9.397  18.235  0.00  0.00    +0.000 A 
ATOM     28  C   UNL     1       7.740  10.319  17.425  0.00  0.00    +0.000 A 
ATOM     29  C   UNL     1       8.086  11.672  17.447  0.00  0.00    +0.000 A 
ATOM     30  C   UNL     1       9.088  12.098  18.302  0.00  0.00    +0.000 A 
ATOM     31  N   UNL     1       9.478  13.433  18.333  0.00  0.00    +0.000 N 
ATOM     32  N   UNL     1       9.756  11.258  19.102  0.00  0.00    +0.000 NA
ATOM     33  C   UNL     1       9.413   9.946  19.045  0.00  0.00    +0.000 A 
ATOM     34  H   UNL     1       8.691  14.051  18.486  0.00  0.00    +0.000 HD
ATOM     35  H   UNL     1      10.179  13.518  19.066  0.00  0.00    +0.000 HD
ENDBRANCH  25  27
ENDBRANCH  19  21
ENDBRANCH   5  19
TORSDOF 4
ENDMDL
MODEL 5
REMARK VINA RESULT:      -8.7      2.904      4.766
REMARK  Name = 
REMARK  6 active torsions:
REMARK  status: ('A' for Active; 'I' for Inactive)
REMARK    1  A    between atoms: C_1  and  C_2
REMARK    2  A    between atoms: N_5  and  C_6
REMARK    3  A    between atoms: C_6  and  C_7
REMARK    4  A    between atoms: C_6  and  C_8
REMARK    5  A    between atoms: C_12  and  C_13
REMARK    6  A    between atoms: C_22  and  C_23
REMARK                            x       y       z     vdW  Elec       q    Type
REMARK                         _______ _______ _______ _____ _____    ______ ____
ROOT
ATOM      1  C   UNL     1      -3.117  11.576  17.554  0.00  0.00    +0.000 C 
ATOM      2  C   UNL     1      -1.727  11.460  18.094  0.00  0.00    +0.000 A 
ATOM      3  N   UNL     1      -1.228  10.227  18.309  0.00  0.00    +0.000 NA
ATOM      4  C   UNL     1       0.045  10.138  18.711  0.00  0.00    +0.000 A 
ATOM      5  N   UNL     1       0.539   8.853  18.876  0.00  0.00    +0.000 N 
ATOM      6  C   UNL     1       0.823  11.264  18.874  0.00  0.00    +0.000 A 
ATOM      7  C   UNL     1       0.232  12.497  18.675  0.00  0.00    +0.000 A 
ATOM      8  N   UNL     1      -1.054  12.607  18.292  0.00  0.00    +0.000 NA
ATOM      9  H   UNL     1      -0.247   8.210  18.829  0.00  0.00    +0.000 HD
ENDROOT
BRANCH   7  10
ATOM     10  C   UNL     1       0.971  13.760  18.879  0.00  0.00    +0.000 A 
ATOM     11  C   UNL     1       2.241  13.946  18.312  0.00  0.00    +0.000 A 
ATOM     12  C   UNL     1       2.955  15.143  18.471  0.00  0.00    +0.000 A 
ATOM     13  C   UNL     1       2.398  16.194  19.222  0.00  0.00    +0.000 A 
ATOM     14  N   UNL     1       2.985  17.425  19.465  0.00  0.00    +0.000 NA
ATOM     15  C   UNL     1       2.184  18.153  20.211  0.00  0.00    +0.000 A 
ATOM     16  S   UNL     1       0.693  17.437  20.651  0.00  0.00    +0.000 S 
ATOM     17  C   UNL     1       1.138  16.012  19.790  0.00  0.00    +0.000 A 
ATOM     18  C   UNL     1       0.417  14.815  19.634  0.00  0.00    +0.000 A 
ENDBRANCH   7  10
BRANCH   5  19
ATOM     19  C   UNL     1       1.534   8.553  19.899  0.00  0.00    +0.000 C 
ATOM     20  C   UNL     1       0.953   8.725  21.304  0.00  0.00    +0.000 C 
BRANCH  19  21
ATOM     21  C   UNL     1       2.095   7.149  19.734  0.00  0.00    +0.000 A 
ATOM     22  C   UNL     1       1.854   6.119  20.648  0.00  0.00    +0.000 A 
ATOM     23  C   UNL     1       2.479   4.883  20.492  0.00  0.00    +0.000 A 
ATOM     24  C   UNL     1       3.366   4.669  19.434  0.00  0.00    +0.000 A 
ATOM     25  C   UNL     1       3.634   5.669  18.485  0.00  0.00    +0.000 A 
ATOM     26  C   UNL     1       2.964   6.896  18.651  0.00  0.00    +0.000 A 
BRANCH  25  27
ATOM     27  C   UNL     1       4.600   5.462  17.381  0.00  0.00    +0.000 A 
ATOM     28  C   UNL     1       5.115   4.204  17.051  0.00  0.00    +0.000 A 
ATOM     29  C   UNL     1       6.051   4.064  16.024  0.00  0.00    +0.000 A 
ATOM     30  C   UNL     1       6.445   5.185  15.314  0.00  0.00    +0.000 A 
ATOM     31  N   UNL     1       7.394   5.089  14.301  0.00  0.00    +0.000 N 
ATOM     32  N   UNL     1       5.978   6.409  15.585  0.00  0.00    +0.000 NA
ATOM     33  C   UNL     1       5.085   6.519  16.602  0.00  0.00    +0.000 A 
ATOM     34  H   UNL     1       7.141   4.391  13.613  0.00  0.00    +0.000 HD
ATOM     35  H   UNL     1       7.482   6.016  13.891  0.00  0.00    +0.000 HD
ENDBRANCH  25  27
ENDBRANCH  19  21
ENDBRANCH   5  19
TORSDOF 4
ENDMDL
MODEL 6
REMARK VINA RESULT:      -8.7      4.193     10.722
REMARK  Name = 
REMARK  6 active torsions:
REMARK  status: ('A' for Active; 'I' for Inactive)
REMARK    1  A    between atoms: C_1  and  C_2
REMARK    2  A    between atoms: N_5  and  C_6
REMARK    3  A    between atoms: C_6  and  C_7
REMARK    4  A    between atoms: C_6  and  C_8
REMARK    5  A    between atoms: C_12  and  C_13
REMARK    6  A    between atoms: C_22  and  C_23
REMARK                            x       y       z     vdW  Elec       q    Type
REMARK                         _______ _______ _______ _____ _____    ______ ____
ROOT
ATOM      1  C   UNL     1       1.162   2.621  19.435  0.00  0.00    +0.000 C 
ATOM      2  C   UNL     1       1.837   3.949  19.299  0.00  0.00    +0.000 A 
ATOM      3  N   UNL     1       1.423   4.959  20.088  0.00  0.00    +0.000 NA
ATOM      4  C   UNL     1       2.094   6.115  20.015  0.00  0.00    +0.000 A 
ATOM      5  N   UNL     1       1.671   7.115  20.876  0.00  0.00    +0.000 N 
ATOM      6  C   UNL     1       3.181   6.257  19.180  0.00  0.00    +0.000 A 
ATOM      7  C   UNL     1       3.523   5.193  18.369  0.00  0.00    +0.000 A 
ATOM      8  N   UNL     1       2.847   4.029  18.414  0.00  0.00    +0.000 NA
ATOM      9  H   UNL     1       0.787   6.821  21.284  0.00  0.00    +0.000 HD
ENDROOT
BRANCH   7  10
ATOM     10  C   UNL     1       4.639   5.271  17.404  0.00  0.00    +0.000 A 
ATOM     11  C   UNL     1       5.785   6.025  17.696  0.00  0.00    +0.000 A 
ATOM     12  C   UNL     1       6.869   6.099  16.808  0.00  0.00    +0.000 A 
ATOM     13  C   UNL     1       6.817   5.409  15.583  0.00  0.00    +0.000 A 
ATOM     14  N   UNL     1       7.804   5.393  14.612  0.00  0.00    +0.000 NA
ATOM     15  C   UNL     1       7.410   4.653  13.599  0.00  0.00    +0.000 A 
ATOM     16  S   UNL     1       5.868   3.925  13.742  0.00  0.00    +0.000 S 
ATOM     17  C   UNL     1       5.677   4.662  15.288  0.00  0.00    +0.000 A 
ATOM     18  C   UNL     1       4.588   4.583  16.174  0.00  0.00    +0.000 A 
ENDBRANCH   7  10
BRANCH   5  19
ATOM     19  C   UNL     1       1.748   8.520  20.495  0.00  0.00    +0.000 C 
ATOM     20  C   UNL     1       1.365   8.719  19.028  0.00  0.00    +0.000 C 
BRANCH  19  21
ATOM     21  C   UNL     1       0.870   9.387  21.386  0.00  0.00    +0.000 A 
ATOM     22  C   UNL     1       0.136   8.878  22.461  0.00  0.00    +0.000 A 
ATOM     23  C   UNL     1      -0.726   9.707  23.176  0.00  0.00    +0.000 A 
ATOM     24  C   UNL     1      -0.881  11.048  22.812  0.00  0.00    +0.000 A 
ATOM     25  C   UNL     1      -0.159  11.608  21.745  0.00  0.00    +0.000 A 
ATOM     26  C   UNL     1       0.728  10.753  21.063  0.00  0.00    +0.000 A 
BRANCH  25  27
ATOM     27  C   UNL     1      -0.343  13.018  21.331  0.00  0.00    +0.000 A 
ATOM     28  C   UNL     1      -0.359  14.079  22.242  0.00  0.00    +0.000 A 
ATOM     29  C   UNL     1      -0.572  15.389  21.807  0.00  0.00    +0.000 A 
ATOM     30  C   UNL     1      -0.739  15.631  20.455  0.00  0.00    +0.000 A 
ATOM     31  N   UNL     1      -0.978  16.920  19.986  0.00  0.00    +0.000 N 
ATOM     32  N   UNL     1      -0.726  14.653  19.541  0.00  0.00    +0.000 NA
ATOM     33  C   UNL     1      -0.538  13.387  19.995  0.00  0.00    +0.000 A 
ATOM     34  H   UNL     1      -0.275  17.573  20.307  0.00  0.00    +0.000 HD
ATOM     35  H   UNL     1      -1.012  16.861  18.971  0.00  0.00    +0.000 HD
ENDBRANCH  25  27
ENDBRANCH  19  21
ENDBRANCH   5  19
TORSDOF 4
ENDMDL
MODEL 7
REMARK VINA RESULT:      -8.7      2.615      4.103
REMARK  Name = 
REMARK  6 active torsions:
REMARK  status: ('A' for Active; 'I' for Inactive)
REMARK    1  A    between atoms: C_1  and  C_2
REMARK    2  A    between atoms: N_5  and  C_6
REMARK    3  A    between atoms: C_6  and  C_7
REMARK    4  A    between atoms: C_6  and  C_8
REMARK    5  A    between atoms: C_12  and  C_13
REMARK    6  A    between atoms: C_22  and  C_23
REMARK                            x       y       z     vdW  Elec       q    Type
REMARK                         _______ _______ _______ _____ _____    ______ ____
ROOT
ATOM      1  C   UNL     1      -2.191  11.317  16.956  0.00  0.00    +0.000 C 
ATOM      2  C   UNL     1      -1.381  11.060  18.188  0.00  0.00    +0.000 A 
ATOM      3  N   UNL     1      -0.441  10.097  18.142  0.00  0.00    +0.000 NA
ATOM      4  C   UNL     1       0.332   9.936  19.222  0.00  0.00    +0.000 A 
ATOM      5  N   UNL     1       1.319   8.969  19.121  0.00  0.00    +0.000 N 
ATOM      6  C   UNL     1       0.186  10.743  20.330  0.00  0.00    +0.000 A 
ATOM      7  C   UNL     1      -0.826  11.683  20.322  0.00  0.00    +0.000 A 
ATOM      8  N   UNL     1      -1.628  11.844  19.252  0.00  0.00    +0.000 NA
ATOM      9  H   UNL     1       1.141   8.429  18.279  0.00  0.00    +0.000 HD
ENDROOT
BRANCH   7  10
ATOM     10  C   UNL     1      -1.093  12.556  21.484  0.00  0.00    +0.000 A 
ATOM     11  C   UNL     1      -2.056  12.198  22.440  0.00  0.00    +0.000 A 
ATOM     12  C   UNL     1      -2.314  12.997  23.564  0.00  0.00    +0.000 A 
ATOM     13  C   UNL     1      -1.599  14.194  23.750  0.00  0.00    +0.000 A 
ATOM     14  N   UNL     1      -1.749  15.080  24.804  0.00  0.00    +0.000 NA
ATOM     15  C   UNL     1      -0.926  16.093  24.646  0.00  0.00    +0.000 A 
ATOM     16  S   UNL     1       0.077  16.050  23.260  0.00  0.00    +0.000 S 
ATOM     17  C   UNL     1      -0.645  14.554  22.800  0.00  0.00    +0.000 A 
ATOM     18  C   UNL     1      -0.381  13.758  21.671  0.00  0.00    +0.000 A 
ENDBRANCH   7  10
BRANCH   5  19
ATOM     19  C   UNL     1       1.739   8.195  20.284  0.00  0.00    +0.000 C 
ATOM     20  C   UNL     1       0.625   8.120  21.330  0.00  0.00    +0.000 C 
BRANCH  19  21
ATOM     21  C   UNL     1       2.180   6.793  19.890  0.00  0.00    +0.000 A 
ATOM     22  C   UNL     1       1.827   5.651  20.614  0.00  0.00    +0.000 A 
ATOM     23  C   UNL     1       2.346   4.408  20.257  0.00  0.00    +0.000 A 
ATOM     24  C   UNL     1       3.238   4.295  19.187  0.00  0.00    +0.000 A 
ATOM     25  C   UNL     1       3.615   5.412  18.424  0.00  0.00    +0.000 A 
ATOM     26  C   UNL     1       3.050   6.648  18.789  0.00  0.00    +0.000 A 
BRANCH  25  27
ATOM     27  C   UNL     1       4.587   5.307  17.311  0.00  0.00    +0.000 A 
ATOM     28  C   UNL     1       4.795   4.122  16.596  0.00  0.00    +0.000 A 
ATOM     29  C   UNL     1       5.748   4.063  15.577  0.00  0.00    +0.000 A 
ATOM     30  C   UNL     1       6.470   5.201  15.262  0.00  0.00    +0.000 A 
ATOM     31  N   UNL     1       7.446   5.173  14.271  0.00  0.00    +0.000 N 
ATOM     32  N   UNL     1       6.306   6.360  15.911  0.00  0.00    +0.000 NA
ATOM     33  C   UNL     1       5.387   6.383  16.910  0.00  0.00    +0.000 A 
ATOM     34  H   UNL     1       7.084   4.816  13.396  0.00  0.00    +0.000 HD
ATOM     35  H   UNL     1       7.799   6.123  14.179  0.00  0.00    +0.000 HD
ENDBRANCH  25  27
ENDBRANCH  19  21
ENDBRANCH   5  19
TORSDOF 4
ENDMDL
MODEL 8
REMARK VINA RESULT:      -8.6      3.452      6.669
REMARK  Name = 
REMARK  6 active torsions:
REMARK  status: ('A' for Active; 'I' for Inactive)
REMARK    1  A    between atoms: C_1  and  C_2
REMARK    2  A    between atoms: N_5  and  C_6
REMARK    3  A    between atoms: C_6  and  C_7
REMARK    4  A    between atoms: C_6  and  C_8
REMARK    5  A    between atoms: C_12  and  C_13
REMARK    6  A    between atoms: C_22  and  C_23
REMARK                            x       y       z     vdW  Elec       q    Type
REMARK                         _______ _______ _______ _____ _____    ______ ____
ROOT
ATOM      1  C   UNL     1       2.090   3.884  21.166  0.00  0.00    +0.000 C 
ATOM      2  C   UNL     1       2.540   4.853  20.118  0.00  0.00    +0.000 A 
ATOM      3  N   UNL     1       3.357   4.406  19.146  0.00  0.00    +0.000 NA
ATOM      4  C   UNL     1       3.681   5.262  18.170  0.00  0.00    +0.000 A 
ATOM      5  N   UNL     1       4.484   4.754  17.161  0.00  0.00    +0.000 N 
ATOM      6  C   UNL     1       3.176   6.544  18.149  0.00  0.00    +0.000 A 
ATOM      7  C   UNL     1       2.377   6.946  19.201  0.00  0.00    +0.000 A 
ATOM      8  N   UNL     1       2.058   6.106  20.203  0.00  0.00    +0.000 NA
ATOM      9  H   UNL     1       4.829   3.847  17.466  0.00  0.00    +0.000 HD
ENDROOT
BRANCH   7  10
ATOM     10  C   UNL     1       1.835   8.318  19.292  0.00  0.00    +0.000 A 
ATOM     11  C   UNL     1       1.963   9.210  18.217  0.00  0.00    +0.000 A 
ATOM     12  C   UNL     1       1.438  10.511  18.268  0.00  0.00    +0.000 A 
ATOM     13  C   UNL     1       0.768  10.949  19.424  0.00  0.00    +0.000 A 
ATOM     14  N   UNL     1       0.206  12.200  19.619  0.00  0.00    +0.000 NA
ATOM     15  C   UNL     1      -0.327  12.260  20.819  0.00  0.00    +0.000 A 
ATOM     16  S   UNL     1      -0.209  10.846  21.776  0.00  0.00    +0.000 S 
ATOM     17  C   UNL     1       0.644  10.066  20.497  0.00  0.00    +0.000 A 
ATOM     18  C   UNL     1       1.166   8.762  20.452  0.00  0.00    +0.000 A 
ENDBRANCH   7  10
BRANCH   5  19
ATOM     19  C   UNL     1       5.459   5.596  16.477  0.00  0.00    +0.000 C 
ATOM     20  C   UNL     1       4.797   6.843  15.889  0.00  0.00    +0.000 C 
BRANCH  19  21
ATOM     21  C   UNL     1       6.597   5.996  17.404  0.00  0.00    +0.000 A 
ATOM     22  C   UNL     1       7.163   5.124  18.337  0.00  0.00    +0.000 A 
ATOM     23  C   UNL     1       8.135   5.581  19.225  0.00  0.00    +0.000 A 
ATOM     24  C   UNL     1       8.536   6.920  19.204  0.00  0.00    +0.000 A 
ATOM     25  C   UNL     1       8.004   7.833  18.279  0.00  0.00    +0.000 A 
ATOM     26  C   UNL     1       7.048   7.333  17.375  0.00  0.00    +0.000 A 
BRANCH  25  27
ATOM     27  C   UNL     1       8.398   9.261  18.273  0.00  0.00    +0.000 A 
ATOM     28  C   UNL     1       9.315   9.797  19.183  0.00  0.00    +0.000 A 
ATOM     29  C   UNL     1       9.629  11.158  19.161  0.00  0.00    +0.000 A 
ATOM     30  C   UNL     1       9.040  11.969  18.207  0.00  0.00    +0.000 A 
ATOM     31  N   UNL     1       9.308  13.334  18.169  0.00  0.00    +0.000 N 
ATOM     32  N   UNL     1       8.161  11.506  17.310  0.00  0.00    +0.000 NA
ATOM     33  C   UNL     1       7.860  10.183  17.369  0.00  0.00    +0.000 A 
ATOM     34  H   UNL     1      10.302  13.521  18.127  0.00  0.00    +0.000 HD
ATOM     35  H   UNL     1       8.814  13.709  17.362  0.00  0.00    +0.000 HD
ENDBRANCH  25  27
ENDBRANCH  19  21
ENDBRANCH   5  19
TORSDOF 4
ENDMDL
MODEL 9
REMARK VINA RESULT:      -8.6      3.709      7.334
REMARK  Name = 
REMARK  6 active torsions:
REMARK  status: ('A' for Active; 'I' for Inactive)
REMARK    1  A    between atoms: C_1  and  C_2
REMARK    2  A    between atoms: N_5  and  C_6
REMARK    3  A    between atoms: C_6  and  C_7
REMARK    4  A    between atoms: C_6  and  C_8
REMARK    5  A    between atoms: C_12  and  C_13
REMARK    6  A    between atoms: C_22  and  C_23
REMARK                            x       y       z     vdW  Elec       q    Type
REMARK                         _______ _______ _______ _____ _____    ______ ____
ROOT
ATOM      1  C   UNL     1       2.930   2.511  20.347  0.00  0.00    +0.000 C 
ATOM      2  C   UNL     1       3.218   3.751  19.561  0.00  0.00    +0.000 A 
ATOM      3  N   UNL     1       4.014   3.649  18.480  0.00  0.00    +0.000 NA
ATOM      4  C   UNL     1       4.194   4.749  17.739  0.00  0.00    +0.000 A 
ATOM      5  N   UNL     1       4.979   4.594  16.607  0.00  0.00    +0.000 N 
ATOM      6  C   UNL     1       3.567   5.934  18.058  0.00  0.00    +0.000 A 
ATOM      7  C   UNL     1       2.798   5.975  19.205  0.00  0.00    +0.000 A 
ATOM      8  N   UNL     1       2.624   4.884  19.974  0.00  0.00    +0.000 NA
ATOM      9  H   UNL     1       5.428   3.684  16.662  0.00  0.00    +0.000 HD
ENDROOT
BRANCH   7  10
ATOM     10  C   UNL     1       2.132   7.215  19.656  0.00  0.00    +0.000 A 
ATOM     11  C   UNL     1       1.551   7.291  20.931  0.00  0.00    +0.000 A 
ATOM     12  C   UNL     1       0.933   8.462  21.393  0.00  0.00    +0.000 A 
ATOM     13  C   UNL     1       0.881   9.599  20.566  0.00  0.00    +0.000 A 
ATOM     14  N   UNL     1       0.303  10.816  20.885  0.00  0.00    +0.000 NA
ATOM     15  C   UNL     1       0.432  11.643  19.871  0.00  0.00    +0.000 A 
ATOM     16  S   UNL     1       1.253  11.038  18.497  0.00  0.00    +0.000 S 
ATOM     17  C   UNL     1       1.454   9.525  19.297  0.00  0.00    +0.000 A 
ATOM     18  C   UNL     1       2.076   8.355  18.828  0.00  0.00    +0.000 A 
ENDBRANCH   7  10
BRANCH   5  19
ATOM     19  C   UNL     1       5.824   5.680  16.122  0.00  0.00    +0.000 C 
ATOM     20  C   UNL     1       4.984   6.878  15.676  0.00  0.00    +0.000 C 
BRANCH  19  21
ATOM     21  C   UNL     1       6.833   6.113  17.175  0.00  0.00    +0.000 A 
ATOM     22  C   UNL     1       7.315   5.255  18.168  0.00  0.00    +0.000 A 
ATOM     23  C   UNL     1       8.162   5.740  19.162  0.00  0.00    +0.000 A 
ATOM     24  C   UNL     1       8.519   7.091  19.189  0.00  0.00    +0.000 A 
ATOM     25  C   UNL     1       8.068   7.991  18.209  0.00  0.00    +0.000 A 
ATOM     26  C   UNL     1       7.240   7.464  17.200  0.00  0.00    +0.000 A 
BRANCH  25  27
ATOM     27  C   UNL     1       8.413   9.430  18.250  0.00  0.00    +0.000 A 
ATOM     28  C   UNL     1       9.365   9.957  19.130  0.00  0.00    +0.000 A 
ATOM     29  C   UNL     1       9.631  11.327  19.156  0.00  0.00    +0.000 A 
ATOM     30  C   UNL     1       8.959  12.161  18.278  0.00  0.00    +0.000 A 
ATOM     31  N   UNL     1       9.179  13.535  18.292  0.00  0.00    +0.000 N 
ATOM     32  N   UNL     1       8.045  11.708  17.412  0.00  0.00    +0.000 NA
ATOM     33  C   UNL     1       7.791  10.374  17.424  0.00  0.00    +0.000 A 
ATOM     34  H   UNL     1      10.162  13.759  18.202  0.00  0.00    +0.000 HD
ATOM     35  H   UNL     1       8.626  13.928  17.534  0.00  0.00    +0.000 HD
ENDBRANCH  25  27
ENDBRANCH  19  21
ENDBRANCH   5  19
TORSDOF 4
ENDMDL
