MODEL 1
REMARK VINA RESULT:      -8.1      0.000      0.000
REMARK  Name = 
REMARK  6 active torsions:
REMARK  status: ('A' for Active; 'I' for Inactive)
REMARK    1  A    between atoms: C_1  and  O_2
REMARK    2  A    between atoms: O_2  and  C_3
REMARK    3  A    between atoms: C_6  and  S_7
REMARK    4  A    between atoms: S_7  and  C_10
REMARK    5  A    between atoms: N_20  and  C_21
REMARK    6  A    between atoms: C_24  and  C_25
REMARK                            x       y       z     vdW  Elec       q    Type
REMARK                         _______ _______ _______ _____ _____    ______ ____
ROOT
ATOM      1  C   UNL     1       0.365  12.791  20.740  0.00  0.00    +0.000 C 
ATOM      2  C   UNL     1       1.427  12.062  19.858  0.00  0.00    +0.000 C 
ATOM      3  C   UNL     1       1.168  10.541  19.611  0.00  0.00    +0.000 C 
ATOM      4  C   UNL     1      -0.213  10.301  18.993  0.00  0.00    +0.000 C 
ATOM      5  C   UNL     1      -1.167  10.227  20.219  0.00  0.00    +0.000 C 
ATOM      6  C   UNL     1      -0.228  10.365  21.427  0.00  0.00    +0.000 C 
ATOM      7  C   UNL     1      -0.065  11.842  21.860  0.00  0.00    +0.000 C 
ATOM      8  N   UNL     1       1.018   9.822  20.878  0.00  0.00    +0.000 N 
ATOM      9  C   UNL     1       1.032   8.389  20.840  0.00  0.00    +0.000 C 
ATOM     10  O   UNL     1       0.132   7.713  21.336  0.00  0.00    +0.000 OA
ATOM     11  N   UNL     1       2.113   7.827  20.182  0.00  0.00    +0.000 N 
ATOM     12  H   UNL     1       2.997   8.212  20.483  0.00  0.00    +0.000 HD
ENDROOT
BRANCH  11  13
ATOM     13  C   UNL     1       2.106   6.456  19.786  0.00  0.00    +0.000 A 
ATOM     14  C   UNL     1       1.816   5.438  20.705  0.00  0.00    +0.000 A 
ATOM     15  C   UNL     1       1.731   4.097  20.293  0.00  0.00    +0.000 A 
ATOM     16  C   UNL     1       1.972   3.743  18.959  0.00  0.00    +0.000 A 
ATOM     17  C   UNL     1       2.306   4.762  18.052  0.00  0.00    +0.000 A 
ATOM     18  C   UNL     1       2.341   6.108  18.454  0.00  0.00    +0.000 A 
BRANCH  16  19
ATOM     19  C   UNL     1       1.856   2.308  18.488  0.00  0.00    +0.000 C 
ATOM     20  F   UNL     1       0.584   1.821  18.514  0.00  0.00    +0.000 F 
ATOM     21  F   UNL     1       2.280   2.151  17.201  0.00  0.00    +0.000 F 
ATOM     22  F   UNL     1       2.602   1.443  19.230  0.00  0.00    +0.000 F 
ENDBRANCH  16  19
ENDBRANCH  11  13
BRANCH   1  23
ATOM     23  S   UNL     1      -0.896  13.674  19.768  0.00  0.00    +0.000 S 
ATOM     24  O   UNL     1      -0.986  13.183  18.408  0.00  0.00    +0.000 OA
ATOM     25  O   UNL     1      -0.613  15.083  19.955  0.00  0.00    +0.000 OA
BRANCH  23  29
ATOM     26  C   UNL     1      -5.027  12.613  21.553  0.00  0.00    +0.000 A 
ATOM     27  C   UNL     1      -4.714  12.297  20.232  0.00  0.00    +0.000 A 
ATOM     28  C   UNL     1      -3.490  12.703  19.673  0.00  0.00    +0.000 A 
ATOM     29  C   UNL     1      -2.562  13.438  20.424  0.00  0.00    +0.000 A 
ATOM     30  C   UNL     1      -2.835  13.666  21.782  0.00  0.00    +0.000 A 
ATOM     31  C   UNL     1      -4.067  13.265  22.334  0.00  0.00    +0.000 A 
BRANCH  26  33
ATOM     32  C   UNL     1      -7.318  12.002  21.363  0.00  0.00    +0.000 C 
ATOM     33  O   UNL     1      -6.196  12.294  22.196  0.00  0.00    +0.000 OA
ENDBRANCH  26  33
ENDBRANCH  23  29
ENDBRANCH   1  23
TORSDOF 5
ENDMDL
MODEL 2
REMARK VINA RESULT:      -8.0      0.784      1.356
REMARK  Name = 
REMARK  6 active torsions:
REMARK  status: ('A' for Active; 'I' for Inactive)
REMARK    1  A    between atoms: C_1  and  O_2
REMARK    2  A    between atoms: O_2  and  C_3
REMARK    3  A    between atoms: C_6  and  S_7
REMARK    4  A    between atoms: S_7  and  C_10
REMARK    5  A    between atoms: N_20  and  C_21
REMARK    6  A    between atoms: C_24  and  C_25
REMARK                            x       y       z     vdW  Elec       q    Type
REMARK                         _______ _______ _______ _____ _____    ______ ____
ROOT
ATOM      1  C   UNL     1       0.565  12.592  20.022  0.00  0.00    +0.000 C 
ATOM      2  C   UNL     1       1.504  11.867  19.006  0.00  0.00    +0.000 C 
ATOM      3  C   UNL     1       1.327  10.317  18.913  0.00  0.00    +0.000 C 
ATOM      4  C   UNL     1      -0.120   9.937  18.583  0.00  0.00    +0.000 C 
ATOM      5  C   UNL     1      -0.825   9.898  19.969  0.00  0.00    +0.000 C 
ATOM      6  C   UNL     1       0.305  10.194  20.967  0.00  0.00    +0.000 C 
ATOM      7  C   UNL     1       0.425  11.709  21.263  0.00  0.00    +0.000 C 
ATOM      8  N   UNL     1       1.469   9.693  20.231  0.00  0.00    +0.000 N 
ATOM      9  C   UNL     1       1.591   8.266  20.285  0.00  0.00    +0.000 C 
ATOM     10  O   UNL     1       0.854   7.573  20.986  0.00  0.00    +0.000 OA
ATOM     11  N   UNL     1       2.575   7.726  19.474  0.00  0.00    +0.000 N 
ATOM     12  H   UNL     1       3.465   8.192  19.578  0.00  0.00    +0.000 HD
ENDROOT
BRANCH  11  13
ATOM     13  C   UNL     1       2.606   6.331  19.178  0.00  0.00    +0.000 A 
ATOM     14  C   UNL     1       3.335   5.437  19.975  0.00  0.00    +0.000 A 
ATOM     15  C   UNL     1       3.297   4.054  19.728  0.00  0.00    +0.000 A 
ATOM     16  C   UNL     1       2.559   3.540  18.653  0.00  0.00    +0.000 A 
ATOM     17  C   UNL     1       1.867   4.445  17.831  0.00  0.00    +0.000 A 
ATOM     18  C   UNL     1       1.864   5.823  18.109  0.00  0.00    +0.000 A 
BRANCH  16  19
ATOM     19  C   UNL     1       2.480   2.052  18.387  0.00  0.00    +0.000 C 
ATOM     20  F   UNL     1       3.581   1.361  18.795  0.00  0.00    +0.000 F 
ATOM     21  F   UNL     1       1.426   1.468  19.024  0.00  0.00    +0.000 F 
ATOM     22  F   UNL     1       2.323   1.756  17.067  0.00  0.00    +0.000 F 
ENDBRANCH  16  19
ENDBRANCH  11  13
BRANCH   1  23
ATOM     23  S   UNL     1      -0.920  13.308  19.248  0.00  0.00    +0.000 S 
ATOM     24  O   UNL     1      -1.113  12.840  17.891  0.00  0.00    +0.000 OA
ATOM     25  O   UNL     1      -0.812  14.738  19.456  0.00  0.00    +0.000 OA
BRANCH  23  29
ATOM     26  C   UNL     1      -4.962  12.524  21.351  0.00  0.00    +0.000 A 
ATOM     27  C   UNL     1      -3.887  13.076  22.046  0.00  0.00    +0.000 A 
ATOM     28  C   UNL     1      -2.637  13.227  21.421  0.00  0.00    +0.000 A 
ATOM     29  C   UNL     1      -2.440  12.823  20.094  0.00  0.00    +0.000 A 
ATOM     30  C   UNL     1      -3.548  12.363  19.366  0.00  0.00    +0.000 A 
ATOM     31  C   UNL     1      -4.796  12.205  20.000  0.00  0.00    +0.000 A 
BRANCH  26  33
ATOM     32  C   UNL     1      -7.156  11.680  20.987  0.00  0.00    +0.000 C 
ATOM     33  O   UNL     1      -6.216  12.306  21.861  0.00  0.00    +0.000 OA
ENDBRANCH  26  33
ENDBRANCH  23  29
ENDBRANCH   1  23
TORSDOF 5
ENDMDL
MODEL 3
REMARK VINA RESULT:      -7.8      0.292      1.090
REMARK  Name = 
REMARK  6 active torsions:
REMARK  status: ('A' for Active; 'I' for Inactive)
REMARK    1  A    between atoms: C_1  and  O_2
REMARK    2  A    between atoms: O_2  and  C_3
REMARK    3  A    between atoms: C_6  and  S_7
REMARK    4  A    between atoms: S_7  and  C_10
REMARK    5  A    between atoms: N_20  and  C_21
REMARK    6  A    between atoms: C_24  and  C_25
REMARK                            x       y       z     vdW  Elec       q    Type
REMARK                         _______ _______ _______ _____ _____    ______ ____
ROOT
ATOM      1  C   UNL     1       0.307  12.855  21.086  0.00  0.00    +0.000 C 
ATOM      2  C   UNL     1       1.403  12.158  20.220  0.00  0.00    +0.000 C 
ATOM      3  C   UNL     1       1.136  10.658  19.875  0.00  0.00    +0.000 C 
ATOM      4  C   UNL     1      -0.215  10.476  19.175  0.00  0.00    +0.000 C 
ATOM      5  C   UNL     1      -1.232  10.351  20.345  0.00  0.00    +0.000 C 
ATOM      6  C   UNL     1      -0.355  10.405  21.605  0.00  0.00    +0.000 C 
ATOM      7  C   UNL     1      -0.194  11.853  22.128  0.00  0.00    +0.000 C 
ATOM      8  N   UNL     1       0.911   9.872  21.090  0.00  0.00    +0.000 N 
ATOM      9  C   UNL     1       0.906   8.444  20.972  0.00  0.00    +0.000 C 
ATOM     10  O   UNL     1      -0.028   7.757  21.383  0.00  0.00    +0.000 OA
ATOM     11  N   UNL     1       2.012   7.901  20.339  0.00  0.00    +0.000 N 
ATOM     12  H   UNL     1       2.884   8.253  20.706  0.00  0.00    +0.000 HD
ENDROOT
BRANCH  11  13
ATOM     13  C   UNL     1       2.006   6.554  19.867  0.00  0.00    +0.000 A 
ATOM     14  C   UNL     1       2.226   6.260  18.513  0.00  0.00    +0.000 A 
ATOM     15  C   UNL     1       2.300   4.930  18.067  0.00  0.00    +0.000 A 
ATOM     16  C   UNL     1       2.117   3.866  18.959  0.00  0.00    +0.000 A 
ATOM     17  C   UNL     1       1.852   4.167  20.305  0.00  0.00    +0.000 A 
ATOM     18  C   UNL     1       1.829   5.497  20.760  0.00  0.00    +0.000 A 
BRANCH  16  19
ATOM     19  C   UNL     1       2.222   2.425  18.505  0.00  0.00    +0.000 C 
ATOM     20  F   UNL     1       2.480   2.285  17.174  0.00  0.00    +0.000 F 
ATOM     21  F   UNL     1       3.223   1.754  19.143  0.00  0.00    +0.000 F 
ATOM     22  F   UNL     1       1.089   1.709  18.743  0.00  0.00    +0.000 F 
ENDBRANCH  16  19
ENDBRANCH  11  13
BRANCH   1  23
ATOM     23  S   UNL     1      -0.890  13.812  20.102  0.00  0.00    +0.000 S 
ATOM     24  O   UNL     1      -0.884  13.429  18.705  0.00  0.00    +0.000 OA
ATOM     25  O   UNL     1      -0.628  15.202  20.418  0.00  0.00    +0.000 OA
BRANCH  23  29
ATOM     26  C   UNL     1      -5.122  12.619  21.530  0.00  0.00    +0.000 A 
ATOM     27  C   UNL     1      -4.708  12.364  20.224  0.00  0.00    +0.000 A 
ATOM     28  C   UNL     1      -3.453  12.810  19.775  0.00  0.00    +0.000 A 
ATOM     29  C   UNL     1      -2.595  13.525  20.623  0.00  0.00    +0.000 A 
ATOM     30  C   UNL     1      -2.971  13.691  21.965  0.00  0.00    +0.000 A 
ATOM     31  C   UNL     1      -4.234  13.250  22.406  0.00  0.00    +0.000 A 
BRANCH  26  33
ATOM     32  C   UNL     1      -7.418  12.121  21.157  0.00  0.00    +0.000 C 
ATOM     33  O   UNL     1      -6.329  12.256  22.071  0.00  0.00    +0.000 OA
ENDBRANCH  26  33
ENDBRANCH  23  29
ENDBRANCH   1  23
TORSDOF 5
ENDMDL
MODEL 4
REMARK VINA RESULT:      -7.7      1.191      1.706
REMARK  Name = 
REMARK  6 active torsions:
REMARK  status: ('A' for Active; 'I' for Inactive)
REMARK    1  A    between atoms: C_1  and  O_2
REMARK    2  A    between atoms: O_2  and  C_3
REMARK    3  A    between atoms: C_6  and  S_7
REMARK    4  A    between atoms: S_7  and  C_10
REMARK    5  A    between atoms: N_20  and  C_21
REMARK    6  A    between atoms: C_24  and  C_25
REMARK                            x       y       z     vdW  Elec       q    Type
REMARK                         _______ _______ _______ _____ _____    ______ ____
ROOT
ATOM      1  C   UNL     1       0.843  12.758  19.689  0.00  0.00    +0.000 C 
ATOM      2  C   UNL     1       1.626  11.905  18.642  0.00  0.00    +0.000 C 
ATOM      3  C   UNL     1       1.364  10.365  18.696  0.00  0.00    +0.000 C 
ATOM      4  C   UNL     1      -0.127  10.045  18.555  0.00  0.00    +0.000 C 
ATOM      5  C   UNL     1      -0.675  10.153  20.007  0.00  0.00    +0.000 C 
ATOM      6  C   UNL     1       0.572  10.458  20.851  0.00  0.00    +0.000 C 
ATOM      7  C   UNL     1       0.798  11.982  21.006  0.00  0.00    +0.000 C 
ATOM      8  N   UNL     1       1.622   9.837  20.038  0.00  0.00    +0.000 N 
ATOM      9  C   UNL     1       1.679   8.413  20.196  0.00  0.00    +0.000 C 
ATOM     10  O   UNL     1       0.991   7.820  21.026  0.00  0.00    +0.000 OA
ATOM     11  N   UNL     1       2.539   7.757  19.332  0.00  0.00    +0.000 N 
ATOM     12  H   UNL     1       3.457   8.178  19.301  0.00  0.00    +0.000 HD
ENDROOT
BRANCH  11  13
ATOM     13  C   UNL     1       2.469   6.344  19.150  0.00  0.00    +0.000 A 
ATOM     14  C   UNL     1       1.933   5.790  17.979  0.00  0.00    +0.000 A 
ATOM     15  C   UNL     1       1.939   4.401  17.769  0.00  0.00    +0.000 A 
ATOM     16  C   UNL     1       2.449   3.533  18.744  0.00  0.00    +0.000 A 
ATOM     17  C   UNL     1       2.943   4.091  19.935  0.00  0.00    +0.000 A 
ATOM     18  C   UNL     1       2.983   5.484  20.122  0.00  0.00    +0.000 A 
BRANCH  16  19
ATOM     19  C   UNL     1       2.493   2.036  18.526  0.00  0.00    +0.000 C 
ATOM     20  F   UNL     1       3.680   1.464  18.874  0.00  0.00    +0.000 F 
ATOM     21  F   UNL     1       1.545   1.379  19.254  0.00  0.00    +0.000 F 
ATOM     22  F   UNL     1       2.274   1.681  17.230  0.00  0.00    +0.000 F 
ENDBRANCH  16  19
ENDBRANCH  11  13
BRANCH   1  23
ATOM     23  S   UNL     1      -0.682  13.497  19.022  0.00  0.00    +0.000 S 
ATOM     24  O   UNL     1      -1.296  12.669  18.004  0.00  0.00    +0.000 OA
ATOM     25  O   UNL     1      -0.327  14.855  18.658  0.00  0.00    +0.000 OA
BRANCH  23  29
ATOM     26  C   UNL     1      -3.760  13.573  22.471  0.00  0.00    +0.000 A 
ATOM     27  C   UNL     1      -3.884  12.668  21.418  0.00  0.00    +0.000 A 
ATOM     28  C   UNL     1      -2.995  12.713  20.331  0.00  0.00    +0.000 A 
ATOM     29  C   UNL     1      -1.971  13.668  20.275  0.00  0.00    +0.000 A 
ATOM     30  C   UNL     1      -1.785  14.510  21.382  0.00  0.00    +0.000 A 
ATOM     31  C   UNL     1      -2.684  14.467  22.465  0.00  0.00    +0.000 A 
BRANCH  26  33
ATOM     32  C   UNL     1      -4.447  12.590  24.525  0.00  0.00    +0.000 C 
ATOM     33  O   UNL     1      -4.580  13.641  23.568  0.00  0.00    +0.000 OA
ENDBRANCH  26  33
ENDBRANCH  23  29
ENDBRANCH   1  23
TORSDOF 5
ENDMDL
MODEL 5
REMARK VINA RESULT:      -7.7      0.756      1.450
REMARK  Name = 
REMARK  6 active torsions:
REMARK  status: ('A' for Active; 'I' for Inactive)
REMARK    1  A    between atoms: C_1  and  O_2
REMARK    2  A    between atoms: O_2  and  C_3
REMARK    3  A    between atoms: C_6  and  S_7
REMARK    4  A    between atoms: S_7  and  C_10
REMARK    5  A    between atoms: N_20  and  C_21
REMARK    6  A    between atoms: C_24  and  C_25
REMARK                            x       y       z     vdW  Elec       q    Type
REMARK                         _______ _______ _______ _____ _____    ______ ____
ROOT
ATOM      1  C   UNL     1       0.012  12.523  21.256  0.00  0.00    +0.000 C 
ATOM      2  C   UNL     1       1.212  11.993  20.409  0.00  0.00    +0.000 C 
ATOM      3  C   UNL     1       1.113  10.499  19.962  0.00  0.00    +0.000 C 
ATOM      4  C   UNL     1      -0.179  10.233  19.182  0.00  0.00    +0.000 C 
ATOM      5  C   UNL     1      -1.232   9.934  20.287  0.00  0.00    +0.000 C 
ATOM      6  C   UNL     1      -0.424   9.992  21.592  0.00  0.00    +0.000 C 
ATOM      7  C   UNL     1      -0.434  11.413  22.208  0.00  0.00    +0.000 C 
ATOM      8  N   UNL     1       0.911   9.619  21.115  0.00  0.00    +0.000 N 
ATOM      9  C   UNL     1       1.055   8.207  20.912  0.00  0.00    +0.000 C 
ATOM     10  O   UNL     1       0.176   7.408  21.231  0.00  0.00    +0.000 OA
ATOM     11  N   UNL     1       2.238   7.816  20.307  0.00  0.00    +0.000 N 
ATOM     12  H   UNL     1       3.052   8.227  20.741  0.00  0.00    +0.000 HD
ENDROOT
BRANCH  11  13
ATOM     13  C   UNL     1       2.389   6.509  19.756  0.00  0.00    +0.000 A 
ATOM     14  C   UNL     1       2.617   6.322  18.385  0.00  0.00    +0.000 A 
ATOM     15  C   UNL     1       2.846   5.040  17.859  0.00  0.00    +0.000 A 
ATOM     16  C   UNL     1       2.814   3.911  18.689  0.00  0.00    +0.000 A 
ATOM     17  C   UNL     1       2.540   4.100  20.054  0.00  0.00    +0.000 A 
ATOM     18  C   UNL     1       2.362   5.388  20.588  0.00  0.00    +0.000 A 
BRANCH  16  19
ATOM     19  C   UNL     1       3.087   2.524  18.149  0.00  0.00    +0.000 C 
ATOM     20  F   UNL     1       2.021   1.959  17.516  0.00  0.00    +0.000 F 
ATOM     21  F   UNL     1       4.101   2.514  17.237  0.00  0.00    +0.000 F 
ATOM     22  F   UNL     1       3.456   1.640  19.118  0.00  0.00    +0.000 F 
ENDBRANCH  16  19
ENDBRANCH  11  13
BRANCH   1  23
ATOM     23  S   UNL     1      -1.227  13.420  20.269  0.00  0.00    +0.000 S 
ATOM     24  O   UNL     1      -1.040  13.230  18.845  0.00  0.00    +0.000 OA
ATOM     25  O   UNL     1      -1.212  14.780  20.771  0.00  0.00    +0.000 OA
BRANCH  23  29
ATOM     26  C   UNL     1      -5.672  12.365  20.981  0.00  0.00    +0.000 A 
ATOM     27  C   UNL     1      -4.871  12.835  22.020  0.00  0.00    +0.000 A 
ATOM     28  C   UNL     1      -3.500  13.068  21.814  0.00  0.00    +0.000 A 
ATOM     29  C   UNL     1      -2.907  12.828  20.567  0.00  0.00    +0.000 A 
ATOM     30  C   UNL     1      -3.734  12.452  19.497  0.00  0.00    +0.000 A 
ATOM     31  C   UNL     1      -5.105  12.212  19.712  0.00  0.00    +0.000 A 
BRANCH  26  33
ATOM     32  C   UNL     1      -7.646  12.398  22.308  0.00  0.00    +0.000 C 
ATOM     33  O   UNL     1      -7.010  12.079  21.070  0.00  0.00    +0.000 OA
ENDBRANCH  26  33
ENDBRANCH  23  29
ENDBRANCH   1  23
TORSDOF 5
ENDMDL
MODEL 6
REMARK VINA RESULT:      -7.7      0.957      1.052
REMARK  Name = 
REMARK  6 active torsions:
REMARK  status: ('A' for Active; 'I' for Inactive)
REMARK    1  A    between atoms: C_1  and  O_2
REMARK    2  A    between atoms: O_2  and  C_3
REMARK    3  A    between atoms: C_6  and  S_7
REMARK    4  A    between atoms: S_7  and  C_10
REMARK    5  A    between atoms: N_20  and  C_21
REMARK    6  A    between atoms: C_24  and  C_25
REMARK                            x       y       z     vdW  Elec       q    Type
REMARK                         _______ _______ _______ _____ _____    ______ ____
ROOT
ATOM      1  C   UNL     1       0.743  12.870  19.984  0.00  0.00    +0.000 C 
ATOM      2  C   UNL     1       1.604  12.017  19.000  0.00  0.00    +0.000 C 
ATOM      3  C   UNL     1       1.277  10.489  18.970  0.00  0.00    +0.000 C 
ATOM      4  C   UNL     1      -0.201  10.239  18.654  0.00  0.00    +0.000 C 
ATOM      5  C   UNL     1      -0.903  10.325  20.039  0.00  0.00    +0.000 C 
ATOM      6  C   UNL     1       0.253  10.550  21.026  0.00  0.00    +0.000 C 
ATOM      7  C   UNL     1       0.520  12.057  21.260  0.00  0.00    +0.000 C 
ATOM      8  N   UNL     1       1.361   9.908  20.312  0.00  0.00    +0.000 N 
ATOM      9  C   UNL     1       1.343   8.480  20.424  0.00  0.00    +0.000 C 
ATOM     10  O   UNL     1       0.544   7.891  21.151  0.00  0.00    +0.000 OA
ATOM     11  N   UNL     1       2.268   7.814  19.637  0.00  0.00    +0.000 N 
ATOM     12  H   UNL     1       3.200   8.195  19.724  0.00  0.00    +0.000 HD
ENDROOT
BRANCH  11  13
ATOM     13  C   UNL     1       2.162   6.412  19.398  0.00  0.00    +0.000 A 
ATOM     14  C   UNL     1       2.118   5.496  20.459  0.00  0.00    +0.000 A 
ATOM     15  C   UNL     1       1.933   4.124  20.222  0.00  0.00    +0.000 A 
ATOM     16  C   UNL     1       1.825   3.634  18.914  0.00  0.00    +0.000 A 
ATOM     17  C   UNL     1       1.915   4.549  17.853  0.00  0.00    +0.000 A 
ATOM     18  C   UNL     1       2.050   5.928  18.093  0.00  0.00    +0.000 A 
BRANCH  16  19
ATOM     19  C   UNL     1       1.595   2.163  18.637  0.00  0.00    +0.000 C 
ATOM     20  F   UNL     1       0.289   1.842  18.419  0.00  0.00    +0.000 F 
ATOM     21  F   UNL     1       2.266   1.735  17.529  0.00  0.00    +0.000 F 
ATOM     22  F   UNL     1       2.013   1.359  19.654  0.00  0.00    +0.000 F 
ENDBRANCH  16  19
ENDBRANCH  11  13
BRANCH   1  23
ATOM     23  S   UNL     1      -0.667  13.696  19.180  0.00  0.00    +0.000 S 
ATOM     24  O   UNL     1      -1.229  12.902  18.106  0.00  0.00    +0.000 OA
ATOM     25  O   UNL     1      -0.201  15.029  18.856  0.00  0.00    +0.000 OA
BRANCH  23  29
ATOM     26  C   UNL     1      -4.033  13.972  22.336  0.00  0.00    +0.000 A 
ATOM     27  C   UNL     1      -4.092  13.036  21.305  0.00  0.00    +0.000 A 
ATOM     28  C   UNL     1      -3.109  13.019  20.301  0.00  0.00    +0.000 A 
ATOM     29  C   UNL     1      -2.055  13.944  20.307  0.00  0.00    +0.000 A 
ATOM     30  C   UNL     1      -1.942  14.818  21.400  0.00  0.00    +0.000 A 
ATOM     31  C   UNL     1      -2.935  14.835  22.398  0.00  0.00    +0.000 A 
BRANCH  26  33
ATOM     32  C   UNL     1      -5.822  12.992  23.560  0.00  0.00    +0.000 C 
ATOM     33  O   UNL     1      -4.945  14.099  23.353  0.00  0.00    +0.000 OA
ENDBRANCH  26  33
ENDBRANCH  23  29
ENDBRANCH   1  23
TORSDOF 5
ENDMDL
MODEL 7
REMARK VINA RESULT:      -7.6      5.838     10.686
REMARK  Name = 
REMARK  6 active torsions:
REMARK  status: ('A' for Active; 'I' for Inactive)
REMARK    1  A    between atoms: C_1  and  O_2
REMARK    2  A    between atoms: O_2  and  C_3
REMARK    3  A    between atoms: C_6  and  S_7
REMARK    4  A    between atoms: S_7  and  C_10
REMARK    5  A    between atoms: N_20  and  C_21
REMARK    6  A    between atoms: C_24  and  C_25
REMARK                            x       y       z     vdW  Elec       q    Type
REMARK                         _______ _______ _______ _____ _____    ______ ____
ROOT
ATOM      1  C   UNL     1       2.273   3.696  18.705  0.00  0.00    +0.000 C 
ATOM      2  C   UNL     1       1.940   4.759  17.611  0.00  0.00    +0.000 C 
ATOM      3  C   UNL     1       2.255   6.241  17.994  0.00  0.00    +0.000 C 
ATOM      4  C   UNL     1       3.721   6.415  18.402  0.00  0.00    +0.000 C 
ATOM      5  C   UNL     1       3.737   6.058  19.915  0.00  0.00    +0.000 C 
ATOM      6  C   UNL     1       2.263   5.779  20.245  0.00  0.00    +0.000 C 
ATOM      7  C   UNL     1       1.912   4.281  20.071  0.00  0.00    +0.000 C 
ATOM      8  N   UNL     1       1.588   6.612  19.245  0.00  0.00    +0.000 N 
ATOM      9  C   UNL     1       1.561   7.999  19.603  0.00  0.00    +0.000 C 
ATOM     10  O   UNL     1       1.959   8.400  20.696  0.00  0.00    +0.000 OA
ATOM     11  N   UNL     1       1.083   8.852  18.622  0.00  0.00    +0.000 N 
ATOM     12  H   UNL     1       0.208   8.540  18.226  0.00  0.00    +0.000 HD
ENDROOT
BRANCH  11  13
ATOM     13  C   UNL     1       1.291  10.261  18.703  0.00  0.00    +0.000 A 
ATOM     14  C   UNL     1       2.366  10.874  18.044  0.00  0.00    +0.000 A 
ATOM     15  C   UNL     1       2.521  12.271  18.059  0.00  0.00    +0.000 A 
ATOM     16  C   UNL     1       1.622  13.081  18.766  0.00  0.00    +0.000 A 
ATOM     17  C   UNL     1       0.573  12.458  19.461  0.00  0.00    +0.000 A 
ATOM     18  C   UNL     1       0.390  11.065  19.403  0.00  0.00    +0.000 A 
BRANCH  16  19
ATOM     19  C   UNL     1       1.753  14.590  18.771  0.00  0.00    +0.000 C 
ATOM     20  F   UNL     1       2.192  15.101  19.955  0.00  0.00    +0.000 F 
ATOM     21  F   UNL     1       2.635  15.035  17.831  0.00  0.00    +0.000 F 
ATOM     22  F   UNL     1       0.578  15.225  18.504  0.00  0.00    +0.000 F 
ENDBRANCH  16  19
ENDBRANCH  11  13
BRANCH   1  23
ATOM     23  S   UNL     1       3.889   2.893  18.463  0.00  0.00    +0.000 S 
ATOM     24  O   UNL     1       3.770   1.598  17.823  0.00  0.00    +0.000 OA
ATOM     25  O   UNL     1       4.544   2.945  19.754  0.00  0.00    +0.000 OA
BRANCH  23  29
ATOM     26  C   UNL     1       6.908   4.881  15.579  0.00  0.00    +0.000 A 
ATOM     27  C   UNL     1       7.168   4.799  16.946  0.00  0.00    +0.000 A 
ATOM     28  C   UNL     1       6.205   4.273  17.825  0.00  0.00    +0.000 A 
ATOM     29  C   UNL     1       4.964   3.827  17.352  0.00  0.00    +0.000 A 
ATOM     30  C   UNL     1       4.744   3.816  15.966  0.00  0.00    +0.000 A 
ATOM     31  C   UNL     1       5.709   4.352  15.091  0.00  0.00    +0.000 A 
BRANCH  26  33
ATOM     32  C   UNL     1       7.494   5.027  13.279  0.00  0.00    +0.000 C 
ATOM     33  O   UNL     1       7.756   5.395  14.633  0.00  0.00    +0.000 OA
ENDBRANCH  26  33
ENDBRANCH  23  29
ENDBRANCH   1  23
TORSDOF 5
ENDMDL
MODEL 8
REMARK VINA RESULT:      -7.2      1.302      1.865
REMARK  Name = 
REMARK  6 active torsions:
REMARK  status: ('A' for Active; 'I' for Inactive)
REMARK    1  A    between atoms: C_1  and  O_2
REMARK    2  A    between atoms: O_2  and  C_3
REMARK    3  A    between atoms: C_6  and  S_7
REMARK    4  A    between atoms: S_7  and  C_10
REMARK    5  A    between atoms: N_20  and  C_21
REMARK    6  A    between atoms: C_24  and  C_25
REMARK                            x       y       z     vdW  Elec       q    Type
REMARK                         _______ _______ _______ _____ _____    ______ ____
ROOT
ATOM      1  C   UNL     1      -0.542  13.452  22.241  0.00  0.00    +0.000 C 
ATOM      2  C   UNL     1       0.721  13.045  21.418  0.00  0.00    +0.000 C 
ATOM      3  C   UNL     1       0.658  11.640  20.739  0.00  0.00    +0.000 C 
ATOM      4  C   UNL     1      -0.568  11.511  19.830  0.00  0.00    +0.000 C 
ATOM      5  C   UNL     1      -1.704  11.057  20.790  0.00  0.00    +0.000 C 
ATOM      6  C   UNL     1      -1.001  10.904  22.147  0.00  0.00    +0.000 C 
ATOM      7  C   UNL     1      -1.060  12.213  22.972  0.00  0.00    +0.000 C 
ATOM      8  N   UNL     1       0.368  10.594  21.723  0.00  0.00    +0.000 N 
ATOM      9  C   UNL     1       0.529   9.230  21.316  0.00  0.00    +0.000 C 
ATOM     10  O   UNL     1      -0.372   8.400  21.440  0.00  0.00    +0.000 OA
ATOM     11  N   UNL     1       1.756   8.923  20.752  0.00  0.00    +0.000 N 
ATOM     12  H   UNL     1       2.533   9.253  21.305  0.00  0.00    +0.000 HD
ENDROOT
BRANCH  11  13
ATOM     13  C   UNL     1       1.951   7.715  20.019  0.00  0.00    +0.000 A 
ATOM     14  C   UNL     1       2.273   7.738  18.654  0.00  0.00    +0.000 A 
ATOM     15  C   UNL     1       2.544   6.550  17.956  0.00  0.00    +0.000 A 
ATOM     16  C   UNL     1       2.461   5.308  18.600  0.00  0.00    +0.000 A 
ATOM     17  C   UNL     1       2.094   5.287  19.955  0.00  0.00    +0.000 A 
ATOM     18  C   UNL     1       1.873   6.480  20.666  0.00  0.00    +0.000 A 
BRANCH  16  19
ATOM     19  C   UNL     1       2.778   4.018  17.874  0.00  0.00    +0.000 C 
ATOM     20  F   UNL     1       3.244   3.029  18.687  0.00  0.00    +0.000 F 
ATOM     21  F   UNL     1       1.684   3.493  17.251  0.00  0.00    +0.000 F 
ATOM     22  F   UNL     1       3.717   4.173  16.900  0.00  0.00    +0.000 F 
ENDBRANCH  16  19
ENDBRANCH  11  13
BRANCH   1  23
ATOM     23  S   UNL     1      -1.701  14.504  21.310  0.00  0.00    +0.000 S 
ATOM     24  O   UNL     1      -1.422  14.508  19.889  0.00  0.00    +0.000 OA
ATOM     25  O   UNL     1      -1.702  15.780  21.998  0.00  0.00    +0.000 OA
BRANCH  23  29
ATOM     26  C   UNL     1      -5.877  12.539  21.585  0.00  0.00    +0.000 A 
ATOM     27  C   UNL     1      -5.229  12.677  20.359  0.00  0.00    +0.000 A 
ATOM     28  C   UNL     1      -4.001  13.356  20.275  0.00  0.00    +0.000 A 
ATOM     29  C   UNL     1      -3.404  13.913  21.415  0.00  0.00    +0.000 A 
ATOM     30  C   UNL     1      -4.007  13.684  22.661  0.00  0.00    +0.000 A 
ATOM     31  C   UNL     1      -5.242  13.012  22.738  0.00  0.00    +0.000 A 
BRANCH  26  33
ATOM     32  C   UNL     1      -7.528  11.045  20.750  0.00  0.00    +0.000 C 
ATOM     33  O   UNL     1      -7.086  11.923  21.785  0.00  0.00    +0.000 OA
ENDBRANCH  26  33
ENDBRANCH  23  29
ENDBRANCH   1  23
TORSDOF 5
ENDMDL
MODEL 9
REMARK VINA RESULT:      -7.0      3.170      5.576
REMARK  Name = 
REMARK  6 active torsions:
REMARK  status: ('A' for Active; 'I' for Inactive)
REMARK    1  A    between atoms: C_1  and  O_2
REMARK    2  A    between atoms: O_2  and  C_3
REMARK    3  A    between atoms: C_6  and  S_7
REMARK    4  A    between atoms: S_7  and  C_10
REMARK    5  A    between atoms: N_20  and  C_21
REMARK    6  A    between atoms: C_24  and  C_25
REMARK                            x       y       z     vdW  Elec       q    Type
REMARK                         _______ _______ _______ _____ _____    ______ ____
ROOT
ATOM      1  C   UNL     1      -0.498  14.765  20.882  0.00  0.00    +0.000 C 
ATOM      2  C   UNL     1       0.708  13.913  21.390  0.00  0.00    +0.000 C 
ATOM      3  C   UNL     1       1.037  12.640  20.545  0.00  0.00    +0.000 C 
ATOM      4  C   UNL     1       1.285  12.993  19.075  0.00  0.00    +0.000 C 
ATOM      5  C   UNL     1      -0.136  13.000  18.443  0.00  0.00    +0.000 C 
ATOM      6  C   UNL     1      -1.057  12.584  19.600  0.00  0.00    +0.000 C 
ATOM      7  C   UNL     1      -1.585  13.813  20.381  0.00  0.00    +0.000 C 
ATOM      8  N   UNL     1      -0.141  11.779  20.414  0.00  0.00    +0.000 N 
ATOM      9  C   UNL     1       0.052  10.458  19.893  0.00  0.00    +0.000 C 
ATOM     10  O   UNL     1      -0.593  10.033  18.935  0.00  0.00    +0.000 OA
ATOM     11  N   UNL     1       1.030   9.710  20.527  0.00  0.00    +0.000 N 
ATOM     12  H   UNL     1       0.936   9.717  21.532  0.00  0.00    +0.000 HD
ENDROOT
BRANCH  11  13
ATOM     13  C   UNL     1       1.553   8.523  19.934  0.00  0.00    +0.000 A 
ATOM     14  C   UNL     1       1.607   7.318  20.650  0.00  0.00    +0.000 A 
ATOM     15  C   UNL     1       2.046   6.133  20.037  0.00  0.00    +0.000 A 
ATOM     16  C   UNL     1       2.479   6.136  18.704  0.00  0.00    +0.000 A 
ATOM     17  C   UNL     1       2.465   7.354  18.005  0.00  0.00    +0.000 A 
ATOM     18  C   UNL     1       1.977   8.529  18.604  0.00  0.00    +0.000 A 
BRANCH  16  19
ATOM     19  C   UNL     1       2.928   4.865  18.015  0.00  0.00    +0.000 C 
ATOM     20  F   UNL     1       3.610   4.010  18.828  0.00  0.00    +0.000 F 
ATOM     21  F   UNL     1       1.880   4.144  17.524  0.00  0.00    +0.000 F 
ATOM     22  F   UNL     1       3.745   5.098  16.951  0.00  0.00    +0.000 F 
ENDBRANCH  16  19
ENDBRANCH  11  13
BRANCH   1  23
ATOM     23  S   UNL     1       0.003  16.184  19.856  0.00  0.00    +0.000 S 
ATOM     24  O   UNL     1      -0.283  17.453  20.495  0.00  0.00    +0.000 OA
ATOM     25  O   UNL     1      -0.579  15.943  18.551  0.00  0.00    +0.000 OA
BRANCH  23  29
ATOM     26  C   UNL     1       4.511  16.785  19.022  0.00  0.00    +0.000 A 
ATOM     27  C   UNL     1       3.616  16.537  17.983  0.00  0.00    +0.000 A 
ATOM     28  C   UNL     1       2.264  16.267  18.256  0.00  0.00    +0.000 A 
ATOM     29  C   UNL     1       1.786  16.235  19.573  0.00  0.00    +0.000 A 
ATOM     30  C   UNL     1       2.666  16.585  20.610  0.00  0.00    +0.000 A 
ATOM     31  C   UNL     1       4.021  16.845  20.331  0.00  0.00    +0.000 A 
BRANCH  26  33
ATOM     32  C   UNL     1       6.713  15.895  18.894  0.00  0.00    +0.000 C 
ATOM     33  O   UNL     1       5.852  17.034  18.880  0.00  0.00    +0.000 OA
ENDBRANCH  26  33
ENDBRANCH  23  29
ENDBRANCH   1  23
TORSDOF 5
ENDMDL
