MODEL 1
REMARK VINA RESULT:      -7.4      0.000      0.000
REMARK  Name = 
REMARK  4 active torsions:
REMARK  status: ('A' for Active; 'I' for Inactive)
REMARK    1  A    between atoms: C_1  and  O_2
REMARK    2  A    between atoms: O_2  and  C_3
REMARK    3  A    between atoms: C_8  and  N_9
REMARK    4  A    between atoms: C_15  and  C_16
REMARK                            x       y       z     vdW  Elec       q    Type
REMARK                         _______ _______ _______ _____ _____    ______ ____
ROOT
ATOM      1  N   UNL     1       0.417  10.557  18.200  0.00  0.00    +0.000 NA
ATOM      2  C   UNL     1       1.031   9.551  18.722  0.00  0.00    +0.000 C 
ATOM      3  N   UNL     1       0.885   9.030  19.972  0.00  0.00    +0.000 N 
ATOM      4  C   UNL     1       1.580   7.904  20.294  0.00  0.00    +0.000 C 
ATOM      5  O   UNL     1       1.507   7.315  21.363  0.00  0.00    +0.000 OA
ATOM      6  C   UNL     1       2.405   7.489  19.134  0.00  0.00    +0.000 C 
ATOM      7  C   UNL     1       3.114   6.353  19.158  0.00  0.00    +0.000 C 
ATOM      8  S   UNL     1       2.222   8.620  17.840  0.00  0.00    +0.000 S 
ATOM      9  H   UNL     1       0.212   9.431  20.614  0.00  0.00    +0.000 HD
ENDROOT
BRANCH   1  15
ATOM     10  C   UNL     1      -3.974  13.339  21.395  0.00  0.00    +0.000 A 
ATOM     11  C   UNL     1      -2.906  13.345  22.289  0.00  0.00    +0.000 A 
ATOM     12  C   UNL     1      -1.680  12.779  21.931  0.00  0.00    +0.000 A 
ATOM     13  C   UNL     1      -1.526  12.199  20.659  0.00  0.00    +0.000 A 
ATOM     14  N   UNL     1      -0.362  11.639  20.182  0.00  0.00    +0.000 NA
ATOM     15  C   UNL     1      -0.527  11.173  18.962  0.00  0.00    +0.000 A 
ATOM     16  S   UNL     1      -2.121  11.381  18.333  0.00  0.00    +0.000 S 
ATOM     17  C   UNL     1      -2.609  12.170  19.786  0.00  0.00    +0.000 A 
ATOM     18  C   UNL     1      -3.850  12.726  20.139  0.00  0.00    +0.000 A 
BRANCH  10  20
ATOM     19  C   UNL     1      -6.121  13.008  22.327  0.00  0.00    +0.000 C 
ATOM     20  O   UNL     1      -5.206  13.876  21.661  0.00  0.00    +0.000 OA
ENDBRANCH  10  20
ENDBRANCH   1  15
BRANCH   7  21
ATOM     21  C   UNL     1       3.880   5.836  18.028  0.00  0.00    +0.000 A 
ATOM     22  C   UNL     1       4.807   6.648  17.367  0.00  0.00    +0.000 A 
ATOM     23  C   UNL     1       5.504   6.155  16.261  0.00  0.00    +0.000 A 
ATOM     24  C   UNL     1       5.273   4.852  15.821  0.00  0.00    +0.000 A 
ATOM     25 CL   UNL     1       6.115   4.254  14.445  0.00  0.00    +0.000 Cl
ATOM     26  C   UNL     1       4.360   4.033  16.481  0.00  0.00    +0.000 A 
ATOM     27  C   UNL     1       3.663   4.526  17.587  0.00  0.00    +0.000 A 
ENDBRANCH   7  21
TORSDOF 3
ENDMDL
MODEL 2
REMARK VINA RESULT:      -7.3      0.334      1.006
REMARK  Name = 
REMARK  4 active torsions:
REMARK  status: ('A' for Active; 'I' for Inactive)
REMARK    1  A    between atoms: C_1  and  O_2
REMARK    2  A    between atoms: O_2  and  C_3
REMARK    3  A    between atoms: C_8  and  N_9
REMARK    4  A    between atoms: C_15  and  C_16
REMARK                            x       y       z     vdW  Elec       q    Type
REMARK                         _______ _______ _______ _____ _____    ______ ____
ROOT
ATOM      1  N   UNL     1       0.125  10.637  18.196  0.00  0.00    +0.000 NA
ATOM      2  C   UNL     1       0.794   9.685  18.749  0.00  0.00    +0.000 C 
ATOM      3  N   UNL     1       0.749   9.263  20.043  0.00  0.00    +0.000 N 
ATOM      4  C   UNL     1       1.487   8.175  20.401  0.00  0.00    +0.000 C 
ATOM      5  O   UNL     1       1.503   7.672  21.515  0.00  0.00    +0.000 OA
ATOM      6  C   UNL     1       2.234   7.680  19.219  0.00  0.00    +0.000 C 
ATOM      7  C   UNL     1       2.965   6.560  19.280  0.00  0.00    +0.000 C 
ATOM      8  S   UNL     1       1.937   8.702  17.858  0.00  0.00    +0.000 S 
ATOM      9  H   UNL     1       0.117   9.704  20.700  0.00  0.00    +0.000 HD
ENDROOT
BRANCH   1  15
ATOM     10  C   UNL     1      -4.078  13.603  21.477  0.00  0.00    +0.000 A 
ATOM     11  C   UNL     1      -2.947  13.703  22.283  0.00  0.00    +0.000 A 
ATOM     12  C   UNL     1      -1.738  13.131  21.879  0.00  0.00    +0.000 A 
ATOM     13  C   UNL     1      -1.666  12.448  20.653  0.00  0.00    +0.000 A 
ATOM     14  N   UNL     1      -0.528  11.870  20.135  0.00  0.00    +0.000 NA
ATOM     15  C   UNL     1      -0.773  11.299  18.975  0.00  0.00    +0.000 A 
ATOM     16  S   UNL     1      -2.415  11.424  18.455  0.00  0.00    +0.000 S 
ATOM     17  C   UNL     1      -2.810  12.325  19.871  0.00  0.00    +0.000 A 
ATOM     18  C   UNL     1      -4.034  12.887  20.271  0.00  0.00    +0.000 A 
BRANCH  10  20
ATOM     19  C   UNL     1      -6.410  13.256  21.647  0.00  0.00    +0.000 C 
ATOM     20  O   UNL     1      -5.300  14.139  21.791  0.00  0.00    +0.000 OA
ENDBRANCH  10  20
ENDBRANCH   1  15
BRANCH   7  21
ATOM     21  C   UNL     1       3.657   5.964  18.141  0.00  0.00    +0.000 A 
ATOM     22  C   UNL     1       3.427   4.631  17.788  0.00  0.00    +0.000 A 
ATOM     23  C   UNL     1       4.126   4.060  16.721  0.00  0.00    +0.000 A 
ATOM     24  C   UNL     1       5.051   4.825  16.010  0.00  0.00    +0.000 A 
ATOM     25 CL   UNL     1       5.927   4.114  14.711  0.00  0.00    +0.000 Cl
ATOM     26  C   UNL     1       5.276   6.157  16.348  0.00  0.00    +0.000 A 
ATOM     27  C   UNL     1       4.577   6.728  17.415  0.00  0.00    +0.000 A 
ENDBRANCH   7  21
TORSDOF 3
ENDMDL
MODEL 3
REMARK VINA RESULT:      -7.3      0.849      1.282
REMARK  Name = 
REMARK  4 active torsions:
REMARK  status: ('A' for Active; 'I' for Inactive)
REMARK    1  A    between atoms: C_1  and  O_2
REMARK    2  A    between atoms: O_2  and  C_3
REMARK    3  A    between atoms: C_8  and  N_9
REMARK    4  A    between atoms: C_15  and  C_16
REMARK                            x       y       z     vdW  Elec       q    Type
REMARK                         _______ _______ _______ _____ _____    ______ ____
ROOT
ATOM      1  N   UNL     1       0.885  10.371  18.552  0.00  0.00    +0.000 NA
ATOM      2  C   UNL     1       1.425   9.249  18.886  0.00  0.00    +0.000 C 
ATOM      3  N   UNL     1       1.214   8.515  20.013  0.00  0.00    +0.000 N 
ATOM      4  C   UNL     1       1.833   7.307  20.131  0.00  0.00    +0.000 C 
ATOM      5  O   UNL     1       1.695   6.535  21.069  0.00  0.00    +0.000 OA
ATOM      6  C   UNL     1       2.664   7.064  18.927  0.00  0.00    +0.000 C 
ATOM      7  C   UNL     1       3.304   5.901  18.750  0.00  0.00    +0.000 C 
ATOM      8  S   UNL     1       2.584   8.425  17.865  0.00  0.00    +0.000 S 
ATOM      9  H   UNL     1       0.548   8.830  20.708  0.00  0.00    +0.000 HD
ENDROOT
BRANCH   1  15
ATOM     10  C   UNL     1      -3.393  12.829  22.140  0.00  0.00    +0.000 A 
ATOM     11  C   UNL     1      -2.475  12.337  23.065  0.00  0.00    +0.000 A 
ATOM     12  C   UNL     1      -1.320  11.679  22.635  0.00  0.00    +0.000 A 
ATOM     13  C   UNL     1      -1.087  11.510  21.259  0.00  0.00    +0.000 A 
ATOM     14  N   UNL     1       0.025  10.907  20.714  0.00  0.00    +0.000 NA
ATOM     15  C   UNL     1      -0.042  10.892  19.400  0.00  0.00    +0.000 A 
ATOM     16  S   UNL     1      -1.476  11.604  18.754  0.00  0.00    +0.000 S 
ATOM     17  C   UNL     1      -2.026  11.976  20.344  0.00  0.00    +0.000 A 
ATOM     18  C   UNL     1      -3.196  12.631  20.765  0.00  0.00    +0.000 A 
BRANCH  10  20
ATOM     19  C   UNL     1      -5.076  13.185  23.761  0.00  0.00    +0.000 C 
ATOM     20  O   UNL     1      -4.545  13.492  22.474  0.00  0.00    +0.000 OA
ENDBRANCH  10  20
ENDBRANCH   1  15
BRANCH   7  21
ATOM     21  C   UNL     1       4.070   5.556  17.555  0.00  0.00    +0.000 A 
ATOM     22  C   UNL     1       4.091   4.241  17.081  0.00  0.00    +0.000 A 
ATOM     23  C   UNL     1       4.861   3.914  15.961  0.00  0.00    +0.000 A 
ATOM     24  C   UNL     1       5.604   4.904  15.319  0.00  0.00    +0.000 A 
ATOM     25 CL   UNL     1       6.569   4.496  13.954  0.00  0.00    +0.000 Cl
ATOM     26  C   UNL     1       5.579   6.219  15.778  0.00  0.00    +0.000 A 
ATOM     27  C   UNL     1       4.809   6.546  16.898  0.00  0.00    +0.000 A 
ENDBRANCH   7  21
TORSDOF 3
ENDMDL
MODEL 4
REMARK VINA RESULT:      -7.1      2.176      3.064
REMARK  Name = 
REMARK  4 active torsions:
REMARK  status: ('A' for Active; 'I' for Inactive)
REMARK    1  A    between atoms: C_1  and  O_2
REMARK    2  A    between atoms: O_2  and  C_3
REMARK    3  A    between atoms: C_8  and  N_9
REMARK    4  A    between atoms: C_15  and  C_16
REMARK                            x       y       z     vdW  Elec       q    Type
REMARK                         _______ _______ _______ _____ _____    ______ ____
ROOT
ATOM      1  N   UNL     1       2.274   9.093  18.141  0.00  0.00    +0.000 NA
ATOM      2  C   UNL     1       2.873   7.959  18.272  0.00  0.00    +0.000 C 
ATOM      3  N   UNL     1       2.832   7.101  19.328  0.00  0.00    +0.000 N 
ATOM      4  C   UNL     1       3.481   5.907  19.225  0.00  0.00    +0.000 C 
ATOM      5  O   UNL     1       3.487   5.035  20.080  0.00  0.00    +0.000 OA
ATOM      6  C   UNL     1       4.142   5.823  17.899  0.00  0.00    +0.000 C 
ATOM      7  C   UNL     1       4.771   4.708  17.509  0.00  0.00    +0.000 C 
ATOM      8  S   UNL     1       3.893   7.288  17.017  0.00  0.00    +0.000 S 
ATOM      9  H   UNL     1       2.263   7.317  20.137  0.00  0.00    +0.000 HD
ENDROOT
BRANCH   1  15
ATOM     10  C   UNL     1      -1.407  11.103  22.572  0.00  0.00    +0.000 A 
ATOM     11  C   UNL     1      -0.807   9.994  23.164  0.00  0.00    +0.000 A 
ATOM     12  C   UNL     1       0.124   9.231  22.455  0.00  0.00    +0.000 A 
ATOM     13  C   UNL     1       0.454   9.585  21.135  0.00  0.00    +0.000 A 
ATOM     14  N   UNL     1       1.375   8.930  20.348  0.00  0.00    +0.000 NA
ATOM     15  C   UNL     1       1.464   9.489  19.160  0.00  0.00    +0.000 A 
ATOM     16  S   UNL     1       0.414  10.841  18.931  0.00  0.00    +0.000 S 
ATOM     17  C   UNL     1      -0.175  10.675  20.542  0.00  0.00    +0.000 A 
ATOM     18  C   UNL     1      -1.121  11.444  21.242  0.00  0.00    +0.000 A 
BRANCH  10  20
ATOM     19  C   UNL     1      -1.947  13.280  23.320  0.00  0.00    +0.000 C 
ATOM     20  O   UNL     1      -2.323  11.909  23.196  0.00  0.00    +0.000 OA
ENDBRANCH  10  20
ENDBRANCH   1  15
BRANCH   7  21
ATOM     21  C   UNL     1       5.370   4.519  16.191  0.00  0.00    +0.000 A 
ATOM     22  C   UNL     1       6.695   4.896  15.953  0.00  0.00    +0.000 A 
ATOM     23  C   UNL     1       7.245   4.749  14.676  0.00  0.00    +0.000 A 
ATOM     24  C   UNL     1       6.469   4.223  13.644  0.00  0.00    +0.000 A 
ATOM     25 CL   UNL     1       7.140   4.063  12.068  0.00  0.00    +0.000 Cl
ATOM     26  C   UNL     1       5.152   3.833  13.876  0.00  0.00    +0.000 A 
ATOM     27  C   UNL     1       4.602   3.980  15.153  0.00  0.00    +0.000 A 
ENDBRANCH   7  21
TORSDOF 3
ENDMDL
MODEL 5
REMARK VINA RESULT:      -7.0      2.176      3.242
REMARK  Name = 
REMARK  4 active torsions:
REMARK  status: ('A' for Active; 'I' for Inactive)
REMARK    1  A    between atoms: C_1  and  O_2
REMARK    2  A    between atoms: O_2  and  C_3
REMARK    3  A    between atoms: C_8  and  N_9
REMARK    4  A    between atoms: C_15  and  C_16
REMARK                            x       y       z     vdW  Elec       q    Type
REMARK                         _______ _______ _______ _____ _____    ______ ____
ROOT
ATOM      1  N   UNL     1       2.254   9.079  18.001  0.00  0.00    +0.000 NA
ATOM      2  C   UNL     1       2.916   7.979  18.124  0.00  0.00    +0.000 C 
ATOM      3  N   UNL     1       2.974   7.146  19.199  0.00  0.00    +0.000 N 
ATOM      4  C   UNL     1       3.677   5.984  19.087  0.00  0.00    +0.000 C 
ATOM      5  O   UNL     1       3.772   5.133  19.959  0.00  0.00    +0.000 OA
ATOM      6  C   UNL     1       4.271   5.900  17.730  0.00  0.00    +0.000 C 
ATOM      7  C   UNL     1       4.934   4.808  17.330  0.00  0.00    +0.000 C 
ATOM      8  S   UNL     1       3.902   7.330  16.831  0.00  0.00    +0.000 S 
ATOM      9  H   UNL     1       2.438   7.353  20.033  0.00  0.00    +0.000 HD
ENDROOT
BRANCH   1  15
ATOM     10  C   UNL     1      -1.245  11.031  22.601  0.00  0.00    +0.000 A 
ATOM     11  C   UNL     1      -0.751   9.825  23.094  0.00  0.00    +0.000 A 
ATOM     12  C   UNL     1       0.110   9.044  22.319  0.00  0.00    +0.000 A 
ATOM     13  C   UNL     1       0.475   9.478  21.033  0.00  0.00    +0.000 A 
ATOM     14  N   UNL     1       1.337   8.811  20.190  0.00  0.00    +0.000 NA
ATOM     15  C   UNL     1       1.480   9.459  19.053  0.00  0.00    +0.000 A 
ATOM     16  S   UNL     1       0.559  10.915  18.944  0.00  0.00    +0.000 S 
ATOM     17  C   UNL     1      -0.050  10.667  20.537  0.00  0.00    +0.000 A 
ATOM     18  C   UNL     1      -0.924  11.456  21.304  0.00  0.00    +0.000 A 
BRANCH  10  20
ATOM     19  C   UNL     1      -3.073  12.527  22.509  0.00  0.00    +0.000 C 
ATOM     20  O   UNL     1      -2.086  11.861  23.295  0.00  0.00    +0.000 OA
ENDBRANCH  10  20
ENDBRANCH   1  15
BRANCH   7  21
ATOM     21  C   UNL     1       5.472   4.617  15.986  0.00  0.00    +0.000 A 
ATOM     22  C   UNL     1       4.701   4.005  14.993  0.00  0.00    +0.000 A 
ATOM     23  C   UNL     1       5.241   3.791  13.722  0.00  0.00    +0.000 A 
ATOM     24  C   UNL     1       6.549   4.190  13.449  0.00  0.00    +0.000 A 
ATOM     25 CL   UNL     1       7.220   3.905  11.890  0.00  0.00    +0.000 Cl
ATOM     26  C   UNL     1       7.319   4.812  14.429  0.00  0.00    +0.000 A 
ATOM     27  C   UNL     1       6.779   5.026  15.700  0.00  0.00    +0.000 A 
ENDBRANCH   7  21
TORSDOF 3
ENDMDL
MODEL 6
REMARK VINA RESULT:      -7.0      4.170     10.176
REMARK  Name = 
REMARK  4 active torsions:
REMARK  status: ('A' for Active; 'I' for Inactive)
REMARK    1  A    between atoms: C_1  and  O_2
REMARK    2  A    between atoms: O_2  and  C_3
REMARK    3  A    between atoms: C_8  and  N_9
REMARK    4  A    between atoms: C_15  and  C_16
REMARK                            x       y       z     vdW  Elec       q    Type
REMARK                         _______ _______ _______ _____ _____    ______ ____
ROOT
ATOM      1  N   UNL     1       1.680   7.340  20.201  0.00  0.00    +0.000 NA
ATOM      2  C   UNL     1       1.354   8.576  20.032  0.00  0.00    +0.000 C 
ATOM      3  N   UNL     1       1.747   9.424  19.042  0.00  0.00    +0.000 N 
ATOM      4  C   UNL     1       1.214  10.677  19.007  0.00  0.00    +0.000 C 
ATOM      5  O   UNL     1       1.450  11.517  18.151  0.00  0.00    +0.000 OA
ATOM      6  C   UNL     1       0.279  10.843  20.145  0.00  0.00    +0.000 C 
ATOM      7  C   UNL     1      -0.451  11.957  20.286  0.00  0.00    +0.000 C 
ATOM      8  S   UNL     1       0.266   9.414  21.117  0.00  0.00    +0.000 S 
ATOM      9  H   UNL     1       2.360   9.096  18.305  0.00  0.00    +0.000 HD
ENDROOT
BRANCH   1  15
ATOM     10  C   UNL     1       5.290   4.579  16.131  0.00  0.00    +0.000 A 
ATOM     11  C   UNL     1       5.478   5.926  15.830  0.00  0.00    +0.000 A 
ATOM     12  C   UNL     1       4.804   6.913  16.553  0.00  0.00    +0.000 A 
ATOM     13  C   UNL     1       3.929   6.542  17.588  0.00  0.00    +0.000 A 
ATOM     14  N   UNL     1       3.234   7.422  18.388  0.00  0.00    +0.000 NA
ATOM     15  C   UNL     1       2.492   6.778  19.264  0.00  0.00    +0.000 A 
ATOM     16  S   UNL     1       2.591   5.058  19.152  0.00  0.00    +0.000 S 
ATOM     17  C   UNL     1       3.723   5.193  17.859  0.00  0.00    +0.000 A 
ATOM     18  C   UNL     1       4.388   4.191  17.132  0.00  0.00    +0.000 A 
BRANCH  10  20
ATOM     19  C   UNL     1       6.264   3.806  14.120  0.00  0.00    +0.000 C 
ATOM     20  O   UNL     1       5.915   3.548  15.478  0.00  0.00    +0.000 OA
ENDBRANCH  10  20
ENDBRANCH   1  15
BRANCH   7  21
ATOM     21  C   UNL     1      -1.453  12.160  21.329  0.00  0.00    +0.000 A 
ATOM     22  C   UNL     1      -1.109  12.027  22.678  0.00  0.00    +0.000 A 
ATOM     23  C   UNL     1      -2.086  12.182  23.666  0.00  0.00    +0.000 A 
ATOM     24  C   UNL     1      -3.401  12.471  23.301  0.00  0.00    +0.000 A 
ATOM     25 CL   UNL     1      -4.606  12.640  24.517  0.00  0.00    +0.000 Cl
ATOM     26  C   UNL     1      -3.748  12.617  21.960  0.00  0.00    +0.000 A 
ATOM     27  C   UNL     1      -2.771  12.462  20.972  0.00  0.00    +0.000 A 
ENDBRANCH   7  21
TORSDOF 3
ENDMDL
MODEL 7
REMARK VINA RESULT:      -7.0      1.080      1.666
REMARK  Name = 
REMARK  4 active torsions:
REMARK  status: ('A' for Active; 'I' for Inactive)
REMARK    1  A    between atoms: C_1  and  O_2
REMARK    2  A    between atoms: O_2  and  C_3
REMARK    3  A    between atoms: C_8  and  N_9
REMARK    4  A    between atoms: C_15  and  C_16
REMARK                            x       y       z     vdW  Elec       q    Type
REMARK                         _______ _______ _______ _____ _____    ______ ____
ROOT
ATOM      1  N   UNL     1       0.557  10.878  18.201  0.00  0.00    +0.000 NA
ATOM      2  C   UNL     1       1.062   9.820  18.737  0.00  0.00    +0.000 C 
ATOM      3  N   UNL     1       0.838   9.317  19.983  0.00  0.00    +0.000 N 
ATOM      4  C   UNL     1       1.416   8.131  20.322  0.00  0.00    +0.000 C 
ATOM      5  O   UNL     1       1.263   7.554  21.388  0.00  0.00    +0.000 OA
ATOM      6  C   UNL     1       2.227   7.638  19.181  0.00  0.00    +0.000 C 
ATOM      7  C   UNL     1       2.825   6.441  19.222  0.00  0.00    +0.000 C 
ATOM      8  S   UNL     1       2.182   8.780  17.884  0.00  0.00    +0.000 S 
ATOM      9  H   UNL     1       0.190   9.779  20.609  0.00  0.00    +0.000 HD
ENDROOT
BRANCH   1  15
ATOM     10  C   UNL     1      -3.269  14.140  21.656  0.00  0.00    +0.000 A 
ATOM     11  C   UNL     1      -4.132  13.265  21.001  0.00  0.00    +0.000 A 
ATOM     12  C   UNL     1      -3.635  12.330  20.090  0.00  0.00    +0.000 A 
ATOM     13  C   UNL     1      -2.254  12.277  19.832  0.00  0.00    +0.000 A 
ATOM     14  N   UNL     1      -1.644  11.382  18.980  0.00  0.00    +0.000 NA
ATOM     15  C   UNL     1      -0.343  11.580  18.940  0.00  0.00    +0.000 A 
ATOM     16  S   UNL     1       0.208  12.881  19.933  0.00  0.00    +0.000 S 
ATOM     17  C   UNL     1      -1.404  13.177  20.466  0.00  0.00    +0.000 A 
ATOM     18  C   UNL     1      -1.895  14.128  21.377  0.00  0.00    +0.000 A 
BRANCH  10  20
ATOM     19  C   UNL     1      -4.797  14.720  23.364  0.00  0.00    +0.000 C 
ATOM     20  O   UNL     1      -3.670  15.081  22.568  0.00  0.00    +0.000 OA
ENDBRANCH  10  20
ENDBRANCH   1  15
BRANCH   7  21
ATOM     21  C   UNL     1       3.566   5.853  18.110  0.00  0.00    +0.000 A 
ATOM     22  C   UNL     1       3.311   4.539  17.703  0.00  0.00    +0.000 A 
ATOM     23  C   UNL     1       4.055   3.973  16.665  0.00  0.00    +0.000 A 
ATOM     24  C   UNL     1       5.050   4.721  16.037  0.00  0.00    +0.000 A 
ATOM     25 CL   UNL     1       5.981   4.014  14.774  0.00  0.00    +0.000 Cl
ATOM     26  C   UNL     1       5.302   6.034  16.429  0.00  0.00    +0.000 A 
ATOM     27  C   UNL     1       4.558   6.601  17.467  0.00  0.00    +0.000 A 
ENDBRANCH   7  21
TORSDOF 3
ENDMDL
MODEL 8
REMARK VINA RESULT:      -7.0      2.876      3.332
REMARK  Name = 
REMARK  4 active torsions:
REMARK  status: ('A' for Active; 'I' for Inactive)
REMARK    1  A    between atoms: C_1  and  O_2
REMARK    2  A    between atoms: O_2  and  C_3
REMARK    3  A    between atoms: C_8  and  N_9
REMARK    4  A    between atoms: C_15  and  C_16
REMARK                            x       y       z     vdW  Elec       q    Type
REMARK                         _______ _______ _______ _____ _____    ______ ____
ROOT
ATOM      1  N   UNL     1       0.426   9.853  21.899  0.00  0.00    +0.000 NA
ATOM      2  C   UNL     1       0.879   9.433  20.767  0.00  0.00    +0.000 C 
ATOM      3  N   UNL     1       1.032  10.132  19.609  0.00  0.00    +0.000 N 
ATOM      4  C   UNL     1       1.611   9.511  18.544  0.00  0.00    +0.000 C 
ATOM      5  O   UNL     1       1.843  10.036  17.465  0.00  0.00    +0.000 OA
ATOM      6  C   UNL     1       1.947   8.114  18.915  0.00  0.00    +0.000 C 
ATOM      7  C   UNL     1       2.613   7.314  18.073  0.00  0.00    +0.000 C 
ATOM      8  S   UNL     1       1.422   7.786  20.529  0.00  0.00    +0.000 S 
ATOM      9  H   UNL     1       0.793  11.115  19.573  0.00  0.00    +0.000 HD
ENDROOT
BRANCH   1  15
ATOM     10  C   UNL     1      -1.369  15.667  22.342  0.00  0.00    +0.000 A 
ATOM     11  C   UNL     1      -0.122  15.786  21.731  0.00  0.00    +0.000 A 
ATOM     12  C   UNL     1       0.640  14.650  21.452  0.00  0.00    +0.000 A 
ATOM     13  C   UNL     1       0.145  13.379  21.793  0.00  0.00    +0.000 A 
ATOM     14  N   UNL     1       0.789  12.187  21.543  0.00  0.00    +0.000 NA
ATOM     15  C   UNL     1       0.083  11.167  21.982  0.00  0.00    +0.000 A 
ATOM     16  S   UNL     1      -1.405  11.607  22.739  0.00  0.00    +0.000 S 
ATOM     17  C   UNL     1      -1.086  13.273  22.432  0.00  0.00    +0.000 A 
ATOM     18  C   UNL     1      -1.857  14.410  22.727  0.00  0.00    +0.000 A 
BRANCH  10  20
ATOM     19  C   UNL     1      -3.541  16.392  22.931  0.00  0.00    +0.000 C 
ATOM     20  O   UNL     1      -2.184  16.727  22.644  0.00  0.00    +0.000 OA
ENDBRANCH  10  20
ENDBRANCH   1  15
BRANCH   7  21
ATOM     21  C   UNL     1       3.052   5.960  18.397  0.00  0.00    +0.000 A 
ATOM     22  C   UNL     1       2.194   4.872  18.211  0.00  0.00    +0.000 A 
ATOM     23  C   UNL     1       2.611   3.586  18.564  0.00  0.00    +0.000 A 
ATOM     24  C   UNL     1       3.885   3.392  19.099  0.00  0.00    +0.000 A 
ATOM     25 CL   UNL     1       4.389   1.811  19.554  0.00  0.00    +0.000 Cl
ATOM     26  C   UNL     1       4.750   4.470  19.276  0.00  0.00    +0.000 A 
ATOM     27  C   UNL     1       4.333   5.756  18.923  0.00  0.00    +0.000 A 
ENDBRANCH   7  21
TORSDOF 3
ENDMDL
MODEL 9
REMARK VINA RESULT:      -6.9      4.297     10.154
REMARK  Name = 
REMARK  4 active torsions:
REMARK  status: ('A' for Active; 'I' for Inactive)
REMARK    1  A    between atoms: C_1  and  O_2
REMARK    2  A    between atoms: O_2  and  C_3
REMARK    3  A    between atoms: C_8  and  N_9
REMARK    4  A    between atoms: C_15  and  C_16
REMARK                            x       y       z     vdW  Elec       q    Type
REMARK                         _______ _______ _______ _____ _____    ______ ____
ROOT
ATOM      1  N   UNL     1       1.430   8.396  21.293  0.00  0.00    +0.000 NA
ATOM      2  C   UNL     1       0.695   9.312  20.761  0.00  0.00    +0.000 C 
ATOM      3  N   UNL     1       0.317   9.440  19.460  0.00  0.00    +0.000 N 
ATOM      4  C   UNL     1      -0.538  10.447  19.124  0.00  0.00    +0.000 C 
ATOM      5  O   UNL     1      -0.984  10.645  18.004  0.00  0.00    +0.000 OA
ATOM      6  C   UNL     1      -0.866  11.235  20.337  0.00  0.00    +0.000 C 
ATOM      7  C   UNL     1      -1.763  12.228  20.296  0.00  0.00    +0.000 C 
ATOM      8  S   UNL     1       0.004  10.620  21.698  0.00  0.00    +0.000 S 
ATOM      9  H   UNL     1       0.605   8.750  18.776  0.00  0.00    +0.000 HD
ENDROOT
BRANCH   1  15
ATOM     10  C   UNL     1       3.320   3.746  17.825  0.00  0.00    +0.000 A 
ATOM     11  C   UNL     1       3.835   4.850  17.149  0.00  0.00    +0.000 A 
ATOM     12  C   UNL     1       3.612   6.142  17.632  0.00  0.00    +0.000 A 
ATOM     13  C   UNL     1       2.861   6.326  18.805  0.00  0.00    +0.000 A 
ATOM     14  N   UNL     1       2.601   7.545  19.393  0.00  0.00    +0.000 NA
ATOM     15  C   UNL     1       1.868   7.400  20.477  0.00  0.00    +0.000 A 
ATOM     16  S   UNL     1       1.444   5.765  20.833  0.00  0.00    +0.000 S 
ATOM     17  C   UNL     1       2.323   5.220  19.455  0.00  0.00    +0.000 A 
ATOM     18  C   UNL     1       2.532   3.916  18.973  0.00  0.00    +0.000 A 
BRANCH  10  20
ATOM     19  C   UNL     1       3.570   1.489  18.481  0.00  0.00    +0.000 C 
ATOM     20  O   UNL     1       3.495   2.446  17.427  0.00  0.00    +0.000 OA
ENDBRANCH  10  20
ENDBRANCH   1  15
BRANCH   7  21
ATOM     21  C   UNL     1      -2.201  12.990  21.462  0.00  0.00    +0.000 A 
ATOM     22  C   UNL     1      -3.285  12.554  22.230  0.00  0.00    +0.000 A 
ATOM     23  C   UNL     1      -3.721  13.314  23.319  0.00  0.00    +0.000 A 
ATOM     24  C   UNL     1      -3.070  14.506  23.637  0.00  0.00    +0.000 A 
ATOM     25 CL   UNL     1      -3.622  15.451  24.964  0.00  0.00    +0.000 Cl
ATOM     26  C   UNL     1      -1.981  14.941  22.884  0.00  0.00    +0.000 A 
ATOM     27  C   UNL     1      -1.546  14.181  21.796  0.00  0.00    +0.000 A 
ENDBRANCH   7  21
TORSDOF 3
ENDMDL
