MODEL 1
REMARK VINA RESULT:      -8.1      0.000      0.000
REMARK  Name = 
REMARK  4 active torsions:
REMARK  status: ('A' for Active; 'I' for Inactive)
REMARK    1  A    between atoms: O_1  and  C_2
REMARK    2  A    between atoms: C_6  and  C_7
REMARK    3  A    between atoms: C_8  and  C_9
REMARK    4  A    between atoms: C_16  and  O_17
REMARK                            x       y       z     vdW  Elec       q    Type
REMARK                         _______ _______ _______ _____ _____    ______ ____
ROOT
ATOM      1  C   UNL     1       8.986   9.742  19.080  0.00  0.00    +0.000 C 
ATOM      2  C   UNL     1       8.489   9.163  17.973  0.00  0.00    +0.000 C 
ENDROOT
BRANCH   2   3
ATOM      3  C   UNL     1       7.852   7.838  17.952  0.00  0.00    +0.000 A 
ATOM      4  C   UNL     1       8.207   6.885  18.894  0.00  0.00    +0.000 A 
ATOM      5  C   UNL     1       7.597   5.637  18.841  0.00  0.00    +0.000 A 
ATOM      6  C   UNL     1       6.650   5.365  17.848  0.00  0.00    +0.000 A 
ATOM      7  C   UNL     1       6.025   4.107  17.775  0.00  0.00    +0.000 A 
ATOM      8  C   UNL     1       5.088   3.838  16.779  0.00  0.00    +0.000 A 
ATOM      9  C   UNL     1       4.772   4.823  15.851  0.00  0.00    +0.000 A 
ATOM     10  C   UNL     1       5.395   6.074  15.930  0.00  0.00    +0.000 A 
ATOM     11  C   UNL     1       6.341   6.382  16.920  0.00  0.00    +0.000 A 
ATOM     12  N   UNL     1       6.939   7.596  16.984  0.00  0.00    +0.000 NA
BRANCH  10  13
ATOM     13  O   UNL     1       5.069   7.033  14.999  0.00  0.00    +0.000 OA
ATOM     14  H   UNL     1       5.532   6.847  14.167  0.00  0.00    +0.000 HD
ENDBRANCH  10  13
ENDBRANCH   2   3
BRANCH   1  19
ATOM     15  C   UNL     1      10.687  13.675  19.236  0.00  0.00    +0.000 A 
ATOM     16  C   UNL     1      10.896  12.873  18.113  0.00  0.00    +0.000 A 
ATOM     17 BR   UNL     1      11.909  13.510  16.640  0.00  0.00    +0.000 Br
ATOM     18  C   UNL     1      10.357  11.585  18.049  0.00  0.00    +0.000 A 
ATOM     19  C   UNL     1       9.610  11.075  19.119  0.00  0.00    +0.000 A 
ATOM     20  C   UNL     1       9.396  11.888  20.241  0.00  0.00    +0.000 A 
ATOM     21  C   UNL     1       9.935  13.179  20.301  0.00  0.00    +0.000 A 
ATOM     22 BR   UNL     1       9.611  14.219  21.855  0.00  0.00    +0.000 Br
BRANCH  15  23
ATOM     23  O   UNL     1      11.201  14.943  19.301  0.00  0.00    +0.000 OA
ATOM     24  H   UNL     1      10.692  15.504  18.690  0.00  0.00    +0.000 HD
ENDBRANCH  15  23
ENDBRANCH   1  19
TORSDOF 4
ENDMDL
MODEL 2
REMARK VINA RESULT:      -7.9      7.831     10.015
REMARK  Name = 
REMARK  4 active torsions:
REMARK  status: ('A' for Active; 'I' for Inactive)
REMARK    1  A    between atoms: O_1  and  C_2
REMARK    2  A    between atoms: C_6  and  C_7
REMARK    3  A    between atoms: C_8  and  C_9
REMARK    4  A    between atoms: C_16  and  O_17
REMARK                            x       y       z     vdW  Elec       q    Type
REMARK                         _______ _______ _______ _____ _____    ______ ____
ROOT
ATOM      1  C   UNL     1       2.186   7.743  18.216  0.00  0.00    +0.000 C 
ATOM      2  C   UNL     1       1.879   8.099  19.474  0.00  0.00    +0.000 C 
ENDROOT
BRANCH   2   3
ATOM      3  C   UNL     1       0.986   9.216  19.820  0.00  0.00    +0.000 A 
ATOM      4  C   UNL     1       0.602  10.121  18.843  0.00  0.00    +0.000 A 
ATOM      5  C   UNL     1      -0.232  11.174  19.202  0.00  0.00    +0.000 A 
ATOM      6  C   UNL     1      -0.662  11.302  20.527  0.00  0.00    +0.000 A 
ATOM      7  C   UNL     1      -1.503  12.363  20.912  0.00  0.00    +0.000 A 
ATOM      8  C   UNL     1      -1.922  12.492  22.234  0.00  0.00    +0.000 A 
ATOM      9  C   UNL     1      -1.503  11.564  23.179  0.00  0.00    +0.000 A 
ATOM     10  C   UNL     1      -0.668  10.509  22.791  0.00  0.00    +0.000 A 
ATOM     11  C   UNL     1      -0.228  10.345  21.469  0.00  0.00    +0.000 A 
ATOM     12  N   UNL     1       0.582   9.321  21.107  0.00  0.00    +0.000 NA
BRANCH  10  13
ATOM     13  O   UNL     1      -0.262   9.603  23.745  0.00  0.00    +0.000 OA
ATOM     14  H   UNL     1      -0.769   8.783  23.648  0.00  0.00    +0.000 HD
ENDBRANCH  10  13
ENDBRANCH   2   3
BRANCH   1  19
ATOM     15  C   UNL     1       4.697   4.396  17.274  0.00  0.00    +0.000 A 
ATOM     16  C   UNL     1       5.219   5.691  17.227  0.00  0.00    +0.000 A 
ATOM     17 BR   UNL     1       7.037   5.988  16.770  0.00  0.00    +0.000 Br
ATOM     18  C   UNL     1       4.413   6.793  17.521  0.00  0.00    +0.000 A 
ATOM     19  C   UNL     1       3.063   6.617  17.856  0.00  0.00    +0.000 A 
ATOM     20  C   UNL     1       2.546   5.314  17.910  0.00  0.00    +0.000 A 
ATOM     21  C   UNL     1       3.358   4.211  17.616  0.00  0.00    +0.000 A 
ATOM     22 BR   UNL     1       2.588   2.478  17.703  0.00  0.00    +0.000 Br
BRANCH  15  23
ATOM     23  O   UNL     1       5.484   3.310  16.999  0.00  0.00    +0.000 OA
ATOM     24  H   UNL     1       5.269   2.613  17.645  0.00  0.00    +0.000 HD
ENDBRANCH  15  23
ENDBRANCH   1  19
TORSDOF 4
ENDMDL
MODEL 3
REMARK VINA RESULT:      -7.9      7.825     10.138
REMARK  Name = 
REMARK  4 active torsions:
REMARK  status: ('A' for Active; 'I' for Inactive)
REMARK    1  A    between atoms: O_1  and  C_2
REMARK    2  A    between atoms: C_6  and  C_7
REMARK    3  A    between atoms: C_8  and  C_9
REMARK    4  A    between atoms: C_16  and  O_17
REMARK                            x       y       z     vdW  Elec       q    Type
REMARK                         _______ _______ _______ _____ _____    ______ ____
ROOT
ATOM      1  C   UNL     1       2.174   7.624  18.301  0.00  0.00    +0.000 C 
ATOM      2  C   UNL     1       1.875   8.022  19.549  0.00  0.00    +0.000 C 
ENDROOT
BRANCH   2   3
ATOM      3  C   UNL     1       1.031   9.184  19.864  0.00  0.00    +0.000 A 
ATOM      4  C   UNL     1       0.727  10.106  18.874  0.00  0.00    +0.000 A 
ATOM      5  C   UNL     1      -0.063  11.201  19.204  0.00  0.00    +0.000 A 
ATOM      6  C   UNL     1      -0.530  11.355  20.514  0.00  0.00    +0.000 A 
ATOM      7  C   UNL     1      -1.327  12.459  20.868  0.00  0.00    +0.000 A 
ATOM      8  C   UNL     1      -1.783  12.612  22.176  0.00  0.00    +0.000 A 
ATOM      9  C   UNL     1      -1.444  11.666  23.136  0.00  0.00    +0.000 A 
ATOM     10  C   UNL     1      -0.652  10.569  22.777  0.00  0.00    +0.000 A 
ATOM     11  C   UNL     1      -0.178  10.380  21.470  0.00  0.00    +0.000 A 
ATOM     12  N   UNL     1       0.590   9.314  21.136  0.00  0.00    +0.000 NA
BRANCH  10  13
ATOM     13  O   UNL     1      -0.326   9.646  23.744  0.00  0.00    +0.000 OA
ATOM     14  H   UNL     1      -0.614   9.972  24.611  0.00  0.00    +0.000 HD
ENDBRANCH  10  13
ENDBRANCH   2   3
BRANCH   1  19
ATOM     15  C   UNL     1       4.629   4.274  17.233  0.00  0.00    +0.000 A 
ATOM     16  C   UNL     1       3.312   4.065  17.646  0.00  0.00    +0.000 A 
ATOM     17 BR   UNL     1       2.584   2.314  17.721  0.00  0.00    +0.000 Br
ATOM     18  C   UNL     1       2.500   5.144  18.007  0.00  0.00    +0.000 A 
ATOM     19  C   UNL     1       3.002   6.452  17.972  0.00  0.00    +0.000 A 
ATOM     20  C   UNL     1       4.324   6.657  17.549  0.00  0.00    +0.000 A 
ATOM     21  C   UNL     1       5.133   5.574  17.186  0.00  0.00    +0.000 A 
ATOM     22 BR   UNL     1       6.913   5.926  16.631  0.00  0.00    +0.000 Br
BRANCH  15  23
ATOM     23  O   UNL     1       5.427   3.223  16.866  0.00  0.00    +0.000 OA
ATOM     24  H   UNL     1       6.030   3.535  16.168  0.00  0.00    +0.000 HD
ENDBRANCH  15  23
ENDBRANCH   1  19
TORSDOF 4
ENDMDL
MODEL 4
REMARK VINA RESULT:      -7.8      1.537      1.791
REMARK  Name = 
REMARK  4 active torsions:
REMARK  status: ('A' for Active; 'I' for Inactive)
REMARK    1  A    between atoms: O_1  and  C_2
REMARK    2  A    between atoms: C_6  and  C_7
REMARK    3  A    between atoms: C_8  and  C_9
REMARK    4  A    between atoms: C_16  and  O_17
REMARK                            x       y       z     vdW  Elec       q    Type
REMARK                         _______ _______ _______ _____ _____    ______ ____
ROOT
ATOM      1  C   UNL     1       8.218   9.298  17.860  0.00  0.00    +0.000 C 
ATOM      2  C   UNL     1       8.219   8.021  18.277  0.00  0.00    +0.000 C 
ENDROOT
BRANCH   2   3
ATOM      3  C   UNL     1       7.386   6.961  17.689  0.00  0.00    +0.000 A 
ATOM      4  C   UNL     1       6.365   6.391  18.434  0.00  0.00    +0.000 A 
ATOM      5  C   UNL     1       5.603   5.382  17.857  0.00  0.00    +0.000 A 
ATOM      6  C   UNL     1       5.877   4.961  16.551  0.00  0.00    +0.000 A 
ATOM      7  C   UNL     1       5.120   3.939  15.950  0.00  0.00    +0.000 A 
ATOM      8  C   UNL     1       5.402   3.518  14.653  0.00  0.00    +0.000 A 
ATOM      9  C   UNL     1       6.441   4.114  13.949  0.00  0.00    +0.000 A 
ATOM     10  C   UNL     1       7.190   5.132  14.550  0.00  0.00    +0.000 A 
ATOM     11  C   UNL     1       6.934   5.584  15.854  0.00  0.00    +0.000 A 
ATOM     12  N   UNL     1       7.668   6.569  16.426  0.00  0.00    +0.000 NA
BRANCH  10  13
ATOM     13  O   UNL     1       8.217   5.706  13.836  0.00  0.00    +0.000 OA
ATOM     14  H   UNL     1       8.817   5.013  13.520  0.00  0.00    +0.000 HD
ENDBRANCH  10  13
ENDBRANCH   2   3
BRANCH   1  19
ATOM     15  C   UNL     1      10.560  12.459  19.568  0.00  0.00    +0.000 A 
ATOM     16  C   UNL     1      10.743  12.104  18.230  0.00  0.00    +0.000 A 
ATOM     17 BR   UNL     1      12.005  13.020  17.147  0.00  0.00    +0.000 Br
ATOM     18  C   UNL     1       9.996  11.071  17.659  0.00  0.00    +0.000 A 
ATOM     19  C   UNL     1       9.059  10.365  18.427  0.00  0.00    +0.000 A 
ATOM     20  C   UNL     1       8.873  10.730  19.768  0.00  0.00    +0.000 A 
ATOM     21  C   UNL     1       9.623  11.768  20.336  0.00  0.00    +0.000 A 
ATOM     22 BR   UNL     1       9.322  12.203  22.159  0.00  0.00    +0.000 Br
BRANCH  15  23
ATOM     23  O   UNL     1      11.280  13.478  20.131  0.00  0.00    +0.000 OA
ATOM     24  H   UNL     1      11.128  13.457  21.092  0.00  0.00    +0.000 HD
ENDBRANCH  15  23
ENDBRANCH   1  19
TORSDOF 4
ENDMDL
MODEL 5
REMARK VINA RESULT:      -7.7      6.122      7.550
REMARK  Name = 
REMARK  4 active torsions:
REMARK  status: ('A' for Active; 'I' for Inactive)
REMARK    1  A    between atoms: O_1  and  C_2
REMARK    2  A    between atoms: C_6  and  C_7
REMARK    3  A    between atoms: C_8  and  C_9
REMARK    4  A    between atoms: C_16  and  O_17
REMARK                            x       y       z     vdW  Elec       q    Type
REMARK                         _______ _______ _______ _____ _____    ______ ____
ROOT
ATOM      1  C   UNL     1       1.818   8.544  18.430  0.00  0.00    +0.000 C 
ATOM      2  C   UNL     1       2.391   7.456  18.972  0.00  0.00    +0.000 C 
ENDROOT
BRANCH   2   3
ATOM      3  C   UNL     1       3.100   6.426  18.197  0.00  0.00    +0.000 A 
ATOM      4  C   UNL     1       2.524   5.177  18.020  0.00  0.00    +0.000 A 
ATOM      5  C   UNL     1       3.222   4.219  17.294  0.00  0.00    +0.000 A 
ATOM      6  C   UNL     1       4.480   4.526  16.765  0.00  0.00    +0.000 A 
ATOM      7  C   UNL     1       5.205   3.569  16.031  0.00  0.00    +0.000 A 
ATOM      8  C   UNL     1       6.461   3.875  15.513  0.00  0.00    +0.000 A 
ATOM      9  C   UNL     1       7.000   5.138  15.724  0.00  0.00    +0.000 A 
ATOM     10  C   UNL     1       6.274   6.088  16.454  0.00  0.00    +0.000 A 
ATOM     11  C   UNL     1       5.006   5.816  16.989  0.00  0.00    +0.000 A 
ATOM     12  N   UNL     1       4.314   6.743  17.695  0.00  0.00    +0.000 NA
BRANCH  10  13
ATOM     13  O   UNL     1       6.829   7.331  16.655  0.00  0.00    +0.000 OA
ATOM     14  H   UNL     1       6.487   7.708  17.480  0.00  0.00    +0.000 HD
ENDBRANCH  10  13
ENDBRANCH   2   3
BRANCH   1  19
ATOM     15  C   UNL     1      -0.298  11.504  20.700  0.00  0.00    +0.000 A 
ATOM     16  C   UNL     1       0.090  11.782  19.388  0.00  0.00    +0.000 A 
ATOM     17 BR   UNL     1      -0.326  13.451  18.585  0.00  0.00    +0.000 Br
ATOM     18  C   UNL     1       0.789  10.833  18.637  0.00  0.00    +0.000 A 
ATOM     19  C   UNL     1       1.122   9.591  19.195  0.00  0.00    +0.000 A 
ATOM     20  C   UNL     1       0.722   9.314  20.511  0.00  0.00    +0.000 A 
ATOM     21  C   UNL     1       0.021  10.267  21.260  0.00  0.00    +0.000 A 
ATOM     22 BR   UNL     1      -0.481   9.826  23.036  0.00  0.00    +0.000 Br
BRANCH  15  23
ATOM     23  O   UNL     1      -0.993  12.425  21.438  0.00  0.00    +0.000 OA
ATOM     24  H   UNL     1      -1.885  12.504  21.054  0.00  0.00    +0.000 HD
ENDBRANCH  15  23
ENDBRANCH   1  19
TORSDOF 4
ENDMDL
MODEL 6
REMARK VINA RESULT:      -7.7      6.045      7.721
REMARK  Name = 
REMARK  4 active torsions:
REMARK  status: ('A' for Active; 'I' for Inactive)
REMARK    1  A    between atoms: O_1  and  C_2
REMARK    2  A    between atoms: C_6  and  C_7
REMARK    3  A    between atoms: C_8  and  C_9
REMARK    4  A    between atoms: C_16  and  O_17
REMARK                            x       y       z     vdW  Elec       q    Type
REMARK                         _______ _______ _______ _____ _____    ______ ____
ROOT
ATOM      1  C   UNL     1       1.847   8.486  18.456  0.00  0.00    +0.000 C 
ATOM      2  C   UNL     1       2.307   7.325  18.952  0.00  0.00    +0.000 C 
ENDROOT
BRANCH   2   3
ATOM      3  C   UNL     1       3.078   6.344  18.172  0.00  0.00    +0.000 A 
ATOM      4  C   UNL     1       2.551   5.085  17.932  0.00  0.00    +0.000 A 
ATOM      5  C   UNL     1       3.307   4.174  17.203  0.00  0.00    +0.000 A 
ATOM      6  C   UNL     1       4.575   4.538  16.734  0.00  0.00    +0.000 A 
ATOM      7  C   UNL     1       5.358   3.630  15.999  0.00  0.00    +0.000 A 
ATOM      8  C   UNL     1       6.622   3.993  15.541  0.00  0.00    +0.000 A 
ATOM      9  C   UNL     1       7.111   5.265  15.815  0.00  0.00    +0.000 A 
ATOM     10  C   UNL     1       6.327   6.166  16.545  0.00  0.00    +0.000 A 
ATOM     11  C   UNL     1       5.049   5.836  17.021  0.00  0.00    +0.000 A 
ATOM     12  N   UNL     1       4.300   6.716  17.729  0.00  0.00    +0.000 NA
BRANCH  10  13
ATOM     13  O   UNL     1       6.833   7.418  16.808  0.00  0.00    +0.000 OA
ATOM     14  H   UNL     1       6.895   7.922  15.982  0.00  0.00    +0.000 HD
ENDBRANCH  10  13
ENDBRANCH   2   3
BRANCH   1  19
ATOM     15  C   UNL     1      -0.271  11.487  20.669  0.00  0.00    +0.000 A 
ATOM     16  C   UNL     1       0.020  10.259  21.267  0.00  0.00    +0.000 A 
ATOM     17 BR   UNL     1      -0.493   9.908  23.060  0.00  0.00    +0.000 Br
ATOM     18  C   UNL     1       0.701   9.267  20.558  0.00  0.00    +0.000 A 
ATOM     19  C   UNL     1       1.090   9.484  19.229  0.00  0.00    +0.000 A 
ATOM     20  C   UNL     1       0.803  10.722  18.636  0.00  0.00    +0.000 A 
ATOM     21  C   UNL     1       0.122  11.716  19.350  0.00  0.00    +0.000 A 
ATOM     22 BR   UNL     1      -0.239  13.363  18.481  0.00  0.00    +0.000 Br
BRANCH  15  23
ATOM     23  O   UNL     1      -0.927  12.470  21.362  0.00  0.00    +0.000 OA
ATOM     24  H   UNL     1      -0.435  12.635  22.186  0.00  0.00    +0.000 HD
ENDBRANCH  15  23
ENDBRANCH   1  19
TORSDOF 4
ENDMDL
MODEL 7
REMARK VINA RESULT:      -7.6      7.037      9.840
REMARK  Name = 
REMARK  4 active torsions:
REMARK  status: ('A' for Active; 'I' for Inactive)
REMARK    1  A    between atoms: O_1  and  C_2
REMARK    2  A    between atoms: C_6  and  C_7
REMARK    3  A    between atoms: C_8  and  C_9
REMARK    4  A    between atoms: C_16  and  O_17
REMARK                            x       y       z     vdW  Elec       q    Type
REMARK                         _______ _______ _______ _____ _____    ______ ____
ROOT
ATOM      1  C   UNL     1       2.276   7.777  18.494  0.00  0.00    +0.000 C 
ATOM      2  C   UNL     1       2.242   8.891  17.743  0.00  0.00    +0.000 C 
ENDROOT
BRANCH   2   3
ATOM      3  C   UNL     1       1.546  10.127  18.134  0.00  0.00    +0.000 A 
ATOM      4  C   UNL     1       0.218  10.077  18.528  0.00  0.00    +0.000 A 
ATOM      5  C   UNL     1      -0.417  11.263  18.879  0.00  0.00    +0.000 A 
ATOM      6  C   UNL     1       0.285  12.472  18.826  0.00  0.00    +0.000 A 
ATOM      7  C   UNL     1      -0.340  13.683  19.173  0.00  0.00    +0.000 A 
ATOM      8  C   UNL     1       0.360  14.885  19.112  0.00  0.00    +0.000 A 
ATOM      9  C   UNL     1       1.688  14.885  18.702  0.00  0.00    +0.000 A 
ATOM     10  C   UNL     1       2.307  13.677  18.360  0.00  0.00    +0.000 A 
ATOM     11  C   UNL     1       1.634  12.447  18.412  0.00  0.00    +0.000 A 
ATOM     12  N   UNL     1       2.243  11.284  18.075  0.00  0.00    +0.000 NA
BRANCH  10  13
ATOM     13  O   UNL     1       3.621  13.701  17.953  0.00  0.00    +0.000 OA
ATOM     14  H   UNL     1       3.916  12.797  17.760  0.00  0.00    +0.000 HD
ENDBRANCH  10  13
ENDBRANCH   2   3
BRANCH   1  19
ATOM     15  C   UNL     1       4.372   4.231  17.300  0.00  0.00    +0.000 A 
ATOM     16  C   UNL     1       3.085   4.130  17.832  0.00  0.00    +0.000 A 
ATOM     17 BR   UNL     1       2.239   2.441  18.015  0.00  0.00    +0.000 Br
ATOM     18  C   UNL     1       2.391   5.274  18.235  0.00  0.00    +0.000 A 
ATOM     19  C   UNL     1       2.983   6.540  18.123  0.00  0.00    +0.000 A 
ATOM     20  C   UNL     1       4.273   6.636  17.580  0.00  0.00    +0.000 A 
ATOM     21  C   UNL     1       4.965   5.487  17.176  0.00  0.00    +0.000 A 
ATOM     22 BR   UNL     1       6.709   5.693  16.457  0.00  0.00    +0.000 Br
BRANCH  15  23
ATOM     23  O   UNL     1       5.053   3.115  16.892  0.00  0.00    +0.000 OA
ATOM     24  H   UNL     1       5.052   2.477  17.628  0.00  0.00    +0.000 HD
ENDBRANCH  15  23
ENDBRANCH   1  19
TORSDOF 4
ENDMDL
MODEL 8
REMARK VINA RESULT:      -7.6      7.038      9.773
REMARK  Name = 
REMARK  4 active torsions:
REMARK  status: ('A' for Active; 'I' for Inactive)
REMARK    1  A    between atoms: O_1  and  C_2
REMARK    2  A    between atoms: C_6  and  C_7
REMARK    3  A    between atoms: C_8  and  C_9
REMARK    4  A    between atoms: C_16  and  O_17
REMARK                            x       y       z     vdW  Elec       q    Type
REMARK                         _______ _______ _______ _____ _____    ______ ____
ROOT
ATOM      1  C   UNL     1       2.290   7.772  18.441  0.00  0.00    +0.000 C 
ATOM      2  C   UNL     1       2.258   8.905  17.721  0.00  0.00    +0.000 C 
ENDROOT
BRANCH   2   3
ATOM      3  C   UNL     1       1.581  10.138  18.153  0.00  0.00    +0.000 A 
ATOM      4  C   UNL     1       0.274  10.084  18.613  0.00  0.00    +0.000 A 
ATOM      5  C   UNL     1      -0.344  11.266  19.003  0.00  0.00    +0.000 A 
ATOM      6  C   UNL     1       0.353  12.477  18.922  0.00  0.00    +0.000 A 
ATOM      7  C   UNL     1      -0.256  13.685  19.308  0.00  0.00    +0.000 A 
ATOM      8  C   UNL     1       0.438  14.889  19.218  0.00  0.00    +0.000 A 
ATOM      9  C   UNL     1       1.744  14.893  18.743  0.00  0.00    +0.000 A 
ATOM     10  C   UNL     1       2.347  13.688  18.362  0.00  0.00    +0.000 A 
ATOM     11  C   UNL     1       1.679  12.456  18.441  0.00  0.00    +0.000 A 
ATOM     12  N   UNL     1       2.272  11.297  18.067  0.00  0.00    +0.000 NA
BRANCH  10  13
ATOM     13  O   UNL     1       3.639  13.716  17.891  0.00  0.00    +0.000 OA
ATOM     14  H   UNL     1       3.822  12.901  17.399  0.00  0.00    +0.000 HD
ENDBRANCH  10  13
ENDBRANCH   2   3
BRANCH   1  19
ATOM     15  C   UNL     1       4.265   4.123  17.358  0.00  0.00    +0.000 A 
ATOM     16  C   UNL     1       4.893   5.348  17.125  0.00  0.00    +0.000 A 
ATOM     17 BR   UNL     1       6.625   5.419  16.351  0.00  0.00    +0.000 Br
ATOM     18  C   UNL     1       4.261   6.547  17.463  0.00  0.00    +0.000 A 
ATOM     19  C   UNL     1       2.979   6.538  18.029  0.00  0.00    +0.000 A 
ATOM     20  C   UNL     1       2.356   5.304  18.269  0.00  0.00    +0.000 A 
ATOM     21  C   UNL     1       2.993   4.104  17.930  0.00  0.00    +0.000 A 
ATOM     22 BR   UNL     1       2.087   2.474  18.277  0.00  0.00    +0.000 Br
BRANCH  15  23
ATOM     23  O   UNL     1       4.884   2.943  17.041  0.00  0.00    +0.000 OA
ATOM     24  H   UNL     1       4.343   2.493  16.367  0.00  0.00    +0.000 HD
ENDBRANCH  15  23
ENDBRANCH   1  19
TORSDOF 4
ENDMDL
MODEL 9
REMARK VINA RESULT:      -7.6      3.759      8.462
REMARK  Name = 
REMARK  4 active torsions:
REMARK  status: ('A' for Active; 'I' for Inactive)
REMARK    1  A    between atoms: O_1  and  C_2
REMARK    2  A    between atoms: C_6  and  C_7
REMARK    3  A    between atoms: C_8  and  C_9
REMARK    4  A    between atoms: C_16  and  O_17
REMARK                            x       y       z     vdW  Elec       q    Type
REMARK                         _______ _______ _______ _____ _____    ______ ____
ROOT
ATOM      1  C   UNL     1       8.256   7.782  18.534  0.00  0.00    +0.000 C 
ATOM      2  C   UNL     1       8.282   9.044  18.074  0.00  0.00    +0.000 C 
ENDROOT
BRANCH   2   3
ATOM      3  C   UNL     1       9.087  10.122  18.669  0.00  0.00    +0.000 A 
ATOM      4  C   UNL     1       9.072  10.320  20.041  0.00  0.00    +0.000 A 
ATOM      5  C   UNL     1       9.833  11.355  20.573  0.00  0.00    +0.000 A 
ATOM      6  C   UNL     1      10.590  12.171  19.725  0.00  0.00    +0.000 A 
ATOM      7  C   UNL     1      11.363  13.225  20.244  0.00  0.00    +0.000 A 
ATOM      8  C   UNL     1      12.109  14.041  19.395  0.00  0.00    +0.000 A 
ATOM      9  C   UNL     1      12.086  13.808  18.025  0.00  0.00    +0.000 A 
ATOM     10  C   UNL     1      11.316  12.756  17.515  0.00  0.00    +0.000 A 
ATOM     11  C   UNL     1      10.555  11.913  18.338  0.00  0.00    +0.000 A 
ATOM     12  N   UNL     1       9.812  10.899  17.832  0.00  0.00    +0.000 NA
BRANCH  10  13
ATOM     13  O   UNL     1      11.305  12.546  16.155  0.00  0.00    +0.000 OA
ATOM     14  H   UNL     1      11.644  13.334  15.703  0.00  0.00    +0.000 HD
ENDBRANCH  10  13
ENDBRANCH   2   3
BRANCH   1  19
ATOM     15  C   UNL     1       6.000   4.523  16.899  0.00  0.00    +0.000 A 
ATOM     16  C   UNL     1       6.829   5.280  16.068  0.00  0.00    +0.000 A 
ATOM     17 BR   UNL     1       6.986   4.870  14.221  0.00  0.00    +0.000 Br
ATOM     18  C   UNL     1       7.564   6.351  16.581  0.00  0.00    +0.000 A 
ATOM     19  C   UNL     1       7.469   6.690  17.938  0.00  0.00    +0.000 A 
ATOM     20  C   UNL     1       6.642   5.922  18.770  0.00  0.00    +0.000 A 
ATOM     21  C   UNL     1       5.909   4.847  18.252  0.00  0.00    +0.000 A 
ATOM     22 BR   UNL     1       4.805   3.856  19.436  0.00  0.00    +0.000 Br
BRANCH  15  23
ATOM     23  O   UNL     1       5.287   3.463  16.405  0.00  0.00    +0.000 OA
ATOM     24  H   UNL     1       5.748   2.645  16.663  0.00  0.00    +0.000 HD
ENDBRANCH  15  23
ENDBRANCH   1  19
TORSDOF 4
ENDMDL
