MODEL 1
REMARK VINA RESULT:      -8.5      0.000      0.000
REMARK  Name = 
REMARK  3 active torsions:
REMARK  status: ('A' for Active; 'I' for Inactive)
REMARK    1  A    between atoms: C_6  and  C_7
REMARK    2  A    between atoms: C_13  and  C_14
REMARK    3  A    between atoms: C_20  and  C_21
REMARK                            x       y       z     vdW  Elec       q    Type
REMARK                         _______ _______ _______ _____ _____    ______ ____
ROOT
ATOM      1  C   UNL     1       3.449   5.021  18.935  0.00  0.00    +0.000 A 
ATOM      2  C   UNL     1       3.053   3.686  18.810  0.00  0.00    +0.000 A 
ATOM      3  N   UNL     1       1.907   3.134  19.296  0.00  0.00    +0.000 NA
ATOM      4  C   UNL     1       1.049   3.910  19.991  0.00  0.00    +0.000 A 
ATOM      5  C   UNL     1       1.365   5.244  20.165  0.00  0.00    +0.000 A 
ATOM      6  N   UNL     1       0.739   6.269  20.828  0.00  0.00    +0.000 N 
ATOM      7  C   UNL     1       1.471   7.414  20.644  0.00  0.00    +0.000 A 
ATOM      8  N   UNL     1       2.540   7.166  19.917  0.00  0.00    +0.000 NA
ATOM      9  C   UNL     1       2.519   5.815  19.635  0.00  0.00    +0.000 A 
ATOM     10  H   UNL     1      -0.122   6.217  21.354  0.00  0.00    +0.000 HD
ENDROOT
BRANCH   7  11
ATOM     11  C   UNL     1       1.101   8.750  21.197  0.00  0.00    +0.000 A 
ATOM     12  N   UNL     1       1.578   9.205  22.369  0.00  0.00    +0.000 NA
ATOM     13  N   UNL     1       1.031  10.423  22.487  0.00  0.00    +0.000 N 
ATOM     14  C   UNL     1       0.189  10.761  21.465  0.00  0.00    +0.000 A 
ATOM     15  C   UNL     1      -0.589  11.883  21.219  0.00  0.00    +0.000 A 
ATOM     16  C   UNL     1      -1.347  11.831  20.050  0.00  0.00    +0.000 A 
ATOM     17  C   UNL     1      -1.291  10.717  19.198  0.00  0.00    +0.000 A 
ATOM     18  N   UNL     1      -0.504   9.630  19.442  0.00  0.00    +0.000 NA
ATOM     19  C   UNL     1       0.218   9.683  20.593  0.00  0.00    +0.000 A 
ATOM     20  H   UNL     1       1.270  10.974  23.304  0.00  0.00    +0.000 HD
BRANCH  17  21
ATOM     21  C   UNL     1      -2.093  10.673  17.953  0.00  0.00    +0.000 A 
ATOM     22  C   UNL     1      -3.209  11.484  17.745  0.00  0.00    +0.000 A 
ATOM     23  N   UNL     1      -3.982  11.431  16.629  0.00  0.00    +0.000 NA
ATOM     24  C   UNL     1      -3.594  10.531  15.702  0.00  0.00    +0.000 A 
ATOM     25  C   UNL     1      -2.482   9.729  15.878  0.00  0.00    +0.000 A 
ATOM     26  N   UNL     1      -1.715   9.780  16.993  0.00  0.00    +0.000 NA
ENDBRANCH  17  21
ENDBRANCH   7  11
BRANCH   1  32
ATOM     27  F   UNL     1       8.257   5.736  19.312  0.00  0.00    +0.000 F 
ATOM     28  C   UNL     1       7.123   5.922  18.623  0.00  0.00    +0.000 A 
ATOM     29  C   UNL     1       7.160   6.638  17.435  0.00  0.00    +0.000 A 
ATOM     30  C   UNL     1       5.982   6.831  16.729  0.00  0.00    +0.000 A 
ATOM     31  C   UNL     1       4.780   6.307  17.223  0.00  0.00    +0.000 A 
ATOM     32  C   UNL     1       4.721   5.568  18.423  0.00  0.00    +0.000 A 
ATOM     33  C   UNL     1       5.931   5.390  19.116  0.00  0.00    +0.000 A 
ENDBRANCH   1  32
TORSDOF 3
ENDMDL
MODEL 2
REMARK VINA RESULT:      -8.5      3.464      4.827
REMARK  Name = 
REMARK  3 active torsions:
REMARK  status: ('A' for Active; 'I' for Inactive)
REMARK    1  A    between atoms: C_6  and  C_7
REMARK    2  A    between atoms: C_13  and  C_14
REMARK    3  A    between atoms: C_20  and  C_21
REMARK                            x       y       z     vdW  Elec       q    Type
REMARK                         _______ _______ _______ _____ _____    ______ ____
ROOT
ATOM      1  C   UNL     1       2.383   6.206  19.049  0.00  0.00    +0.000 A 
ATOM      2  C   UNL     1       3.158   6.344  17.892  0.00  0.00    +0.000 A 
ATOM      3  N   UNL     1       3.445   7.508  17.247  0.00  0.00    +0.000 NA
ATOM      4  C   UNL     1       2.936   8.665  17.722  0.00  0.00    +0.000 A 
ATOM      5  C   UNL     1       2.155   8.618  18.861  0.00  0.00    +0.000 A 
ATOM      6  N   UNL     1       1.481   9.583  19.565  0.00  0.00    +0.000 N 
ATOM      7  C   UNL     1       0.892   8.992  20.654  0.00  0.00    +0.000 A 
ATOM      8  N   UNL     1       1.140   7.699  20.666  0.00  0.00    +0.000 NA
ATOM      9  C   UNL     1       1.893   7.433  19.541  0.00  0.00    +0.000 A 
ATOM     10  H   UNL     1       1.426  10.569  19.348  0.00  0.00    +0.000 HD
ENDROOT
BRANCH   7  11
ATOM     11  C   UNL     1       0.083   9.720  21.675  0.00  0.00    +0.000 A 
ATOM     12  N   UNL     1      -0.504   9.097  22.710  0.00  0.00    +0.000 NA
ATOM     13  N   UNL     1      -1.100  10.090  23.387  0.00  0.00    +0.000 N 
ATOM     14  C   UNL     1      -0.960  11.322  22.813  0.00  0.00    +0.000 A 
ATOM     15  C   UNL     1      -1.434  12.579  23.157  0.00  0.00    +0.000 A 
ATOM     16  C   UNL     1      -1.084  13.603  22.277  0.00  0.00    +0.000 A 
ATOM     17  C   UNL     1      -0.294  13.349  21.145  0.00  0.00    +0.000 A 
ATOM     18  N   UNL     1       0.183  12.110  20.832  0.00  0.00    +0.000 NA
ATOM     19  C   UNL     1      -0.178  11.115  21.686  0.00  0.00    +0.000 A 
ATOM     20  H   UNL     1      -1.601   9.852  24.236  0.00  0.00    +0.000 HD
BRANCH  17  21
ATOM     21  C   UNL     1       0.080  14.444  20.220  0.00  0.00    +0.000 A 
ATOM     22  C   UNL     1       1.369  14.592  19.707  0.00  0.00    +0.000 A 
ATOM     23  N   UNL     1       1.743  15.611  18.890  0.00  0.00    +0.000 NA
ATOM     24  C   UNL     1       0.768  16.493  18.587  0.00  0.00    +0.000 A 
ATOM     25  C   UNL     1      -0.521  16.357  19.068  0.00  0.00    +0.000 A 
ATOM     26  N   UNL     1      -0.891  15.343  19.886  0.00  0.00    +0.000 NA
ENDBRANCH  17  21
ENDBRANCH   7  11
BRANCH   1  32
ATOM     27  F   UNL     1       0.516   1.704  18.922  0.00  0.00    +0.000 F 
ATOM     28  C   UNL     1       1.128   2.670  19.621  0.00  0.00    +0.000 A 
ATOM     29  C   UNL     1       1.449   2.446  20.952  0.00  0.00    +0.000 A 
ATOM     30  C   UNL     1       2.079   3.451  21.671  0.00  0.00    +0.000 A 
ATOM     31  C   UNL     1       2.376   4.671  21.048  0.00  0.00    +0.000 A 
ATOM     32  C   UNL     1       2.067   4.917  19.694  0.00  0.00    +0.000 A 
ATOM     33  C   UNL     1       1.429   3.879  18.993  0.00  0.00    +0.000 A 
ENDBRANCH   1  32
TORSDOF 3
ENDMDL
MODEL 3
REMARK VINA RESULT:      -8.5      3.170      4.451
REMARK  Name = 
REMARK  3 active torsions:
REMARK  status: ('A' for Active; 'I' for Inactive)
REMARK    1  A    between atoms: C_6  and  C_7
REMARK    2  A    between atoms: C_13  and  C_14
REMARK    3  A    between atoms: C_20  and  C_21
REMARK                            x       y       z     vdW  Elec       q    Type
REMARK                         _______ _______ _______ _____ _____    ______ ____
ROOT
ATOM      1  C   UNL     1       2.778   6.027  19.162  0.00  0.00    +0.000 A 
ATOM      2  C   UNL     1       3.466   6.146  17.950  0.00  0.00    +0.000 A 
ATOM      3  N   UNL     1       3.572   7.271  17.189  0.00  0.00    +0.000 NA
ATOM      4  C   UNL     1       2.953   8.399  17.595  0.00  0.00    +0.000 A 
ATOM      5  C   UNL     1       2.247   8.368  18.783  0.00  0.00    +0.000 A 
ATOM      6  N   UNL     1       1.501   9.309  19.445  0.00  0.00    +0.000 N 
ATOM      7  C   UNL     1       1.050   8.757  20.617  0.00  0.00    +0.000 A 
ATOM      8  N   UNL     1       1.454   7.509  20.724  0.00  0.00    +0.000 NA
ATOM      9  C   UNL     1       2.170   7.228  19.579  0.00  0.00    +0.000 A 
ATOM     10  H   UNL     1       1.314  10.257  19.149  0.00  0.00    +0.000 HD
ENDROOT
BRANCH   7  11
ATOM     11  C   UNL     1       0.216   9.478  21.624  0.00  0.00    +0.000 A 
ATOM     12  N   UNL     1      -0.428   8.843  22.617  0.00  0.00    +0.000 NA
ATOM     13  N   UNL     1      -1.029   9.832  23.295  0.00  0.00    +0.000 N 
ATOM     14  C   UNL     1      -0.838  11.075  22.759  0.00  0.00    +0.000 A 
ATOM     15  C   UNL     1      -1.297  12.334  23.117  0.00  0.00    +0.000 A 
ATOM     16  C   UNL     1      -0.889  13.370  22.279  0.00  0.00    +0.000 A 
ATOM     17  C   UNL     1      -0.058  13.127  21.174  0.00  0.00    +0.000 A 
ATOM     18  N   UNL     1       0.404  11.885  20.848  0.00  0.00    +0.000 NA
ATOM     19  C   UNL     1      -0.015  10.878  21.660  0.00  0.00    +0.000 A 
ATOM     20  H   UNL     1      -1.569   9.585  24.116  0.00  0.00    +0.000 HD
BRANCH  17  21
ATOM     21  C   UNL     1       0.379  14.236  20.294  0.00  0.00    +0.000 A 
ATOM     22  C   UNL     1      -0.509  14.970  19.507  0.00  0.00    +0.000 A 
ATOM     23  N   UNL     1      -0.124  15.963  18.664  0.00  0.00    +0.000 NA
ATOM     24  C   UNL     1       1.201  16.213  18.635  0.00  0.00    +0.000 A 
ATOM     25  C   UNL     1       2.098  15.511  19.418  0.00  0.00    +0.000 A 
ATOM     26  N   UNL     1       1.714  14.518  20.255  0.00  0.00    +0.000 NA
ENDBRANCH  17  21
ENDBRANCH   7  11
BRANCH   1  32
ATOM     27  F   UNL     1       4.606   1.806  20.778  0.00  0.00    +0.000 F 
ATOM     28  C   UNL     1       3.580   2.667  20.735  0.00  0.00    +0.000 A 
ATOM     29  C   UNL     1       2.409   2.363  21.414  0.00  0.00    +0.000 A 
ATOM     30  C   UNL     1       1.349   3.256  21.361  0.00  0.00    +0.000 A 
ATOM     31  C   UNL     1       1.474   4.442  20.625  0.00  0.00    +0.000 A 
ATOM     32  C   UNL     1       2.658   4.776  19.935  0.00  0.00    +0.000 A 
ATOM     33  C   UNL     1       3.714   3.850  20.007  0.00  0.00    +0.000 A 
ENDBRANCH   1  32
TORSDOF 3
ENDMDL
MODEL 4
REMARK VINA RESULT:      -8.4      3.992      7.135
REMARK  Name = 
REMARK  3 active torsions:
REMARK  status: ('A' for Active; 'I' for Inactive)
REMARK    1  A    between atoms: C_6  and  C_7
REMARK    2  A    between atoms: C_13  and  C_14
REMARK    3  A    between atoms: C_20  and  C_21
REMARK                            x       y       z     vdW  Elec       q    Type
REMARK                         _______ _______ _______ _____ _____    ______ ____
ROOT
ATOM      1  C   UNL     1       1.106  11.243  19.498  0.00  0.00    +0.000 A 
ATOM      2  C   UNL     1       1.952  12.217  20.040  0.00  0.00    +0.000 A 
ATOM      3  N   UNL     1       1.631  13.516  20.291  0.00  0.00    +0.000 NA
ATOM      4  C   UNL     1       0.393  13.957  19.984  0.00  0.00    +0.000 A 
ATOM      5  C   UNL     1      -0.507  13.060  19.441  0.00  0.00    +0.000 A 
ATOM      6  N   UNL     1      -1.800  13.192  19.002  0.00  0.00    +0.000 N 
ATOM      7  C   UNL     1      -2.244  11.961  18.590  0.00  0.00    +0.000 A 
ATOM      8  N   UNL     1      -1.295  11.060  18.726  0.00  0.00    +0.000 NA
ATOM      9  C   UNL     1      -0.190  11.724  19.219  0.00  0.00    +0.000 A 
ATOM     10  H   UNL     1      -2.355  14.037  18.988  0.00  0.00    +0.000 HD
ENDROOT
BRANCH   7  11
ATOM     11  C   UNL     1      -3.614  11.692  18.062  0.00  0.00    +0.000 A 
ATOM     12  N   UNL     1      -3.836  11.293  16.798  0.00  0.00    +0.000 NA
ATOM     13  N   UNL     1      -5.167  11.145  16.737  0.00  0.00    +0.000 N 
ATOM     14  C   UNL     1      -5.821  11.471  17.892  0.00  0.00    +0.000 A 
ATOM     15  C   UNL     1      -7.164  11.493  18.238  0.00  0.00    +0.000 A 
ATOM     16  C   UNL     1      -7.431  11.920  19.538  0.00  0.00    +0.000 A 
ATOM     17  C   UNL     1      -6.392  12.277  20.413  0.00  0.00    +0.000 A 
ATOM     18  N   UNL     1      -5.074  12.229  20.065  0.00  0.00    +0.000 NA
ATOM     19  C   UNL     1      -4.825  11.828  18.789  0.00  0.00    +0.000 A 
ATOM     20  H   UNL     1      -5.569  10.824  15.863  0.00  0.00    +0.000 HD
BRANCH  17  21
ATOM     21  C   UNL     1      -6.684  12.722  21.796  0.00  0.00    +0.000 A 
ATOM     22  C   UNL     1      -7.604  12.073  22.619  0.00  0.00    +0.000 A 
ATOM     23  N   UNL     1      -7.916  12.488  23.875  0.00  0.00    +0.000 NA
ATOM     24  C   UNL     1      -7.261  13.590  24.296  0.00  0.00    +0.000 A 
ATOM     25  C   UNL     1      -6.333  14.240  23.505  0.00  0.00    +0.000 A 
ATOM     26  N   UNL     1      -6.026  13.827  22.252  0.00  0.00    +0.000 NA
ENDBRANCH  17  21
ENDBRANCH   7  11
BRANCH   1  32
ATOM     27  F   UNL     1       1.728   6.600  20.848  0.00  0.00    +0.000 F 
ATOM     28  C   UNL     1       1.818   7.536  19.894  0.00  0.00    +0.000 A 
ATOM     29  C   UNL     1       2.301   7.184  18.642  0.00  0.00    +0.000 A 
ATOM     30  C   UNL     1       2.396   8.159  17.659  0.00  0.00    +0.000 A 
ATOM     31  C   UNL     1       2.010   9.476  17.945  0.00  0.00    +0.000 A 
ATOM     32  C   UNL     1       1.508   9.853  19.208  0.00  0.00    +0.000 A 
ATOM     33  C   UNL     1       1.424   8.843  20.182  0.00  0.00    +0.000 A 
ENDBRANCH   1  32
TORSDOF 3
ENDMDL
MODEL 5
REMARK VINA RESULT:      -8.3      4.207      7.191
REMARK  Name = 
REMARK  3 active torsions:
REMARK  status: ('A' for Active; 'I' for Inactive)
REMARK    1  A    between atoms: C_6  and  C_7
REMARK    2  A    between atoms: C_13  and  C_14
REMARK    3  A    between atoms: C_20  and  C_21
REMARK                            x       y       z     vdW  Elec       q    Type
REMARK                         _______ _______ _______ _____ _____    ______ ____
ROOT
ATOM      1  C   UNL     1       6.341   4.195  13.915  0.00  0.00    +0.000 A 
ATOM      2  C   UNL     1       7.417   5.082  13.799  0.00  0.00    +0.000 A 
ATOM      3  N   UNL     1       7.968   5.819  14.802  0.00  0.00    +0.000 NA
ATOM      4  C   UNL     1       7.445   5.733  16.043  0.00  0.00    +0.000 A 
ATOM      5  C   UNL     1       6.376   4.882  16.247  0.00  0.00    +0.000 A 
ATOM      6  N   UNL     1       5.615   4.593  17.351  0.00  0.00    +0.000 N 
ATOM      7  C   UNL     1       4.699   3.633  17.005  0.00  0.00    +0.000 A 
ATOM      8  N   UNL     1       4.825   3.312  15.735  0.00  0.00    +0.000 NA
ATOM      9  C   UNL     1       5.837   4.100  15.229  0.00  0.00    +0.000 A 
ATOM     10  H   UNL     1       5.706   4.994  18.274  0.00  0.00    +0.000 HD
ENDROOT
BRANCH   7  11
ATOM     11  C   UNL     1       3.701   3.042  17.945  0.00  0.00    +0.000 A 
ATOM     12  N   UNL     1       3.490   1.718  18.037  0.00  0.00    +0.000 NA
ATOM     13  N   UNL     1       2.553   1.607  18.990  0.00  0.00    +0.000 N 
ATOM     14  C   UNL     1       2.117   2.802  19.488  0.00  0.00    +0.000 A 
ATOM     15  C   UNL     1       1.158   3.133  20.435  0.00  0.00    +0.000 A 
ATOM     16  C   UNL     1       0.988   4.500  20.649  0.00  0.00    +0.000 A 
ATOM     17  C   UNL     1       1.758   5.446  19.954  0.00  0.00    +0.000 A 
ATOM     18  N   UNL     1       2.712   5.104  19.040  0.00  0.00    +0.000 NA
ATOM     19  C   UNL     1       2.859   3.769  18.826  0.00  0.00    +0.000 A 
ATOM     20  H   UNL     1       2.245   0.676  19.247  0.00  0.00    +0.000 HD
BRANCH  17  21
ATOM     21  C   UNL     1       1.576   6.897  20.193  0.00  0.00    +0.000 A 
ATOM     22  C   UNL     1       1.091   7.408  21.397  0.00  0.00    +0.000 A 
ATOM     23  N   UNL     1       0.879   8.731  21.623  0.00  0.00    +0.000 NA
ATOM     24  C   UNL     1       1.180   9.546  20.591  0.00  0.00    +0.000 A 
ATOM     25  C   UNL     1       1.678   9.065  19.395  0.00  0.00    +0.000 A 
ATOM     26  N   UNL     1       1.885   7.746  19.170  0.00  0.00    +0.000 NA
ENDBRANCH  17  21
ENDBRANCH   7  11
BRANCH   1  32
ATOM     27  F   UNL     1       6.416   0.504  10.732  0.00  0.00    +0.000 F 
ATOM     28  C   UNL     1       5.800   1.596  11.202  0.00  0.00    +0.000 A 
ATOM     29  C   UNL     1       4.614   2.013  10.615  0.00  0.00    +0.000 A 
ATOM     30  C   UNL     1       3.983   3.148  11.105  0.00  0.00    +0.000 A 
ATOM     31  C   UNL     1       4.551   3.854  12.174  0.00  0.00    +0.000 A 
ATOM     32  C   UNL     1       5.751   3.443  12.791  0.00  0.00    +0.000 A 
ATOM     33  C   UNL     1       6.366   2.290  12.272  0.00  0.00    +0.000 A 
ENDBRANCH   1  32
TORSDOF 3
ENDMDL
MODEL 6
REMARK VINA RESULT:      -8.2      3.277      5.924
REMARK  Name = 
REMARK  3 active torsions:
REMARK  status: ('A' for Active; 'I' for Inactive)
REMARK    1  A    between atoms: C_6  and  C_7
REMARK    2  A    between atoms: C_13  and  C_14
REMARK    3  A    between atoms: C_20  and  C_21
REMARK                            x       y       z     vdW  Elec       q    Type
REMARK                         _______ _______ _______ _____ _____    ______ ____
ROOT
ATOM      1  C   UNL     1       1.040   9.010  20.721  0.00  0.00    +0.000 A 
ATOM      2  C   UNL     1       1.395   9.194  22.062  0.00  0.00    +0.000 A 
ATOM      3  N   UNL     1       0.773  10.008  22.958  0.00  0.00    +0.000 NA
ATOM      4  C   UNL     1      -0.281  10.745  22.553  0.00  0.00    +0.000 A 
ATOM      5  C   UNL     1      -0.698  10.628  21.240  0.00  0.00    +0.000 A 
ATOM      6  N   UNL     1      -1.692  11.243  20.522  0.00  0.00    +0.000 N 
ATOM      7  C   UNL     1      -1.698  10.717  19.255  0.00  0.00    +0.000 A 
ATOM      8  N   UNL     1      -0.747   9.816  19.125  0.00  0.00    +0.000 NA
ATOM      9  C   UNL     1      -0.085   9.767  20.335  0.00  0.00    +0.000 A 
ATOM     10  H   UNL     1      -2.332  11.951  20.852  0.00  0.00    +0.000 HD
ENDROOT
BRANCH   7  11
ATOM     11  C   UNL     1      -2.652  11.119  18.179  0.00  0.00    +0.000 A 
ATOM     12  N   UNL     1      -2.359  11.001  16.873  0.00  0.00    +0.000 NA
ATOM     13  N   UNL     1      -3.465  11.441  16.256  0.00  0.00    +0.000 N 
ATOM     14  C   UNL     1      -4.444  11.879  17.103  0.00  0.00    +0.000 A 
ATOM     15  C   UNL     1      -5.698  12.430  16.886  0.00  0.00    +0.000 A 
ATOM     16  C   UNL     1      -6.397  12.778  18.042  0.00  0.00    +0.000 A 
ATOM     17  C   UNL     1      -5.850  12.556  19.316  0.00  0.00    +0.000 A 
ATOM     18  N   UNL     1      -4.624  11.992  19.513  0.00  0.00    +0.000 NA
ATOM     19  C   UNL     1      -3.943  11.673  18.380  0.00  0.00    +0.000 A 
ATOM     20  H   UNL     1      -3.481  11.425  15.242  0.00  0.00    +0.000 HD
BRANCH  17  21
ATOM     21  C   UNL     1      -6.604  12.920  20.538  0.00  0.00    +0.000 A 
ATOM     22  C   UNL     1      -7.255  14.145  20.688  0.00  0.00    +0.000 A 
ATOM     23  N   UNL     1      -7.917  14.514  21.815  0.00  0.00    +0.000 NA
ATOM     24  C   UNL     1      -7.916  13.601  22.808  0.00  0.00    +0.000 A 
ATOM     25  C   UNL     1      -7.293  12.374  22.678  0.00  0.00    +0.000 A 
ATOM     26  N   UNL     1      -6.631  12.009  21.554  0.00  0.00    +0.000 NA
ENDBRANCH  17  21
ENDBRANCH   7  11
BRANCH   1  32
ATOM     27  F   UNL     1       3.024   4.727  19.503  0.00  0.00    +0.000 F 
ATOM     28  C   UNL     1       2.759   5.999  19.177  0.00  0.00    +0.000 A 
ATOM     29  C   UNL     1       3.183   6.488  17.950  0.00  0.00    +0.000 A 
ATOM     30  C   UNL     1       2.908   7.807  17.620  0.00  0.00    +0.000 A 
ATOM     31  C   UNL     1       2.216   8.622  18.526  0.00  0.00    +0.000 A 
ATOM     32  C   UNL     1       1.768   8.143  19.774  0.00  0.00    +0.000 A 
ATOM     33  C   UNL     1       2.061   6.803  20.080  0.00  0.00    +0.000 A 
ENDBRANCH   1  32
TORSDOF 3
ENDMDL
MODEL 7
REMARK VINA RESULT:      -8.1      1.124      1.578
REMARK  Name = 
REMARK  3 active torsions:
REMARK  status: ('A' for Active; 'I' for Inactive)
REMARK    1  A    between atoms: C_6  and  C_7
REMARK    2  A    between atoms: C_13  and  C_14
REMARK    3  A    between atoms: C_20  and  C_21
REMARK                            x       y       z     vdW  Elec       q    Type
REMARK                         _______ _______ _______ _____ _____    ______ ____
ROOT
ATOM      1  C   UNL     1       3.220   5.010  18.970  0.00  0.00    +0.000 A 
ATOM      2  C   UNL     1       2.850   3.662  19.020  0.00  0.00    +0.000 A 
ATOM      3  N   UNL     1       1.789   3.140  19.695  0.00  0.00    +0.000 NA
ATOM      4  C   UNL     1       1.002   3.963  20.419  0.00  0.00    +0.000 A 
ATOM      5  C   UNL     1       1.299   5.313  20.428  0.00  0.00    +0.000 A 
ATOM      6  N   UNL     1       0.731   6.385  21.068  0.00  0.00    +0.000 N 
ATOM      7  C   UNL     1       1.402   7.520  20.689  0.00  0.00    +0.000 A 
ATOM      8  N   UNL     1       2.378   7.222  19.858  0.00  0.00    +0.000 NA
ATOM      9  C   UNL     1       2.361   5.851  19.707  0.00  0.00    +0.000 A 
ATOM     10  H   UNL     1      -0.056   6.369  21.701  0.00  0.00    +0.000 HD
ENDROOT
BRANCH   7  11
ATOM     11  C   UNL     1       1.066   8.896  21.160  0.00  0.00    +0.000 A 
ATOM     12  N   UNL     1       1.577   9.420  22.286  0.00  0.00    +0.000 NA
ATOM     13  N   UNL     1       1.052  10.653  22.335  0.00  0.00    +0.000 N 
ATOM     14  C   UNL     1       0.190  10.935  21.313  0.00  0.00    +0.000 A 
ATOM     15  C   UNL     1      -0.576  12.051  21.010  0.00  0.00    +0.000 A 
ATOM     16  C   UNL     1      -1.363  11.933  19.866  0.00  0.00    +0.000 A 
ATOM     17  C   UNL     1      -1.345  10.764  19.089  0.00  0.00    +0.000 A 
ATOM     18  N   UNL     1      -0.569   9.683  19.387  0.00  0.00    +0.000 NA
ATOM     19  C   UNL     1       0.182   9.801  20.515  0.00  0.00    +0.000 A 
ATOM     20  H   UNL     1       1.320  11.253  23.107  0.00  0.00    +0.000 HD
BRANCH  17  21
ATOM     21  C   UNL     1      -2.178  10.651  17.869  0.00  0.00    +0.000 A 
ATOM     22  C   UNL     1      -1.874   9.776  16.825  0.00  0.00    +0.000 A 
ATOM     23  N   UNL     1      -2.603   9.686  15.682  0.00  0.00    +0.000 NA
ATOM     24  C   UNL     1      -3.671  10.506  15.613  0.00  0.00    +0.000 A 
ATOM     25  C   UNL     1      -4.002  11.369  16.641  0.00  0.00    +0.000 A 
ATOM     26  N   UNL     1      -3.273  11.461  17.779  0.00  0.00    +0.000 NA
ENDBRANCH  17  21
ENDBRANCH   7  11
BRANCH   1  32
ATOM     27  F   UNL     1       5.299   7.031  15.052  0.00  0.00    +0.000 F 
ATOM     28  C   UNL     1       5.432   6.534  16.289  0.00  0.00    +0.000 A 
ATOM     29  C   UNL     1       6.687   6.504  16.878  0.00  0.00    +0.000 A 
ATOM     30  C   UNL     1       6.818   5.985  18.158  0.00  0.00    +0.000 A 
ATOM     31  C   UNL     1       5.689   5.497  18.830  0.00  0.00    +0.000 A 
ATOM     32  C   UNL     1       4.402   5.527  18.254  0.00  0.00    +0.000 A 
ATOM     33  C   UNL     1       4.302   6.059  16.956  0.00  0.00    +0.000 A 
ENDBRANCH   1  32
TORSDOF 3
ENDMDL
MODEL 8
REMARK VINA RESULT:      -8.1      4.261      7.286
REMARK  Name = 
REMARK  3 active torsions:
REMARK  status: ('A' for Active; 'I' for Inactive)
REMARK    1  A    between atoms: C_6  and  C_7
REMARK    2  A    between atoms: C_13  and  C_14
REMARK    3  A    between atoms: C_20  and  C_21
REMARK                            x       y       z     vdW  Elec       q    Type
REMARK                         _______ _______ _______ _____ _____    ______ ____
ROOT
ATOM      1  C   UNL     1       6.382   4.167  13.878  0.00  0.00    +0.000 A 
ATOM      2  C   UNL     1       7.452   5.061  13.767  0.00  0.00    +0.000 A 
ATOM      3  N   UNL     1       7.994   5.801  14.773  0.00  0.00    +0.000 NA
ATOM      4  C   UNL     1       7.467   5.710  16.012  0.00  0.00    +0.000 A 
ATOM      5  C   UNL     1       6.402   4.851  16.210  0.00  0.00    +0.000 A 
ATOM      6  N   UNL     1       5.639   4.555  17.311  0.00  0.00    +0.000 N 
ATOM      7  C   UNL     1       4.731   3.589  16.960  0.00  0.00    +0.000 A 
ATOM      8  N   UNL     1       4.864   3.271  15.690  0.00  0.00    +0.000 NA
ATOM      9  C   UNL     1       5.873   4.067  15.189  0.00  0.00    +0.000 A 
ATOM     10  H   UNL     1       5.723   4.956  18.235  0.00  0.00    +0.000 HD
ENDROOT
BRANCH   7  11
ATOM     11  C   UNL     1       3.733   2.990  17.895  0.00  0.00    +0.000 A 
ATOM     12  N   UNL     1       3.527   1.665  17.980  0.00  0.00    +0.000 NA
ATOM     13  N   UNL     1       2.588   1.546  18.930  0.00  0.00    +0.000 N 
ATOM     14  C   UNL     1       2.146   2.738  19.433  0.00  0.00    +0.000 A 
ATOM     15  C   UNL     1       1.185   3.060  20.380  0.00  0.00    +0.000 A 
ATOM     16  C   UNL     1       1.009   4.426  20.600  0.00  0.00    +0.000 A 
ATOM     17  C   UNL     1       1.777   5.377  19.911  0.00  0.00    +0.000 A 
ATOM     18  N   UNL     1       2.735   5.044  18.998  0.00  0.00    +0.000 NA
ATOM     19  C   UNL     1       2.886   3.710  18.778  0.00  0.00    +0.000 A 
ATOM     20  H   UNL     1       2.282   0.613  19.182  0.00  0.00    +0.000 HD
BRANCH  17  21
ATOM     21  C   UNL     1       1.589   6.826  20.158  0.00  0.00    +0.000 A 
ATOM     22  C   UNL     1       1.085   7.329  21.357  0.00  0.00    +0.000 A 
ATOM     23  N   UNL     1       0.868   8.650  21.588  0.00  0.00    +0.000 NA
ATOM     24  C   UNL     1       1.184   9.473  20.567  0.00  0.00    +0.000 A 
ATOM     25  C   UNL     1       1.701   9.000  19.376  0.00  0.00    +0.000 A 
ATOM     26  N   UNL     1       1.913   7.683  19.145  0.00  0.00    +0.000 NA
ENDBRANCH  17  21
ENDBRANCH   7  11
BRANCH   1  32
ATOM     27  F   UNL     1       2.861   3.430  10.588  0.00  0.00    +0.000 F 
ATOM     28  C   UNL     1       4.035   3.052  11.112  0.00  0.00    +0.000 A 
ATOM     29  C   UNL     1       4.687   1.945  10.589  0.00  0.00    +0.000 A 
ATOM     30  C   UNL     1       5.899   1.556  11.139  0.00  0.00    +0.000 A 
ATOM     31  C   UNL     1       6.443   2.279  12.209  0.00  0.00    +0.000 A 
ATOM     32  C   UNL     1       5.802   3.413  12.750  0.00  0.00    +0.000 A 
ATOM     33  C   UNL     1       4.574   3.782  12.172  0.00  0.00    +0.000 A 
ENDBRANCH   1  32
TORSDOF 3
ENDMDL
MODEL 9
REMARK VINA RESULT:      -8.1      3.581      8.644
REMARK  Name = 
REMARK  3 active torsions:
REMARK  status: ('A' for Active; 'I' for Inactive)
REMARK    1  A    between atoms: C_6  and  C_7
REMARK    2  A    between atoms: C_13  and  C_14
REMARK    3  A    between atoms: C_20  and  C_21
REMARK                            x       y       z     vdW  Elec       q    Type
REMARK                         _______ _______ _______ _____ _____    ______ ____
ROOT
ATOM      1  C   UNL     1       0.539  11.085  19.833  0.00  0.00    +0.000 A 
ATOM      2  C   UNL     1       0.897  12.102  18.943  0.00  0.00    +0.000 A 
ATOM      3  N   UNL     1       1.764  11.994  17.899  0.00  0.00    +0.000 NA
ATOM      4  C   UNL     1       2.377  10.813  17.675  0.00  0.00    +0.000 A 
ATOM      5  C   UNL     1       2.083   9.753  18.511  0.00  0.00    +0.000 A 
ATOM      6  N   UNL     1       2.544   8.462  18.572  0.00  0.00    +0.000 N 
ATOM      7  C   UNL     1       1.879   7.813  19.582  0.00  0.00    +0.000 A 
ATOM      8  N   UNL     1       1.036   8.630  20.177  0.00  0.00    +0.000 NA
ATOM      9  C   UNL     1       1.169   9.854  19.556  0.00  0.00    +0.000 A 
ATOM     10  H   UNL     1       3.241   8.036  17.978  0.00  0.00    +0.000 HD
ENDROOT
BRANCH   7  11
ATOM     11  C   UNL     1       2.091   6.382  19.948  0.00  0.00    +0.000 A 
ATOM     12  N   UNL     1       1.464   5.801  20.984  0.00  0.00    +0.000 NA
ATOM     13  N   UNL     1       1.904   4.534  20.957  0.00  0.00    +0.000 N 
ATOM     14  C   UNL     1       2.820   4.280  19.975  0.00  0.00    +0.000 A 
ATOM     15  C   UNL     1       3.534   3.144  19.626  0.00  0.00    +0.000 A 
ATOM     16  C   UNL     1       4.410   3.304  18.554  0.00  0.00    +0.000 A 
ATOM     17  C   UNL     1       4.524   4.534  17.887  0.00  0.00    +0.000 A 
ATOM     18  N   UNL     1       3.799   5.638  18.228  0.00  0.00    +0.000 NA
ATOM     19  C   UNL     1       2.960   5.476  19.286  0.00  0.00    +0.000 A 
ATOM     20  H   UNL     1       1.542   3.890  21.652  0.00  0.00    +0.000 HD
BRANCH  17  21
ATOM     21  C   UNL     1       5.452   4.693  16.742  0.00  0.00    +0.000 A 
ATOM     22  C   UNL     1       6.554   5.548  16.776  0.00  0.00    +0.000 A 
ATOM     23  N   UNL     1       7.393   5.738  15.725  0.00  0.00    +0.000 NA
ATOM     24  C   UNL     1       7.098   5.028  14.617  0.00  0.00    +0.000 A 
ATOM     25  C   UNL     1       6.022   4.161  14.565  0.00  0.00    +0.000 A 
ATOM     26  N   UNL     1       5.184   3.976  15.612  0.00  0.00    +0.000 NA
ENDBRANCH  17  21
ENDBRANCH   7  11
BRANCH   1  32
ATOM     27  F   UNL     1      -3.287  13.233  21.959  0.00  0.00    +0.000 F 
ATOM     28  C   UNL     1      -2.290  12.340  22.030  0.00  0.00    +0.000 A 
ATOM     29  C   UNL     1      -2.129  11.594  23.188  0.00  0.00    +0.000 A 
ATOM     30  C   UNL     1      -1.092  10.674  23.258  0.00  0.00    +0.000 A 
ATOM     31  C   UNL     1      -0.227  10.516  22.166  0.00  0.00    +0.000 A 
ATOM     32  C   UNL     1      -0.379  11.258  20.976  0.00  0.00    +0.000 A 
ATOM     33  C   UNL     1      -1.438  12.182  20.937  0.00  0.00    +0.000 A 
ENDBRANCH   1  32
TORSDOF 3
ENDMDL
