MODEL 1
REMARK VINA RESULT:      -6.6      0.000      0.000
REMARK  Name = 
REMARK  11 active torsions:
REMARK  status: ('A' for Active; 'I' for Inactive)
REMARK    1  A    between atoms: C_1  and  O_2
REMARK    2  A    between atoms: O_2  and  C_3
REMARK    3  A    between atoms: C_3  and  C_5
REMARK    4  A    between atoms: C_5  and  C_6
REMARK    5  A    between atoms: C_5  and  N_7
REMARK    6  A    between atoms: C_8  and  C_10
REMARK    7  A    between atoms: C_23  and  O_25
REMARK    8  A    between atoms: O_25  and  C_26
REMARK    9  A    between atoms: C_26  and  C_27
REMARK   10  A    between atoms: C_26  and  C_28
REMARK   11  A    between atoms: C_26  and  C_29
REMARK                            x       y       z     vdW  Elec       q    Type
REMARK                         _______ _______ _______ _____ _____    ______ ____
ROOT
ATOM      1  C   UNL     1       0.658  10.758  18.557  0.00  0.00    +0.000 C 
ATOM      2  C   UNL     1       1.857   9.864  18.141  0.00  0.00    +0.000 C 
ATOM      3  C   UNL     1       1.916   8.662  19.026  0.00  0.00    +0.000 A 
ATOM      4  C   UNL     1       1.342   8.676  20.278  0.00  0.00    +0.000 A 
ATOM      5  N   UNL     1       1.564   7.463  20.866  0.00  0.00    +0.000 N 
ATOM      6  C   UNL     1       2.223   6.634  19.987  0.00  0.00    +0.000 A 
ATOM      7  C   UNL     1       2.614   5.299  20.137  0.00  0.00    +0.000 A 
ATOM      8  C   UNL     1       3.255   4.688  19.056  0.00  0.00    +0.000 A 
ATOM      9  C   UNL     1       3.504   5.391  17.879  0.00  0.00    +0.000 A 
ATOM     10  C   UNL     1       3.119   6.731  17.749  0.00  0.00    +0.000 A 
ATOM     11  C   UNL     1       2.461   7.366  18.818  0.00  0.00    +0.000 A 
ATOM     12  C   UNL     1       0.588   9.781  20.908  0.00  0.00    +0.000 C 
ATOM     13  N   UNL     1       0.614  10.960  20.040  0.00  0.00    +0.000 N 
ATOM     14  C   UNL     1       0.445  12.177  20.668  0.00  0.00    +0.000 C 
ATOM     15  O   UNL     1       0.277  12.257  21.882  0.00  0.00    +0.000 OA
ATOM     16  H   UNL     1       1.266   7.192  21.794  0.00  0.00    +0.000 HD
ENDROOT
BRANCH   1  18
ATOM     17  N   UNL     1      -1.779  10.938  18.152  0.00  0.00    +0.000 N 
ATOM     18  C   UNL     1      -0.657  10.167  17.975  0.00  0.00    +0.000 C 
ATOM     19  O   UNL     1      -0.679   9.153  17.278  0.00  0.00    +0.000 OA
ATOM     20  H   UNL     1      -1.691  11.839  18.610  0.00  0.00    +0.000 HD
BRANCH  17  21
ATOM     21  C   UNL     1      -3.093  10.572  17.615  0.00  0.00    +0.000 C 
ATOM     22  C   UNL     1      -4.197  11.355  18.317  0.00  0.00    +0.000 C 
BRANCH  21  23
ATOM     23  C   UNL     1      -3.176  10.825  16.101  0.00  0.00    +0.000 C 
ATOM     24  O   UNL     1      -3.134  11.934  15.584  0.00  0.00    +0.000 OA
BRANCH  23  26
ATOM     25  C   UNL     1      -3.477   9.809  14.008  0.00  0.00    +0.000 C 
ATOM     26  O   UNL     1      -3.273   9.649  15.412  0.00  0.00    +0.000 OA
ENDBRANCH  23  26
ENDBRANCH  21  23
ENDBRANCH  17  21
ENDBRANCH   1  18
BRANCH  14  27
ATOM     27  O   UNL     1       0.458  13.251  19.832  0.00  0.00    +0.000 OA
BRANCH  27  28
ATOM     28  C   UNL     1       1.689  14.025  19.712  0.00  0.00    +0.000 C 
ATOM     29  C   UNL     1       2.275  13.940  18.294  0.00  0.00    +0.000 C 
ATOM     30  C   UNL     1       1.312  15.492  19.980  0.00  0.00    +0.000 C 
ATOM     31  C   UNL     1       2.709  13.610  20.783  0.00  0.00    +0.000 C 
ENDBRANCH  27  28
ENDBRANCH  14  27
TORSDOF 6
ENDMDL
MODEL 2
REMARK VINA RESULT:      -6.6      1.176      1.387
REMARK  Name = 
REMARK  11 active torsions:
REMARK  status: ('A' for Active; 'I' for Inactive)
REMARK    1  A    between atoms: C_1  and  O_2
REMARK    2  A    between atoms: O_2  and  C_3
REMARK    3  A    between atoms: C_3  and  C_5
REMARK    4  A    between atoms: C_5  and  C_6
REMARK    5  A    between atoms: C_5  and  N_7
REMARK    6  A    between atoms: C_8  and  C_10
REMARK    7  A    between atoms: C_23  and  O_25
REMARK    8  A    between atoms: O_25  and  C_26
REMARK    9  A    between atoms: C_26  and  C_27
REMARK   10  A    between atoms: C_26  and  C_28
REMARK   11  A    between atoms: C_26  and  C_29
REMARK                            x       y       z     vdW  Elec       q    Type
REMARK                         _______ _______ _______ _____ _____    ______ ____
ROOT
ATOM      1  C   UNL     1       0.305  11.682  18.898  0.00  0.00    +0.000 C 
ATOM      2  C   UNL     1       1.413  10.693  18.448  0.00  0.00    +0.000 C 
ATOM      3  C   UNL     1       1.416   9.501  19.347  0.00  0.00    +0.000 A 
ATOM      4  C   UNL     1       0.896   9.574  20.620  0.00  0.00    +0.000 A 
ATOM      5  N   UNL     1       1.047   8.354  21.217  0.00  0.00    +0.000 N 
ATOM      6  C   UNL     1       1.605   7.466  20.324  0.00  0.00    +0.000 A 
ATOM      7  C   UNL     1       1.897   6.106  20.478  0.00  0.00    +0.000 A 
ATOM      8  C   UNL     1       2.444   5.435  19.381  0.00  0.00    +0.000 A 
ATOM      9  C   UNL     1       2.699   6.103  18.186  0.00  0.00    +0.000 A 
ATOM     10  C   UNL     1       2.413   7.467  18.052  0.00  0.00    +0.000 A 
ATOM     11  C   UNL     1       1.850   8.164  19.137  0.00  0.00    +0.000 A 
ATOM     12  C   UNL     1       0.256  10.740  21.264  0.00  0.00    +0.000 C 
ATOM     13  N   UNL     1       0.337  11.904  20.379  0.00  0.00    +0.000 N 
ATOM     14  C   UNL     1       0.288  13.138  20.995  0.00  0.00    +0.000 C 
ATOM     15  O   UNL     1       0.177  13.244  22.214  0.00  0.00    +0.000 OA
ATOM     16  H   UNL     1       0.767   8.116  22.159  0.00  0.00    +0.000 HD
ENDROOT
BRANCH   1  18
ATOM     17  N   UNL     1      -1.030  10.370  17.277  0.00  0.00    +0.000 N 
ATOM     18  C   UNL     1      -1.074  11.189  18.378  0.00  0.00    +0.000 C 
ATOM     19  O   UNL     1      -2.125  11.393  18.985  0.00  0.00    +0.000 OA
ATOM     20  H   UNL     1      -0.129  10.110  16.891  0.00  0.00    +0.000 HD
BRANCH  17  21
ATOM     21  C   UNL     1      -2.226   9.759  16.689  0.00  0.00    +0.000 C 
ATOM     22  C   UNL     1      -3.319   9.597  17.740  0.00  0.00    +0.000 C 
BRANCH  21  23
ATOM     23  C   UNL     1      -2.770  10.593  15.518  0.00  0.00    +0.000 C 
ATOM     24  O   UNL     1      -3.208  11.731  15.625  0.00  0.00    +0.000 OA
BRANCH  23  26
ATOM     25  C   UNL     1      -3.850   9.953  13.535  0.00  0.00    +0.000 C 
ATOM     26  O   UNL     1      -2.672   9.906  14.340  0.00  0.00    +0.000 OA
ENDBRANCH  23  26
ENDBRANCH  21  23
ENDBRANCH  17  21
ENDBRANCH   1  18
BRANCH  14  27
ATOM     27  O   UNL     1       0.350  14.198  20.144  0.00  0.00    +0.000 OA
BRANCH  27  28
ATOM     28  C   UNL     1       1.560  15.014  20.135  0.00  0.00    +0.000 C 
ATOM     29  C   UNL     1       2.820  14.160  20.349  0.00  0.00    +0.000 C 
ATOM     30  C   UNL     1       1.651  15.647  18.736  0.00  0.00    +0.000 C 
ATOM     31  C   UNL     1       1.461  16.159  21.152  0.00  0.00    +0.000 C 
ENDBRANCH  27  28
ENDBRANCH  14  27
TORSDOF 6
ENDMDL
MODEL 3
REMARK VINA RESULT:      -6.6      3.936      5.331
REMARK  Name = 
REMARK  11 active torsions:
REMARK  status: ('A' for Active; 'I' for Inactive)
REMARK    1  A    between atoms: C_1  and  O_2
REMARK    2  A    between atoms: O_2  and  C_3
REMARK    3  A    between atoms: C_3  and  C_5
REMARK    4  A    between atoms: C_5  and  C_6
REMARK    5  A    between atoms: C_5  and  N_7
REMARK    6  A    between atoms: C_8  and  C_10
REMARK    7  A    between atoms: C_23  and  O_25
REMARK    8  A    between atoms: O_25  and  C_26
REMARK    9  A    between atoms: C_26  and  C_27
REMARK   10  A    between atoms: C_26  and  C_28
REMARK   11  A    between atoms: C_26  and  C_29
REMARK                            x       y       z     vdW  Elec       q    Type
REMARK                         _______ _______ _______ _____ _____    ______ ____
ROOT
ATOM      1  C   UNL     1      -2.964  13.609  21.368  0.00  0.00    +0.000 C 
ATOM      2  C   UNL     1      -1.602  13.175  20.763  0.00  0.00    +0.000 C 
ATOM      3  C   UNL     1      -1.149  11.905  21.406  0.00  0.00    +0.000 A 
ATOM      4  C   UNL     1      -1.608  11.542  22.653  0.00  0.00    +0.000 A 
ATOM      5  N   UNL     1      -1.021  10.358  22.998  0.00  0.00    +0.000 N 
ATOM      6  C   UNL     1      -0.229   9.912  21.964  0.00  0.00    +0.000 A 
ATOM      7  C   UNL     1       0.521   8.736  21.852  0.00  0.00    +0.000 A 
ATOM      8  C   UNL     1       1.219   8.526  20.660  0.00  0.00    +0.000 A 
ATOM      9  C   UNL     1       1.177   9.462  19.629  0.00  0.00    +0.000 A 
ATOM     10  C   UNL     1       0.433  10.641  19.761  0.00  0.00    +0.000 A 
ATOM     11  C   UNL     1      -0.290  10.871  20.947  0.00  0.00    +0.000 A 
ATOM     12  C   UNL     1      -2.585  12.263  23.496  0.00  0.00    +0.000 C 
ATOM     13  N   UNL     1      -2.947  13.532  22.863  0.00  0.00    +0.000 N 
ATOM     14  C   UNL     1      -3.393  14.526  23.712  0.00  0.00    +0.000 C 
ATOM     15  O   UNL     1      -3.482  14.345  24.923  0.00  0.00    +0.000 OA
ATOM     16  H   UNL     1      -1.161   9.858  23.866  0.00  0.00    +0.000 HD
ENDROOT
BRANCH   1  18
ATOM     17  N   UNL     1      -3.961  12.519  19.381  0.00  0.00    +0.000 N 
ATOM     18  C   UNL     1      -4.108  12.782  20.720  0.00  0.00    +0.000 C 
ATOM     19  O   UNL     1      -5.013  12.269  21.378  0.00  0.00    +0.000 OA
ATOM     20  H   UNL     1      -3.125  12.841  18.904  0.00  0.00    +0.000 HD
BRANCH  17  21
ATOM     21  C   UNL     1      -4.908  11.700  18.619  0.00  0.00    +0.000 C 
ATOM     22  C   UNL     1      -5.924  12.581  17.900  0.00  0.00    +0.000 C 
BRANCH  21  23
ATOM     23  C   UNL     1      -4.189  10.814  17.589  0.00  0.00    +0.000 C 
ATOM     24  O   UNL     1      -3.634   9.756  17.856  0.00  0.00    +0.000 OA
BRANCH  23  26
ATOM     25  C   UNL     1      -3.265  10.903  15.434  0.00  0.00    +0.000 C 
ATOM     26  O   UNL     1      -4.279  11.349  16.334  0.00  0.00    +0.000 OA
ENDBRANCH  23  26
ENDBRANCH  21  23
ENDBRANCH  17  21
ENDBRANCH   1  18
BRANCH  14  27
ATOM     27  O   UNL     1      -3.737  15.687  23.091  0.00  0.00    +0.000 OA
BRANCH  27  28
ATOM     28  C   UNL     1      -5.080  16.216  23.299  0.00  0.00    +0.000 C 
ATOM     29  C   UNL     1      -5.185  16.991  24.621  0.00  0.00    +0.000 C 
ATOM     30  C   UNL     1      -5.344  17.205  22.150  0.00  0.00    +0.000 C 
ATOM     31  C   UNL     1      -6.134  15.104  23.198  0.00  0.00    +0.000 C 
ENDBRANCH  27  28
ENDBRANCH  14  27
TORSDOF 6
ENDMDL
MODEL 4
REMARK VINA RESULT:      -6.5      1.278      1.947
REMARK  Name = 
REMARK  11 active torsions:
REMARK  status: ('A' for Active; 'I' for Inactive)
REMARK    1  A    between atoms: C_1  and  O_2
REMARK    2  A    between atoms: O_2  and  C_3
REMARK    3  A    between atoms: C_3  and  C_5
REMARK    4  A    between atoms: C_5  and  C_6
REMARK    5  A    between atoms: C_5  and  N_7
REMARK    6  A    between atoms: C_8  and  C_10
REMARK    7  A    between atoms: C_23  and  O_25
REMARK    8  A    between atoms: O_25  and  C_26
REMARK    9  A    between atoms: C_26  and  C_27
REMARK   10  A    between atoms: C_26  and  C_28
REMARK   11  A    between atoms: C_26  and  C_29
REMARK                            x       y       z     vdW  Elec       q    Type
REMARK                         _______ _______ _______ _____ _____    ______ ____
ROOT
ATOM      1  C   UNL     1       0.377  11.135  18.886  0.00  0.00    +0.000 C 
ATOM      2  C   UNL     1       1.661  10.392  18.429  0.00  0.00    +0.000 C 
ATOM      3  C   UNL     1       1.768   9.088  19.148  0.00  0.00    +0.000 A 
ATOM      4  C   UNL     1       1.132   8.891  20.355  0.00  0.00    +0.000 A 
ATOM      5  N   UNL     1       1.416   7.627  20.789  0.00  0.00    +0.000 N 
ATOM      6  C   UNL     1       2.181   6.974  19.849  0.00  0.00    +0.000 A 
ATOM      7  C   UNL     1       2.666   5.661  19.844  0.00  0.00    +0.000 A 
ATOM      8  C   UNL     1       3.405   5.250  18.733  0.00  0.00    +0.000 A 
ATOM      9  C   UNL     1       3.659   6.122  17.677  0.00  0.00    +0.000 A 
ATOM     10  C   UNL     1       3.179   7.438  17.702  0.00  0.00    +0.000 A 
ATOM     11  C   UNL     1       2.420   7.874  18.805  0.00  0.00    +0.000 A 
ATOM     12  C   UNL     1       0.264   9.844  21.079  0.00  0.00    +0.000 C 
ATOM     13  N   UNL     1       0.243  11.129  20.378  0.00  0.00    +0.000 N 
ATOM     14  C   UNL     1      -0.051  12.234  21.151  0.00  0.00    +0.000 C 
ATOM     15  O   UNL     1      -0.285  12.136  22.352  0.00  0.00    +0.000 OA
ATOM     16  H   UNL     1       1.094   7.211  21.653  0.00  0.00    +0.000 HD
ENDROOT
BRANCH   1  18
ATOM     17  N   UNL     1      -2.036  11.220  18.336  0.00  0.00    +0.000 N 
ATOM     18  C   UNL     1      -0.857  10.540  18.153  0.00  0.00    +0.000 C 
ATOM     19  O   UNL     1      -0.769   9.613  17.349  0.00  0.00    +0.000 OA
ATOM     20  H   UNL     1      -2.036  12.066  18.895  0.00  0.00    +0.000 HD
BRANCH  17  21
ATOM     21  C   UNL     1      -3.287  10.841  17.671  0.00  0.00    +0.000 C 
ATOM     22  C   UNL     1      -3.683   9.416  18.043  0.00  0.00    +0.000 C 
BRANCH  21  23
ATOM     23  C   UNL     1      -4.434  11.797  18.037  0.00  0.00    +0.000 C 
ATOM     24  O   UNL     1      -5.330  12.126  17.270  0.00  0.00    +0.000 OA
BRANCH  23  26
ATOM     25  C   UNL     1      -5.579  12.221  20.041  0.00  0.00    +0.000 C 
ATOM     26  O   UNL     1      -4.336  12.204  19.338  0.00  0.00    +0.000 OA
ENDBRANCH  23  26
ENDBRANCH  21  23
ENDBRANCH  17  21
ENDBRANCH   1  18
BRANCH  14  27
ATOM     27  O   UNL     1      -0.078  13.411  20.467  0.00  0.00    +0.000 OA
BRANCH  27  28
ATOM     28  C   UNL     1       1.028  14.345  20.645  0.00  0.00    +0.000 C 
ATOM     29  C   UNL     1       2.370  13.611  20.795  0.00  0.00    +0.000 C 
ATOM     30  C   UNL     1       1.095  15.194  19.363  0.00  0.00    +0.000 C 
ATOM     31  C   UNL     1       0.760  15.302  21.815  0.00  0.00    +0.000 C 
ENDBRANCH  27  28
ENDBRANCH  14  27
TORSDOF 6
ENDMDL
MODEL 5
REMARK VINA RESULT:      -6.5      4.212      7.996
REMARK  Name = 
REMARK  11 active torsions:
REMARK  status: ('A' for Active; 'I' for Inactive)
REMARK    1  A    between atoms: C_1  and  O_2
REMARK    2  A    between atoms: O_2  and  C_3
REMARK    3  A    between atoms: C_3  and  C_5
REMARK    4  A    between atoms: C_5  and  C_6
REMARK    5  A    between atoms: C_5  and  N_7
REMARK    6  A    between atoms: C_8  and  C_10
REMARK    7  A    between atoms: C_23  and  O_25
REMARK    8  A    between atoms: O_25  and  C_26
REMARK    9  A    between atoms: C_26  and  C_27
REMARK   10  A    between atoms: C_26  and  C_28
REMARK   11  A    between atoms: C_26  and  C_29
REMARK                            x       y       z     vdW  Elec       q    Type
REMARK                         _______ _______ _______ _____ _____    ______ ____
ROOT
ATOM      1  C   UNL     1       4.489   5.538  16.712  0.00  0.00    +0.000 C 
ATOM      2  C   UNL     1       3.324   4.567  17.043  0.00  0.00    +0.000 C 
ATOM      3  C   UNL     1       3.517   4.000  18.411  0.00  0.00    +0.000 A 
ATOM      4  C   UNL     1       4.767   3.955  18.988  0.00  0.00    +0.000 A 
ATOM      5  N   UNL     1       4.651   3.376  20.220  0.00  0.00    +0.000 N 
ATOM      6  C   UNL     1       3.329   3.098  20.480  0.00  0.00    +0.000 A 
ATOM      7  C   UNL     1       2.737   2.551  21.624  0.00  0.00    +0.000 A 
ATOM      8  C   UNL     1       1.348   2.401  21.624  0.00  0.00    +0.000 A 
ATOM      9  C   UNL     1       0.586   2.773  20.518  0.00  0.00    +0.000 A 
ATOM     10  C   UNL     1       1.194   3.306  19.375  0.00  0.00    +0.000 A 
ATOM     11  C   UNL     1       2.591   3.480  19.354  0.00  0.00    +0.000 A 
ATOM     12  C   UNL     1       6.037   4.456  18.421  0.00  0.00    +0.000 C 
ATOM     13  N   UNL     1       5.816   4.936  17.055  0.00  0.00    +0.000 N 
ATOM     14  C   UNL     1       6.920   4.928  16.226  0.00  0.00    +0.000 C 
ATOM     15  O   UNL     1       8.018   4.545  16.619  0.00  0.00    +0.000 OA
ATOM     16  H   UNL     1       5.410   3.201  20.866  0.00  0.00    +0.000 HD
ENDROOT
BRANCH   1  18
ATOM     17  N   UNL     1       2.962   7.103  17.874  0.00  0.00    +0.000 N 
ATOM     18  C   UNL     1       4.235   6.908  17.400  0.00  0.00    +0.000 C 
ATOM     19  O   UNL     1       5.138   7.709  17.639  0.00  0.00    +0.000 OA
ATOM     20  H   UNL     1       2.282   6.356  17.783  0.00  0.00    +0.000 HD
BRANCH  17  21
ATOM     21  C   UNL     1       2.559   8.307  18.607  0.00  0.00    +0.000 C 
ATOM     22  C   UNL     1       1.661   9.187  17.743  0.00  0.00    +0.000 C 
BRANCH  21  23
ATOM     23  C   UNL     1       1.821   7.957  19.909  0.00  0.00    +0.000 C 
ATOM     24  O   UNL     1       1.848   6.855  20.443  0.00  0.00    +0.000 OA
BRANCH  23  26
ATOM     25  C   UNL     1       1.175   9.139  21.830  0.00  0.00    +0.000 C 
ATOM     26  O   UNL     1       1.159   9.044  20.406  0.00  0.00    +0.000 OA
ENDBRANCH  23  26
ENDBRANCH  21  23
ENDBRANCH  17  21
ENDBRANCH   1  18
BRANCH  14  27
ATOM     27  O   UNL     1       6.685   5.396  14.969  0.00  0.00    +0.000 OA
BRANCH  27  28
ATOM     28  C   UNL     1       6.386   4.434  13.913  0.00  0.00    +0.000 C 
ATOM     29  C   UNL     1       6.141   3.027  14.482  0.00  0.00    +0.000 C 
ATOM     30  C   UNL     1       5.083   4.907  13.246  0.00  0.00    +0.000 C 
ATOM     31  C   UNL     1       7.481   4.437  12.836  0.00  0.00    +0.000 C 
ENDBRANCH  27  28
ENDBRANCH  14  27
TORSDOF 6
ENDMDL
MODEL 6
REMARK VINA RESULT:      -6.4      3.476      4.832
REMARK  Name = 
REMARK  11 active torsions:
REMARK  status: ('A' for Active; 'I' for Inactive)
REMARK    1  A    between atoms: C_1  and  O_2
REMARK    2  A    between atoms: O_2  and  C_3
REMARK    3  A    between atoms: C_3  and  C_5
REMARK    4  A    between atoms: C_5  and  C_6
REMARK    5  A    between atoms: C_5  and  N_7
REMARK    6  A    between atoms: C_8  and  C_10
REMARK    7  A    between atoms: C_23  and  O_25
REMARK    8  A    between atoms: O_25  and  C_26
REMARK    9  A    between atoms: C_26  and  C_27
REMARK   10  A    between atoms: C_26  and  C_28
REMARK   11  A    between atoms: C_26  and  C_29
REMARK                            x       y       z     vdW  Elec       q    Type
REMARK                         _______ _______ _______ _____ _____    ______ ____
ROOT
ATOM      1  C   UNL     1      -2.903  13.606  21.179  0.00  0.00    +0.000 C 
ATOM      2  C   UNL     1      -1.527  13.097  20.670  0.00  0.00    +0.000 C 
ATOM      3  C   UNL     1      -1.133  11.872  21.428  0.00  0.00    +0.000 A 
ATOM      4  C   UNL     1      -1.654  11.616  22.677  0.00  0.00    +0.000 A 
ATOM      5  N   UNL     1      -1.110  10.451  23.138  0.00  0.00    +0.000 N 
ATOM      6  C   UNL     1      -0.286   9.910  22.178  0.00  0.00    +0.000 A 
ATOM      7  C   UNL     1       0.439   8.714  22.190  0.00  0.00    +0.000 A 
ATOM      8  C   UNL     1       1.183   8.397  21.050  0.00  0.00    +0.000 A 
ATOM      9  C   UNL     1       1.208   9.251  19.949  0.00  0.00    +0.000 A 
ATOM     10  C   UNL     1       0.487  10.452  19.957  0.00  0.00    +0.000 A 
ATOM     11  C   UNL     1      -0.280  10.788  21.088  0.00  0.00    +0.000 A 
ATOM     12  C   UNL     1      -2.648  12.421  23.419  0.00  0.00    +0.000 C 
ATOM     13  N   UNL     1      -2.952  13.644  22.675  0.00  0.00    +0.000 N 
ATOM     14  C   UNL     1      -3.410  14.710  23.424  0.00  0.00    +0.000 C 
ATOM     15  O   UNL     1      -3.555  14.625  24.641  0.00  0.00    +0.000 OA
ATOM     16  H   UNL     1      -1.300  10.022  24.035  0.00  0.00    +0.000 HD
ENDROOT
BRANCH   1  18
ATOM     17  N   UNL     1      -3.860  12.422  19.226  0.00  0.00    +0.000 N 
ATOM     18  C   UNL     1      -4.038  12.754  20.546  0.00  0.00    +0.000 C 
ATOM     19  O   UNL     1      -4.963  12.283  21.207  0.00  0.00    +0.000 OA
ATOM     20  H   UNL     1      -3.010  12.712  18.754  0.00  0.00    +0.000 HD
BRANCH  17  21
ATOM     21  C   UNL     1      -4.795  11.571  18.483  0.00  0.00    +0.000 C 
ATOM     22  C   UNL     1      -5.827  12.420  17.749  0.00  0.00    +0.000 C 
BRANCH  21  23
ATOM     23  C   UNL     1      -4.064  10.676  17.471  0.00  0.00    +0.000 C 
ATOM     24  O   UNL     1      -3.401   9.691  17.772  0.00  0.00    +0.000 OA
BRANCH  23  26
ATOM     25  C   UNL     1      -3.209  10.817  15.290  0.00  0.00    +0.000 C 
ATOM     26  O   UNL     1      -4.277  11.107  16.192  0.00  0.00    +0.000 OA
ENDBRANCH  23  26
ENDBRANCH  21  23
ENDBRANCH  17  21
ENDBRANCH   1  18
BRANCH  14  27
ATOM     27  O   UNL     1      -3.698  15.826  22.701  0.00  0.00    +0.000 OA
BRANCH  27  28
ATOM     28  C   UNL     1      -2.797  16.970  22.797  0.00  0.00    +0.000 C 
ATOM     29  C   UNL     1      -1.340  16.526  23.003  0.00  0.00    +0.000 C 
ATOM     30  C   UNL     1      -2.880  17.707  21.449  0.00  0.00    +0.000 C 
ATOM     31  C   UNL     1      -3.261  17.949  23.885  0.00  0.00    +0.000 C 
ENDBRANCH  27  28
ENDBRANCH  14  27
TORSDOF 6
ENDMDL
MODEL 7
REMARK VINA RESULT:      -6.4      1.208      1.540
REMARK  Name = 
REMARK  11 active torsions:
REMARK  status: ('A' for Active; 'I' for Inactive)
REMARK    1  A    between atoms: C_1  and  O_2
REMARK    2  A    between atoms: O_2  and  C_3
REMARK    3  A    between atoms: C_3  and  C_5
REMARK    4  A    between atoms: C_5  and  C_6
REMARK    5  A    between atoms: C_5  and  N_7
REMARK    6  A    between atoms: C_8  and  C_10
REMARK    7  A    between atoms: C_23  and  O_25
REMARK    8  A    between atoms: O_25  and  C_26
REMARK    9  A    between atoms: C_26  and  C_27
REMARK   10  A    between atoms: C_26  and  C_28
REMARK   11  A    between atoms: C_26  and  C_29
REMARK                            x       y       z     vdW  Elec       q    Type
REMARK                         _______ _______ _______ _____ _____    ______ ____
ROOT
ATOM      1  C   UNL     1      -0.413  11.545  19.057  0.00  0.00    +0.000 C 
ATOM      2  C   UNL     1       0.816  10.775  18.504  0.00  0.00    +0.000 C 
ATOM      3  C   UNL     1       1.105   9.598  19.376  0.00  0.00    +0.000 A 
ATOM      4  C   UNL     1       0.685   9.570  20.688  0.00  0.00    +0.000 A 
ATOM      5  N   UNL     1       1.100   8.394  21.247  0.00  0.00    +0.000 N 
ATOM      6  C   UNL     1       1.735   7.627  20.297  0.00  0.00    +0.000 A 
ATOM      7  C   UNL     1       2.278   6.342  20.401  0.00  0.00    +0.000 A 
ATOM      8  C   UNL     1       2.848   5.786  19.252  0.00  0.00    +0.000 A 
ATOM      9  C   UNL     1       2.881   6.494  18.053  0.00  0.00    +0.000 A 
ATOM     10  C   UNL     1       2.345   7.785  17.968  0.00  0.00    +0.000 A 
ATOM     11  C   UNL     1       1.754   8.363  19.107  0.00  0.00    +0.000 A 
ATOM     12  C   UNL     1      -0.102  10.598  21.401  0.00  0.00    +0.000 C 
ATOM     13  N   UNL     1      -0.303  11.761  20.535  0.00  0.00    +0.000 N 
ATOM     14  C   UNL     1      -0.523  12.963  21.177  0.00  0.00    +0.000 C 
ATOM     15  O   UNL     1      -0.554  13.041  22.403  0.00  0.00    +0.000 OA
ATOM     16  H   UNL     1       0.944   8.106  22.203  0.00  0.00    +0.000 HD
ENDROOT
BRANCH   1  18
ATOM     17  N   UNL     1      -2.866  11.560  18.719  0.00  0.00    +0.000 N 
ATOM     18  C   UNL     1      -1.718  10.813  18.637  0.00  0.00    +0.000 C 
ATOM     19  O   UNL     1      -1.717   9.692  18.128  0.00  0.00    +0.000 OA
ATOM     20  H   UNL     1      -2.804  12.530  19.009  0.00  0.00    +0.000 HD
BRANCH  17  21
ATOM     21  C   UNL     1      -4.179  11.056  18.303  0.00  0.00    +0.000 C 
ATOM     22  C   UNL     1      -5.288  11.703  19.126  0.00  0.00    +0.000 C 
BRANCH  21  23
ATOM     23  C   UNL     1      -4.438  11.317  16.810  0.00  0.00    +0.000 C 
ATOM     24  O   UNL     1      -4.958  12.333  16.367  0.00  0.00    +0.000 OA
BRANCH  23  26
ATOM     25  C   UNL     1      -3.120  10.671  14.980  0.00  0.00    +0.000 C 
ATOM     26  O   UNL     1      -3.985  10.279  16.045  0.00  0.00    +0.000 OA
ENDBRANCH  23  26
ENDBRANCH  21  23
ENDBRANCH  17  21
ENDBRANCH   1  18
BRANCH  14  27
ATOM     27  O   UNL     1      -0.722  14.021  20.344  0.00  0.00    +0.000 OA
BRANCH  27  28
ATOM     28  C   UNL     1       0.339  15.014  20.216  0.00  0.00    +0.000 C 
ATOM     29  C   UNL     1       1.731  14.370  20.309  0.00  0.00    +0.000 C 
ATOM     30  C   UNL     1       0.197  15.628  18.812  0.00  0.00    +0.000 C 
ATOM     31  C   UNL     1       0.160  16.149  21.234  0.00  0.00    +0.000 C 
ENDBRANCH  27  28
ENDBRANCH  14  27
TORSDOF 6
ENDMDL
MODEL 8
REMARK VINA RESULT:      -6.4      3.923      8.486
REMARK  Name = 
REMARK  11 active torsions:
REMARK  status: ('A' for Active; 'I' for Inactive)
REMARK    1  A    between atoms: C_1  and  O_2
REMARK    2  A    between atoms: O_2  and  C_3
REMARK    3  A    between atoms: C_3  and  C_5
REMARK    4  A    between atoms: C_5  and  C_6
REMARK    5  A    between atoms: C_5  and  N_7
REMARK    6  A    between atoms: C_8  and  C_10
REMARK    7  A    between atoms: C_23  and  O_25
REMARK    8  A    between atoms: O_25  and  C_26
REMARK    9  A    between atoms: C_26  and  C_27
REMARK   10  A    between atoms: C_26  and  C_28
REMARK   11  A    between atoms: C_26  and  C_29
REMARK                            x       y       z     vdW  Elec       q    Type
REMARK                         _______ _______ _______ _____ _____    ______ ____
ROOT
ATOM      1  C   UNL     1       2.647   6.228  18.171  0.00  0.00    +0.000 C 
ATOM      2  C   UNL     1       1.663   7.380  17.836  0.00  0.00    +0.000 C 
ATOM      3  C   UNL     1       1.491   8.257  19.032  0.00  0.00    +0.000 A 
ATOM      4  C   UNL     1       1.742   7.781  20.300  0.00  0.00    +0.000 A 
ATOM      5  N   UNL     1       1.487   8.782  21.193  0.00  0.00    +0.000 N 
ATOM      6  C   UNL     1       1.130   9.928  20.519  0.00  0.00    +0.000 A 
ATOM      7  C   UNL     1       0.827  11.201  21.013  0.00  0.00    +0.000 A 
ATOM      8  C   UNL     1       0.519  12.199  20.084  0.00  0.00    +0.000 A 
ATOM      9  C   UNL     1       0.505  11.926  18.718  0.00  0.00    +0.000 A 
ATOM     10  C   UNL     1       0.797  10.644  18.239  0.00  0.00    +0.000 A 
ATOM     11  C   UNL     1       1.122   9.624  19.153  0.00  0.00    +0.000 A 
ATOM     12  C   UNL     1       2.228   6.436  20.675  0.00  0.00    +0.000 C 
ATOM     13  N   UNL     1       2.314   5.589  19.484  0.00  0.00    +0.000 N 
ATOM     14  C   UNL     1       2.225   4.228  19.702  0.00  0.00    +0.000 C 
ATOM     15  O   UNL     1       2.087   3.765  20.831  0.00  0.00    +0.000 OA
ATOM     16  H   UNL     1       1.573   8.715  22.199  0.00  0.00    +0.000 HD
ENDROOT
BRANCH   1  18
ATOM     17  N   UNL     1       5.085   5.802  18.248  0.00  0.00    +0.000 N 
ATOM     18  C   UNL     1       4.108   6.753  18.094  0.00  0.00    +0.000 C 
ATOM     19  O   UNL     1       4.383   7.909  17.773  0.00  0.00    +0.000 OA
ATOM     20  H   UNL     1       4.815   4.832  18.370  0.00  0.00    +0.000 HD
BRANCH  17  21
ATOM     21  C   UNL     1       6.517   6.103  18.141  0.00  0.00    +0.000 C 
ATOM     22  C   UNL     1       7.246   5.708  19.421  0.00  0.00    +0.000 C 
BRANCH  21  23
ATOM     23  C   UNL     1       7.159   5.377  16.948  0.00  0.00    +0.000 C 
ATOM     24  O   UNL     1       7.961   4.457  17.049  0.00  0.00    +0.000 OA
BRANCH  23  26
ATOM     25  C   UNL     1       6.588   4.906  14.721  0.00  0.00    +0.000 C 
ATOM     26  O   UNL     1       6.695   5.876  15.763  0.00  0.00    +0.000 OA
ENDBRANCH  23  26
ENDBRANCH  21  23
ENDBRANCH  17  21
ENDBRANCH   1  18
BRANCH  14  27
ATOM     27  O   UNL     1       2.325   3.468  18.577  0.00  0.00    +0.000 OA
BRANCH  27  28
ATOM     28  C   UNL     1       3.563   2.732  18.342  0.00  0.00    +0.000 C 
ATOM     29  C   UNL     1       4.584   2.970  19.465  0.00  0.00    +0.000 C 
ATOM     30  C   UNL     1       3.192   1.239  18.348  0.00  0.00    +0.000 C 
ATOM     31  C   UNL     1       4.143   3.055  16.958  0.00  0.00    +0.000 C 
ENDBRANCH  27  28
ENDBRANCH  14  27
TORSDOF 6
ENDMDL
MODEL 9
REMARK VINA RESULT:      -6.4      3.958      5.499
REMARK  Name = 
REMARK  11 active torsions:
REMARK  status: ('A' for Active; 'I' for Inactive)
REMARK    1  A    between atoms: C_1  and  O_2
REMARK    2  A    between atoms: O_2  and  C_3
REMARK    3  A    between atoms: C_3  and  C_5
REMARK    4  A    between atoms: C_5  and  C_6
REMARK    5  A    between atoms: C_5  and  N_7
REMARK    6  A    between atoms: C_8  and  C_10
REMARK    7  A    between atoms: C_23  and  O_25
REMARK    8  A    between atoms: O_25  and  C_26
REMARK    9  A    between atoms: C_26  and  C_27
REMARK   10  A    between atoms: C_26  and  C_28
REMARK   11  A    between atoms: C_26  and  C_29
REMARK                            x       y       z     vdW  Elec       q    Type
REMARK                         _______ _______ _______ _____ _____    ______ ____
ROOT
ATOM      1  C   UNL     1      -3.190  13.711  21.212  0.00  0.00    +0.000 C 
ATOM      2  C   UNL     1      -1.805  13.238  20.695  0.00  0.00    +0.000 C 
ATOM      3  C   UNL     1      -1.359  12.046  21.476  0.00  0.00    +0.000 A 
ATOM      4  C   UNL     1      -1.853  11.803  22.739  0.00  0.00    +0.000 A 
ATOM      5  N   UNL     1      -1.263  10.668  23.220  0.00  0.00    +0.000 N 
ATOM      6  C   UNL     1      -0.434  10.132  22.260  0.00  0.00    +0.000 A 
ATOM      7  C   UNL     1       0.332   8.962  22.291  0.00  0.00    +0.000 A 
ATOM      8  C   UNL     1       1.070   8.643  21.148  0.00  0.00    +0.000 A 
ATOM      9  C   UNL     1       1.050   9.470  20.027  0.00  0.00    +0.000 A 
ATOM     10  C   UNL     1       0.288  10.645  20.017  0.00  0.00    +0.000 A 
ATOM     11  C   UNL     1      -0.474  10.983  21.150  0.00  0.00    +0.000 A 
ATOM     12  C   UNL     1      -2.863  12.591  23.476  0.00  0.00    +0.000 C 
ATOM     13  N   UNL     1      -3.220  13.785  22.707  0.00  0.00    +0.000 N 
ATOM     14  C   UNL     1      -3.704  14.852  23.437  0.00  0.00    +0.000 C 
ATOM     15  O   UNL     1      -3.829  14.793  24.658  0.00  0.00    +0.000 OA
ATOM     16  H   UNL     1      -1.425  10.256  24.129  0.00  0.00    +0.000 HD
ENDROOT
BRANCH   1  18
ATOM     17  N   UNL     1      -4.208  12.562  19.269  0.00  0.00    +0.000 N 
ATOM     18  C   UNL     1      -4.304  12.806  20.617  0.00  0.00    +0.000 C 
ATOM     19  O   UNL     1      -5.135  12.226  21.316  0.00  0.00    +0.000 OA
ATOM     20  H   UNL     1      -3.424  12.945  18.753  0.00  0.00    +0.000 HD
BRANCH  17  21
ATOM     21  C   UNL     1      -5.132  11.679  18.550  0.00  0.00    +0.000 C 
ATOM     22  C   UNL     1      -6.318  12.470  18.009  0.00  0.00    +0.000 C 
BRANCH  21  23
ATOM     23  C   UNL     1      -4.434  10.955  17.387  0.00  0.00    +0.000 C 
ATOM     24  O   UNL     1      -4.503  11.303  16.216  0.00  0.00    +0.000 OA
BRANCH  23  26
ATOM     25  C   UNL     1      -2.342   9.893  17.413  0.00  0.00    +0.000 C 
ATOM     26  O   UNL     1      -3.704   9.892  17.840  0.00  0.00    +0.000 OA
ENDBRANCH  23  26
ENDBRANCH  21  23
ENDBRANCH  17  21
ENDBRANCH   1  18
BRANCH  14  27
ATOM     27  O   UNL     1      -4.041  15.940  22.692  0.00  0.00    +0.000 OA
BRANCH  27  28
ATOM     28  C   UNL     1      -5.455  16.231  22.486  0.00  0.00    +0.000 C 
ATOM     29  C   UNL     1      -6.347  15.082  22.981  0.00  0.00    +0.000 C 
ATOM     30  C   UNL     1      -5.774  17.475  23.333  0.00  0.00    +0.000 C 
ATOM     31  C   UNL     1      -5.738  16.589  21.020  0.00  0.00    +0.000 C 
ENDBRANCH  27  28
ENDBRANCH  14  27
TORSDOF 6
ENDMDL
