MODEL 1
REMARK VINA RESULT:      -6.2      0.000      0.000
REMARK  Name = 
REMARK  3 active torsions:
REMARK  status: ('A' for Active; 'I' for Inactive)
REMARK    1  A    between atoms: C_1  and  C_2
REMARK    2  A    between atoms: C_4  and  C_5
REMARK    3  A    between atoms: C_5  and  N_6
REMARK                            x       y       z     vdW  Elec       q    Type
REMARK                         _______ _______ _______ _____ _____    ______ ____
ROOT
ATOM      1  N   UNL     1       0.630  14.258  20.856  0.00  0.00    +0.000 NA
ATOM      2  C   UNL     1       0.811  15.542  20.163  0.00  0.00    +0.000 C 
ATOM      3  C   UNL     1       1.273  15.559  18.679  0.00  0.00    +0.000 C 
ATOM      4  O   UNL     1       2.422  14.751  18.450  0.00  0.00    +0.000 OA
ATOM      5  C   UNL     1       2.149  13.385  18.122  0.00  0.00    +0.000 C 
ATOM      6  C   UNL     1       1.176  12.636  19.071  0.00  0.00    +0.000 C 
ATOM      7  C   UNL     1      -0.300  12.903  18.705  0.00  0.00    +0.000 C 
ATOM      8  C   UNL     1      -1.179  12.057  19.618  0.00  0.00    +0.000 C 
ATOM      9  N   UNL     1      -1.183  10.740  19.025  0.00  0.00    +0.000 N 
ATOM     10  C   UNL     1      -2.105  10.668  17.979  0.00  0.00    +0.000 A 
ATOM     11  N   UNL     1      -1.869   9.924  16.894  0.00  0.00    +0.000 NA
ATOM     12  C   UNL     1      -2.776   9.994  15.891  0.00  0.00    +0.000 A 
ATOM     13  C   UNL     1      -3.908  10.773  15.914  0.00  0.00    +0.000 A 
ATOM     14  C   UNL     1      -4.079  11.492  17.060  0.00  0.00    +0.000 A 
ATOM     15  N   UNL     1      -3.214  11.439  18.083  0.00  0.00    +0.000 NA
ATOM     16  C   UNL     1       0.140  10.112  18.931  0.00  0.00    +0.000 C 
ATOM     17  C   UNL     1       1.381  11.080  18.912  0.00  0.00    +0.000 C 
ATOM     18  C   UNL     1       1.498  13.139  20.516  0.00  0.00    +0.000 C 
ENDROOT
BRANCH   1  19
ATOM     19  C   UNL     1       0.165  14.321  22.239  0.00  0.00    +0.000 C 
BRANCH  19  23
ATOM     20  C   UNL     1      -3.943  12.444  24.215  0.00  0.00    +0.000 C 
ATOM     21  C   UNL     1      -3.110  13.288  23.318  0.00  0.00    +0.000 A 
ATOM     22  N   UNL     1      -1.801  13.284  23.319  0.00  0.00    +0.000 NA
ATOM     23  C   UNL     1      -1.315  14.181  22.376  0.00  0.00    +0.000 A 
ATOM     24  C   UNL     1      -2.290  14.863  21.674  0.00  0.00    +0.000 A 
ATOM     25  S   UNL     1      -3.846  14.360  22.195  0.00  0.00    +0.000 S 
ENDBRANCH  19  23
ENDBRANCH   1  19
TORSDOF 2
ENDMDL
MODEL 2
REMARK VINA RESULT:      -6.1      9.371     12.366
REMARK  Name = 
REMARK  3 active torsions:
REMARK  status: ('A' for Active; 'I' for Inactive)
REMARK    1  A    between atoms: C_1  and  C_2
REMARK    2  A    between atoms: C_4  and  C_5
REMARK    3  A    between atoms: C_5  and  N_6
REMARK                            x       y       z     vdW  Elec       q    Type
REMARK                         _______ _______ _______ _____ _____    ______ ____
ROOT
ATOM      1  N   UNL     1       5.533   4.801  15.079  0.00  0.00    +0.000 NA
ATOM      2  C   UNL     1       6.844   4.190  15.343  0.00  0.00    +0.000 C 
ATOM      3  C   UNL     1       7.561   4.459  16.696  0.00  0.00    +0.000 C 
ATOM      4  O   UNL     1       7.631   5.843  17.016  0.00  0.00    +0.000 OA
ATOM      5  C   UNL     1       6.517   6.353  17.756  0.00  0.00    +0.000 C 
ATOM      6  C   UNL     1       5.112   6.030  17.183  0.00  0.00    +0.000 C 
ATOM      7  C   UNL     1       4.622   4.632  17.622  0.00  0.00    +0.000 C 
ATOM      8  C   UNL     1       3.203   4.438  17.102  0.00  0.00    +0.000 C 
ATOM      9  N   UNL     1       2.355   5.125  18.048  0.00  0.00    +0.000 N 
ATOM     10  C   UNL     1       2.112   4.327  19.168  0.00  0.00    +0.000 A 
ATOM     11  N   UNL     1       1.992   4.860  20.388  0.00  0.00    +0.000 NA
ATOM     12  C   UNL     1       1.855   3.999  21.424  0.00  0.00    +0.000 A 
ATOM     13  C   UNL     1       1.834   2.630  21.305  0.00  0.00    +0.000 A 
ATOM     14  C   UNL     1       1.952   2.168  20.027  0.00  0.00    +0.000 A 
ATOM     15  N   UNL     1       2.074   2.987  18.972  0.00  0.00    +0.000 NA
ATOM     16  C   UNL     1       2.620   6.563  18.168  0.00  0.00    +0.000 C 
ATOM     17  C   UNL     1       4.060   7.052  17.764  0.00  0.00    +0.000 C 
ATOM     18  C   UNL     1       5.240   6.118  15.628  0.00  0.00    +0.000 C 
ENDROOT
BRANCH   1  19
ATOM     19  C   UNL     1       4.906   4.479  13.800  0.00  0.00    +0.000 C 
BRANCH  19  23
ATOM     20  C   UNL     1       6.125   0.618  10.987  0.00  0.00    +0.000 C 
ATOM     21  C   UNL     1       6.271   1.950  11.633  0.00  0.00    +0.000 A 
ATOM     22  N   UNL     1       5.382   2.471  12.440  0.00  0.00    +0.000 NA
ATOM     23  C   UNL     1       5.800   3.723  12.874  0.00  0.00    +0.000 A 
ATOM     24  C   UNL     1       7.019   4.131  12.366  0.00  0.00    +0.000 A 
ATOM     25  S   UNL     1       7.660   2.916  11.337  0.00  0.00    +0.000 S 
ENDBRANCH  19  23
ENDBRANCH   1  19
TORSDOF 2
ENDMDL
MODEL 3
REMARK VINA RESULT:      -6.1      3.288      5.237
REMARK  Name = 
REMARK  3 active torsions:
REMARK  status: ('A' for Active; 'I' for Inactive)
REMARK    1  A    between atoms: C_1  and  C_2
REMARK    2  A    between atoms: C_4  and  C_5
REMARK    3  A    between atoms: C_5  and  N_6
REMARK                            x       y       z     vdW  Elec       q    Type
REMARK                         _______ _______ _______ _____ _____    ______ ____
ROOT
ATOM      1  N   UNL     1      -0.624  14.098  22.114  0.00  0.00    +0.000 NA
ATOM      2  C   UNL     1       0.357  13.251  21.420  0.00  0.00    +0.000 C 
ATOM      3  C   UNL     1       0.174  11.707  21.412  0.00  0.00    +0.000 C 
ATOM      4  O   UNL     1      -0.050  11.173  22.711  0.00  0.00    +0.000 OA
ATOM      5  C   UNL     1      -1.422  11.114  23.115  0.00  0.00    +0.000 C 
ATOM      6  C   UNL     1      -2.239  12.422  22.951  0.00  0.00    +0.000 C 
ATOM      7  C   UNL     1      -2.784  12.581  21.515  0.00  0.00    +0.000 C 
ATOM      8  C   UNL     1      -3.651  13.834  21.469  0.00  0.00    +0.000 C 
ATOM      9  N   UNL     1      -4.931  13.428  22.000  0.00  0.00    +0.000 N 
ATOM     10  C   UNL     1      -5.698  12.794  21.019  0.00  0.00    +0.000 A 
ATOM     11  N   UNL     1      -6.519  11.784  21.324  0.00  0.00    +0.000 NA
ATOM     12  C   UNL     1      -7.147  11.169  20.293  0.00  0.00    +0.000 A 
ATOM     13  C   UNL     1      -6.994  11.511  18.971  0.00  0.00    +0.000 A 
ATOM     14  C   UNL     1      -6.149  12.558  18.747  0.00  0.00    +0.000 A 
ATOM     15  N   UNL     1      -5.520  13.203  19.740  0.00  0.00    +0.000 NA
ATOM     16  C   UNL     1      -4.887  12.936  23.381  0.00  0.00    +0.000 C 
ATOM     17  C   UNL     1      -3.509  12.370  23.886  0.00  0.00    +0.000 C 
ATOM     18  C   UNL     1      -1.271  13.594  23.318  0.00  0.00    +0.000 C 
ENDROOT
BRANCH   1  19
ATOM     19  C   UNL     1      -0.403  15.540  22.053  0.00  0.00    +0.000 C 
BRANCH  19  23
ATOM     20  C   UNL     1       2.248  16.956  18.146  0.00  0.00    +0.000 C 
ATOM     21  C   UNL     1       1.032  16.675  18.954  0.00  0.00    +0.000 A 
ATOM     22  N   UNL     1       1.059  16.225  20.182  0.00  0.00    +0.000 NA
ATOM     23  C   UNL     1      -0.234  16.057  20.664  0.00  0.00    +0.000 A 
ATOM     24  C   UNL     1      -1.230  16.384  19.763  0.00  0.00    +0.000 A 
ATOM     25  S   UNL     1      -0.533  16.925  18.291  0.00  0.00    +0.000 S 
ENDBRANCH  19  23
ENDBRANCH   1  19
TORSDOF 2
ENDMDL
MODEL 4
REMARK VINA RESULT:      -6.1      3.317      5.218
REMARK  Name = 
REMARK  3 active torsions:
REMARK  status: ('A' for Active; 'I' for Inactive)
REMARK    1  A    between atoms: C_1  and  C_2
REMARK    2  A    between atoms: C_4  and  C_5
REMARK    3  A    between atoms: C_5  and  N_6
REMARK                            x       y       z     vdW  Elec       q    Type
REMARK                         _______ _______ _______ _____ _____    ______ ____
ROOT
ATOM      1  N   UNL     1       0.090  13.136  21.181  0.00  0.00    +0.000 NA
ATOM      2  C   UNL     1       0.883  11.935  20.880  0.00  0.00    +0.000 C 
ATOM      3  C   UNL     1       0.419  10.551  21.415  0.00  0.00    +0.000 C 
ATOM      4  O   UNL     1       0.129  10.568  22.808  0.00  0.00    +0.000 OA
ATOM      5  C   UNL     1      -1.221  10.905  23.143  0.00  0.00    +0.000 C 
ATOM      6  C   UNL     1      -1.787  12.191  22.486  0.00  0.00    +0.000 C 
ATOM      7  C   UNL     1      -2.325  11.919  21.064  0.00  0.00    +0.000 C 
ATOM      8  C   UNL     1      -2.948  13.205  20.535  0.00  0.00    +0.000 C 
ATOM      9  N   UNL     1      -4.269  13.254  21.117  0.00  0.00    +0.000 N 
ATOM     10  C   UNL     1      -5.161  12.459  20.393  0.00  0.00    +0.000 A 
ATOM     11  N   UNL     1      -6.146  11.790  21.000  0.00  0.00    +0.000 NA
ATOM     12  C   UNL     1      -6.899  10.970  20.229  0.00  0.00    +0.000 A 
ATOM     13  C   UNL     1      -6.716  10.782  18.880  0.00  0.00    +0.000 A 
ATOM     14  C   UNL     1      -5.697  11.508  18.337  0.00  0.00    +0.000 A 
ATOM     15  N   UNL     1      -4.939  12.343  19.061  0.00  0.00    +0.000 NA
ATOM     16  C   UNL     1      -4.285  13.292  22.583  0.00  0.00    +0.000 C 
ATOM     17  C   UNL     1      -3.024  12.707  23.319  0.00  0.00    +0.000 C 
ATOM     18  C   UNL     1      -0.612  13.222  22.455  0.00  0.00    +0.000 C 
ENDROOT
BRANCH   1  19
ATOM     19  C   UNL     1       0.571  14.395  20.620  0.00  0.00    +0.000 C 
BRANCH  19  23
ATOM     20  C   UNL     1       4.715  14.891  23.243  0.00  0.00    +0.000 C 
ATOM     21  C   UNL     1       3.855  14.807  22.032  0.00  0.00    +0.000 A 
ATOM     22  N   UNL     1       2.558  14.637  22.068  0.00  0.00    +0.000 NA
ATOM     23  C   UNL     1       2.041  14.594  20.779  0.00  0.00    +0.000 A 
ATOM     24  C   UNL     1       2.983  14.728  19.777  0.00  0.00    +0.000 A 
ATOM     25  S   UNL     1       4.543  14.927  20.463  0.00  0.00    +0.000 S 
ENDBRANCH  19  23
ENDBRANCH   1  19
TORSDOF 2
ENDMDL
MODEL 5
REMARK VINA RESULT:      -6.0      3.213      5.460
REMARK  Name = 
REMARK  3 active torsions:
REMARK  status: ('A' for Active; 'I' for Inactive)
REMARK    1  A    between atoms: C_1  and  C_2
REMARK    2  A    between atoms: C_4  and  C_5
REMARK    3  A    between atoms: C_5  and  N_6
REMARK                            x       y       z     vdW  Elec       q    Type
REMARK                         _______ _______ _______ _____ _____    ______ ____
ROOT
ATOM      1  N   UNL     1      -0.070  13.286  21.151  0.00  0.00    +0.000 NA
ATOM      2  C   UNL     1       0.741  12.106  20.812  0.00  0.00    +0.000 C 
ATOM      3  C   UNL     1       0.325  10.707  21.346  0.00  0.00    +0.000 C 
ATOM      4  O   UNL     1       0.078  10.703  22.747  0.00  0.00    +0.000 OA
ATOM      5  C   UNL     1      -1.268  11.005  23.128  0.00  0.00    +0.000 C 
ATOM      6  C   UNL     1      -1.883  12.285  22.502  0.00  0.00    +0.000 C 
ATOM      7  C   UNL     1      -2.459  12.015  21.095  0.00  0.00    +0.000 C 
ATOM      8  C   UNL     1      -3.127  13.292  20.599  0.00  0.00    +0.000 C 
ATOM      9  N   UNL     1      -4.430  13.304  21.222  0.00  0.00    +0.000 N 
ATOM     10  C   UNL     1      -5.326  12.497  20.517  0.00  0.00    +0.000 A 
ATOM     11  N   UNL     1      -6.276  11.799  21.147  0.00  0.00    +0.000 NA
ATOM     12  C   UNL     1      -7.034  10.970  20.391  0.00  0.00    +0.000 A 
ATOM     13  C   UNL     1      -6.888  10.799  19.035  0.00  0.00    +0.000 A 
ATOM     14  C   UNL     1      -5.904  11.554  18.469  0.00  0.00    +0.000 A 
ATOM     15  N   UNL     1      -5.143  12.399  19.179  0.00  0.00    +0.000 NA
ATOM     16  C   UNL     1      -4.402  13.326  22.689  0.00  0.00    +0.000 C 
ATOM     17  C   UNL     1      -3.105  12.764  23.379  0.00  0.00    +0.000 C 
ATOM     18  C   UNL     1      -0.733  13.343  22.446  0.00  0.00    +0.000 C 
ENDROOT
BRANCH   1  19
ATOM     19  C   UNL     1       0.365  14.561  20.589  0.00  0.00    +0.000 C 
BRANCH  19  23
ATOM     20  C   UNL     1       4.600  14.833  18.081  0.00  0.00    +0.000 C 
ATOM     21  C   UNL     1       3.704  14.800  19.267  0.00  0.00    +0.000 A 
ATOM     22  N   UNL     1       2.403  14.675  19.197  0.00  0.00    +0.000 NA
ATOM     23  C   UNL     1       1.847  14.684  20.470  0.00  0.00    +0.000 A 
ATOM     24  C   UNL     1       2.762  14.827  21.496  0.00  0.00    +0.000 A 
ATOM     25  S   UNL     1       4.349  14.937  20.854  0.00  0.00    +0.000 S 
ENDBRANCH  19  23
ENDBRANCH   1  19
TORSDOF 2
ENDMDL
MODEL 6
REMARK VINA RESULT:      -5.9      3.893      7.904
REMARK  Name = 
REMARK  3 active torsions:
REMARK  status: ('A' for Active; 'I' for Inactive)
REMARK    1  A    between atoms: C_1  and  C_2
REMARK    2  A    between atoms: C_4  and  C_5
REMARK    3  A    between atoms: C_5  and  N_6
REMARK                            x       y       z     vdW  Elec       q    Type
REMARK                         _______ _______ _______ _____ _____    ______ ____
ROOT
ATOM      1  N   UNL     1      -6.279  12.634  19.695  0.00  0.00    +0.000 NA
ATOM      2  C   UNL     1      -6.380  13.786  18.787  0.00  0.00    +0.000 C 
ATOM      3  C   UNL     1      -6.671  15.200  19.365  0.00  0.00    +0.000 C 
ATOM      4  O   UNL     1      -7.787  15.215  20.247  0.00  0.00    +0.000 OA
ATOM      5  C   UNL     1      -7.481  14.956  21.620  0.00  0.00    +0.000 C 
ATOM      6  C   UNL     1      -6.623  13.695  21.902  0.00  0.00    +0.000 C 
ATOM      7  C   UNL     1      -5.115  13.979  21.735  0.00  0.00    +0.000 C 
ATOM      8  C   UNL     1      -4.346  12.722  22.125  0.00  0.00    +0.000 C 
ATOM      9  N   UNL     1      -4.277  12.753  23.567  0.00  0.00    +0.000 N 
ATOM     10  C   UNL     1      -3.242  13.586  23.998  0.00  0.00    +0.000 A 
ATOM     11  N   UNL     1      -3.355  14.315  25.114  0.00  0.00    +0.000 NA
ATOM     12  C   UNL     1      -2.341  15.165  25.398  0.00  0.00    +0.000 A 
ATOM     13  C   UNL     1      -1.218  15.328  24.623  0.00  0.00    +0.000 A 
ATOM     14  C   UNL     1      -1.176  14.541  23.510  0.00  0.00    +0.000 A 
ATOM     15  N   UNL     1      -2.151  13.674  23.201  0.00  0.00    +0.000 NA
ATOM     16  C   UNL     1      -5.582  12.734  24.238  0.00  0.00    +0.000 C 
ATOM     17  C   UNL     1      -6.811  13.257  23.407  0.00  0.00    +0.000 C 
ATOM     18  C   UNL     1      -7.105  12.601  20.895  0.00  0.00    +0.000 C 
ENDROOT
BRANCH   1  19
ATOM     19  C   UNL     1      -5.974  11.344  19.084  0.00  0.00    +0.000 C 
BRANCH  19  23
ATOM     20  C   UNL     1      -3.203  10.633  15.069  0.00  0.00    +0.000 C 
ATOM     21  C   UNL     1      -3.516  10.990  16.478  0.00  0.00    +0.000 A 
ATOM     22  N   UNL     1      -4.717  10.934  16.996  0.00  0.00    +0.000 NA
ATOM     23  C   UNL     1      -4.688  11.334  18.327  0.00  0.00    +0.000 A 
ATOM     24  C   UNL     1      -3.439  11.700  18.790  0.00  0.00    +0.000 A 
ATOM     25  S   UNL     1      -2.276  11.524  17.541  0.00  0.00    +0.000 S 
ENDBRANCH  19  23
ENDBRANCH   1  19
TORSDOF 2
ENDMDL
MODEL 7
REMARK VINA RESULT:      -5.9      1.103      1.162
REMARK  Name = 
REMARK  3 active torsions:
REMARK  status: ('A' for Active; 'I' for Inactive)
REMARK    1  A    between atoms: C_1  and  C_2
REMARK    2  A    between atoms: C_4  and  C_5
REMARK    3  A    between atoms: C_5  and  N_6
REMARK                            x       y       z     vdW  Elec       q    Type
REMARK                         _______ _______ _______ _____ _____    ______ ____
ROOT
ATOM      1  N   UNL     1      -0.259  13.788  21.371  0.00  0.00    +0.000 NA
ATOM      2  C   UNL     1      -0.273  15.199  20.957  0.00  0.00    +0.000 C 
ATOM      3  C   UNL     1       0.219  15.589  19.535  0.00  0.00    +0.000 C 
ATOM      4  O   UNL     1       1.489  15.034  19.219  0.00  0.00    +0.000 OA
ATOM      5  C   UNL     1       1.452  13.738  18.612  0.00  0.00    +0.000 C 
ATOM      6  C   UNL     1       0.592  12.670  19.336  0.00  0.00    +0.000 C 
ATOM      7  C   UNL     1      -0.898  12.773  18.944  0.00  0.00    +0.000 C 
ATOM      8  C   UNL     1      -1.650  11.632  19.618  0.00  0.00    +0.000 C 
ATOM      9  N   UNL     1      -1.423  10.480  18.778  0.00  0.00    +0.000 N 
ATOM     10  C   UNL     1      -2.294  10.481  17.686  0.00  0.00    +0.000 A 
ATOM     11  N   UNL     1      -1.910  10.020  16.491  0.00  0.00    +0.000 NA
ATOM     12  C   UNL     1      -2.790  10.152  15.470  0.00  0.00    +0.000 A 
ATOM     13  C   UNL     1      -4.035  10.725  15.581  0.00  0.00    +0.000 A 
ATOM     14  C   UNL     1      -4.352  11.159  16.834  0.00  0.00    +0.000 A 
ATOM     15  N   UNL     1      -3.516  11.033  17.875  0.00  0.00    +0.000 NA
ATOM     16  C   UNL     1      -0.013  10.098  18.639  0.00  0.00    +0.000 C 
ATOM     17  C   UNL     1       1.053  11.229  18.884  0.00  0.00    +0.000 C 
ATOM     18  C   UNL     1       0.789  12.910  20.868  0.00  0.00    +0.000 C 
ENDROOT
BRANCH   1  19
ATOM     19  C   UNL     1      -0.764  13.494  22.709  0.00  0.00    +0.000 C 
BRANCH  19  23
ATOM     20  C   UNL     1      -5.600  12.884  21.976  0.00  0.00    +0.000 C 
ATOM     21  C   UNL     1      -4.357  13.501  22.511  0.00  0.00    +0.000 A 
ATOM     22  N   UNL     1      -3.152  13.068  22.241  0.00  0.00    +0.000 NA
ATOM     23  C   UNL     1      -2.202  13.845  22.892  0.00  0.00    +0.000 A 
ATOM     24  C   UNL     1      -2.725  14.865  23.664  0.00  0.00    +0.000 A 
ATOM     25  S   UNL     1      -4.438  14.860  23.559  0.00  0.00    +0.000 S 
ENDBRANCH  19  23
ENDBRANCH   1  19
TORSDOF 2
ENDMDL
MODEL 8
REMARK VINA RESULT:      -5.9      1.260      1.464
REMARK  Name = 
REMARK  3 active torsions:
REMARK  status: ('A' for Active; 'I' for Inactive)
REMARK    1  A    between atoms: C_1  and  C_2
REMARK    2  A    between atoms: C_4  and  C_5
REMARK    3  A    between atoms: C_5  and  N_6
REMARK                            x       y       z     vdW  Elec       q    Type
REMARK                         _______ _______ _______ _____ _____    ______ ____
ROOT
ATOM      1  N   UNL     1      -0.499  13.849  21.632  0.00  0.00    +0.000 NA
ATOM      2  C   UNL     1      -0.551  15.267  21.245  0.00  0.00    +0.000 C 
ATOM      3  C   UNL     1      -0.034  15.703  19.845  0.00  0.00    +0.000 C 
ATOM      4  O   UNL     1       1.264  15.198  19.555  0.00  0.00    +0.000 OA
ATOM      5  C   UNL     1       1.289  13.914  18.923  0.00  0.00    +0.000 C 
ATOM      6  C   UNL     1       0.447  12.802  19.602  0.00  0.00    +0.000 C 
ATOM      7  C   UNL     1      -1.035  12.862  19.170  0.00  0.00    +0.000 C 
ATOM      8  C   UNL     1      -1.764  11.682  19.801  0.00  0.00    +0.000 C 
ATOM      9  N   UNL     1      -1.473  10.555  18.946  0.00  0.00    +0.000 N 
ATOM     10  C   UNL     1      -2.313  10.548  17.830  0.00  0.00    +0.000 A 
ATOM     11  N   UNL     1      -1.881  10.125  16.637  0.00  0.00    +0.000 NA
ATOM     12  C   UNL     1      -2.736  10.247  15.595  0.00  0.00    +0.000 A 
ATOM     13  C   UNL     1      -4.003  10.773  15.681  0.00  0.00    +0.000 A 
ATOM     14  C   UNL     1      -4.369  11.172  16.933  0.00  0.00    +0.000 A 
ATOM     15  N   UNL     1      -3.559  11.054  17.994  0.00  0.00    +0.000 NA
ATOM     16  C   UNL     1      -0.048  10.226  18.840  0.00  0.00    +0.000 C 
ATOM     17  C   UNL     1       0.970  11.388  19.136  0.00  0.00    +0.000 C 
ATOM     18  C   UNL     1       0.593  13.019  21.143  0.00  0.00    +0.000 C 
ENDROOT
BRANCH   1  19
ATOM     19  C   UNL     1      -1.029  13.512  22.950  0.00  0.00    +0.000 C 
BRANCH  19  23
ATOM     20  C   UNL     1      -5.089  16.022  24.182  0.00  0.00    +0.000 C 
ATOM     21  C   UNL     1      -4.277  14.897  23.647  0.00  0.00    +0.000 A 
ATOM     22  N   UNL     1      -2.969  14.884  23.629  0.00  0.00    +0.000 NA
ATOM     23  C   UNL     1      -2.505  13.702  23.063  0.00  0.00    +0.000 A 
ATOM     24  C   UNL     1      -3.498  12.835  22.650  0.00  0.00    +0.000 A 
ATOM     25  S   UNL     1      -5.040  13.505  22.990  0.00  0.00    +0.000 S 
ENDBRANCH  19  23
ENDBRANCH   1  19
TORSDOF 2
ENDMDL
MODEL 9
REMARK VINA RESULT:      -5.8      4.117      6.599
REMARK  Name = 
REMARK  3 active torsions:
REMARK  status: ('A' for Active; 'I' for Inactive)
REMARK    1  A    between atoms: C_1  and  C_2
REMARK    2  A    between atoms: C_4  and  C_5
REMARK    3  A    between atoms: C_5  and  N_6
REMARK                            x       y       z     vdW  Elec       q    Type
REMARK                         _______ _______ _______ _____ _____    ______ ____
ROOT
ATOM      1  N   UNL     1       1.530   8.985  19.038  0.00  0.00    +0.000 NA
ATOM      2  C   UNL     1       1.500   8.147  20.246  0.00  0.00    +0.000 C 
ATOM      3  C   UNL     1       0.854   8.698  21.549  0.00  0.00    +0.000 C 
ATOM      4  O   UNL     1       1.338   9.988  21.901  0.00  0.00    +0.000 OA
ATOM      5  C   UNL     1       0.610  11.084  21.338  0.00  0.00    +0.000 C 
ATOM      6  C   UNL     1       0.368  11.028  19.807  0.00  0.00    +0.000 C 
ATOM      7  C   UNL     1      -0.867  10.171  19.453  0.00  0.00    +0.000 C 
ATOM      8  C   UNL     1      -1.089  10.250  17.948  0.00  0.00    +0.000 C 
ATOM      9  N   UNL     1      -1.788  11.496  17.733  0.00  0.00    +0.000 N 
ATOM     10  C   UNL     1      -3.154  11.349  17.982  0.00  0.00    +0.000 A 
ATOM     11  N   UNL     1      -3.874  12.340  18.518  0.00  0.00    +0.000 NA
ATOM     12  C   UNL     1      -5.168  12.071  18.812  0.00  0.00    +0.000 A 
ATOM     13  C   UNL     1      -5.781  10.860  18.602  0.00  0.00    +0.000 A 
ATOM     14  C   UNL     1      -4.981   9.907  18.043  0.00  0.00    +0.000 A 
ATOM     15  N   UNL     1      -3.700  10.137  17.721  0.00  0.00    +0.000 NA
ATOM     16  C   UNL     1      -1.049  12.688  18.164  0.00  0.00    +0.000 C 
ATOM     17  C   UNL     1       0.049  12.478  19.271  0.00  0.00    +0.000 C 
ATOM     18  C   UNL     1       1.668  10.428  19.177  0.00  0.00    +0.000 C 
ENDROOT
BRANCH   1  19
ATOM     19  C   UNL     1       2.125   8.390  17.845  0.00  0.00    +0.000 C 
BRANCH  19  23
ATOM     20  C   UNL     1       1.738   3.483  18.108  0.00  0.00    +0.000 C 
ATOM     21  C   UNL     1       2.395   4.815  18.165  0.00  0.00    +0.000 A 
ATOM     22  N   UNL     1       1.774   5.947  17.948  0.00  0.00    +0.000 NA
ATOM     23  C   UNL     1       2.656   7.013  18.068  0.00  0.00    +0.000 A 
ATOM     24  C   UNL     1       3.955   6.654  18.372  0.00  0.00    +0.000 A 
ATOM     25  S   UNL     1       4.070   4.949  18.525  0.00  0.00    +0.000 S 
ENDBRANCH  19  23
ENDBRANCH   1  19
TORSDOF 2
ENDMDL
