MODEL 1
REMARK VINA RESULT:      -8.6      0.000      0.000
REMARK  Name = 
REMARK  11 active torsions:
REMARK  status: ('A' for Active; 'I' for Inactive)
REMARK    1  A    between atoms: C_1  and  C_2
REMARK    2  A    between atoms: C_2  and  O_3
REMARK    3  A    between atoms: O_3  and  P_4
REMARK    4  A    between atoms: P_4  and  O_6
REMARK    5  A    between atoms: P_4  and  C_9
REMARK    6  A    between atoms: O_6  and  C_7
REMARK    7  A    between atoms: C_7  and  C_8
REMARK    8  A    between atoms: C_11  and  C_12
REMARK    9  A    between atoms: C_20  and  N_21
REMARK   10  A    between atoms: N_21  and  C_22
REMARK   11  A    between atoms: C_22  and  C_23
REMARK                            x       y       z     vdW  Elec       q    Type
REMARK                         _______ _______ _______ _____ _____    ______ ____
ROOT
ATOM      1  C   UNL     1       4.499   5.938  17.142  0.00  0.00    +0.000 A 
ATOM      2  N   UNL     1       4.112   7.172  17.645  0.00  0.00    +0.000 NA
ATOM      3  C   UNL     1       2.973   6.919  18.248  0.00  0.00    +0.000 A 
ATOM      4  O   UNL     1       2.510   5.646  18.076  0.00  0.00    +0.000 OA
ATOM      5  C   UNL     1       3.484   5.024  17.342  0.00  0.00    +0.000 A 
ENDROOT
BRANCH   3   6
ATOM      6  C   UNL     1       2.146   7.830  19.023  0.00  0.00    +0.000 A 
ATOM      7  C   UNL     1       1.832   7.505  20.352  0.00  0.00    +0.000 A 
ATOM      8  C   UNL     1       0.989   8.321  21.105  0.00  0.00    +0.000 A 
ATOM      9  C   UNL     1       0.446   9.459  20.523  0.00  0.00    +0.000 A 
ATOM     10  F   UNL     1      -0.385  10.230  21.237  0.00  0.00    +0.000 F 
ATOM     11  C   UNL     1       0.739   9.799  19.207  0.00  0.00    +0.000 A 
ATOM     12  C   UNL     1       1.596   8.990  18.457  0.00  0.00    +0.000 A 
ENDBRANCH   3   6
BRANCH   1  13
ATOM     13  P   UNL     1       6.046   5.650  16.209  0.00  0.00    +0.000 P 
ATOM     14  O   UNL     1       6.426   4.686  17.340  0.00  0.00    +0.000 OA
BRANCH  13  15
ATOM     15  O   UNL     1       7.509   5.377  15.327  0.00  0.00    +0.000 OA
BRANCH  15  17
ATOM     16  C   UNL     1       5.935   4.103  14.037  0.00  0.00    +0.000 C 
ATOM     17  C   UNL     1       7.274   4.807  14.043  0.00  0.00    +0.000 C 
ENDBRANCH  15  17
ENDBRANCH  13  15
BRANCH  13  18
ATOM     18  O   UNL     1       6.617   7.158  16.594  0.00  0.00    +0.000 OA
BRANCH  18  19
ATOM     19  C   UNL     1       7.675   7.324  17.524  0.00  0.00    +0.000 C 
ATOM     20  C   UNL     1       8.021   8.775  17.782  0.00  0.00    +0.000 C 
ENDBRANCH  18  19
ENDBRANCH  13  18
ENDBRANCH   1  13
BRANCH   5  21
ATOM     21  N   UNL     1       3.293   3.731  16.987  0.00  0.00    +0.000 N 
ATOM     22  H   UNL     1       3.521   3.522  16.012  0.00  0.00    +0.000 HD
BRANCH  21  23
ATOM     23  C   UNL     1       3.674   2.678  17.917  0.00  0.00    +0.000 C 
BRANCH  23  24
ATOM     24  C   UNL     1       2.803   2.643  19.157  0.00  0.00    +0.000 A 
ATOM     25  C   UNL     1       3.428   2.647  20.415  0.00  0.00    +0.000 A 
ATOM     26  C   UNL     1       2.676   2.706  21.590  0.00  0.00    +0.000 A 
ATOM     27  C   UNL     1       1.286   2.764  21.528  0.00  0.00    +0.000 A 
ATOM     28  C   UNL     1       0.648   2.772  20.289  0.00  0.00    +0.000 A 
ATOM     29  C   UNL     1       1.402   2.720  19.112  0.00  0.00    +0.000 A 
ENDBRANCH  23  24
ENDBRANCH  21  23
ENDBRANCH   5  21
TORSDOF 9
ENDMDL
MODEL 2
REMARK VINA RESULT:      -8.4      0.972      1.546
REMARK  Name = 
REMARK  11 active torsions:
REMARK  status: ('A' for Active; 'I' for Inactive)
REMARK    1  A    between atoms: C_1  and  C_2
REMARK    2  A    between atoms: C_2  and  O_3
REMARK    3  A    between atoms: O_3  and  P_4
REMARK    4  A    between atoms: P_4  and  O_6
REMARK    5  A    between atoms: P_4  and  C_9
REMARK    6  A    between atoms: O_6  and  C_7
REMARK    7  A    between atoms: C_7  and  C_8
REMARK    8  A    between atoms: C_11  and  C_12
REMARK    9  A    between atoms: C_20  and  N_21
REMARK   10  A    between atoms: N_21  and  C_22
REMARK   11  A    between atoms: C_22  and  C_23
REMARK                            x       y       z     vdW  Elec       q    Type
REMARK                         _______ _______ _______ _____ _____    ______ ____
ROOT
ATOM      1  C   UNL     1       4.581   5.923  16.942  0.00  0.00    +0.000 A 
ATOM      2  N   UNL     1       4.156   7.170  17.377  0.00  0.00    +0.000 NA
ATOM      3  C   UNL     1       3.043   6.910  18.024  0.00  0.00    +0.000 A 
ATOM      4  O   UNL     1       2.629   5.610  17.944  0.00  0.00    +0.000 OA
ATOM      5  C   UNL     1       3.610   4.983  17.224  0.00  0.00    +0.000 A 
ENDROOT
BRANCH   3   6
ATOM      6  C   UNL     1       2.198   7.833  18.763  0.00  0.00    +0.000 A 
ATOM      7  C   UNL     1       1.690   8.967  18.110  0.00  0.00    +0.000 A 
ATOM      8  C   UNL     1       0.930   9.908  18.803  0.00  0.00    +0.000 A 
ATOM      9  C   UNL     1       0.689   9.724  20.158  0.00  0.00    +0.000 A 
ATOM     10  F   UNL     1      -0.018  10.641  20.831  0.00  0.00    +0.000 F 
ATOM     11  C   UNL     1       1.186   8.611  20.828  0.00  0.00    +0.000 A 
ATOM     12  C   UNL     1       1.933   7.659  20.130  0.00  0.00    +0.000 A 
ENDBRANCH   3   6
BRANCH   1  13
ATOM     13  P   UNL     1       6.117   5.638  15.987  0.00  0.00    +0.000 P 
ATOM     14  O   UNL     1       5.215   4.992  14.928  0.00  0.00    +0.000 OA
BRANCH  13  15
ATOM     15  O   UNL     1       7.568   5.369  15.085  0.00  0.00    +0.000 OA
BRANCH  15  17
ATOM     16  C   UNL     1       8.109   5.530  12.752  0.00  0.00    +0.000 C 
ATOM     17  C   UNL     1       7.318   4.790  13.808  0.00  0.00    +0.000 C 
ENDBRANCH  15  17
ENDBRANCH  13  15
BRANCH  13  18
ATOM     18  O   UNL     1       6.611   4.458  17.043  0.00  0.00    +0.000 OA
BRANCH  18  19
ATOM     19  C   UNL     1       7.779   4.624  17.830  0.00  0.00    +0.000 C 
ATOM     20  C   UNL     1       7.633   5.688  18.897  0.00  0.00    +0.000 C 
ENDBRANCH  18  19
ENDBRANCH  13  18
ENDBRANCH   1  13
BRANCH   5  21
ATOM     21  N   UNL     1       3.465   3.664  16.955  0.00  0.00    +0.000 N 
ATOM     22  H   UNL     1       3.729   3.394  16.004  0.00  0.00    +0.000 HD
BRANCH  21  23
ATOM     23  C   UNL     1       3.843   2.689  17.967  0.00  0.00    +0.000 C 
BRANCH  23  24
ATOM     24  C   UNL     1       2.898   2.671  19.151  0.00  0.00    +0.000 A 
ATOM     25  C   UNL     1       3.443   2.700  20.445  0.00  0.00    +0.000 A 
ATOM     26  C   UNL     1       2.619   2.774  21.570  0.00  0.00    +0.000 A 
ATOM     27  C   UNL     1       1.235   2.824  21.421  0.00  0.00    +0.000 A 
ATOM     28  C   UNL     1       0.676   2.807  20.145  0.00  0.00    +0.000 A 
ATOM     29  C   UNL     1       1.501   2.738  19.018  0.00  0.00    +0.000 A 
ENDBRANCH  23  24
ENDBRANCH  21  23
ENDBRANCH   5  21
TORSDOF 9
ENDMDL
MODEL 3
REMARK VINA RESULT:      -8.4      1.072      1.508
REMARK  Name = 
REMARK  11 active torsions:
REMARK  status: ('A' for Active; 'I' for Inactive)
REMARK    1  A    between atoms: C_1  and  C_2
REMARK    2  A    between atoms: C_2  and  O_3
REMARK    3  A    between atoms: O_3  and  P_4
REMARK    4  A    between atoms: P_4  and  O_6
REMARK    5  A    between atoms: P_4  and  C_9
REMARK    6  A    between atoms: O_6  and  C_7
REMARK    7  A    between atoms: C_7  and  C_8
REMARK    8  A    between atoms: C_11  and  C_12
REMARK    9  A    between atoms: C_20  and  N_21
REMARK   10  A    between atoms: N_21  and  C_22
REMARK   11  A    between atoms: C_22  and  C_23
REMARK                            x       y       z     vdW  Elec       q    Type
REMARK                         _______ _______ _______ _____ _____    ______ ____
ROOT
ATOM      1  C   UNL     1       5.096   5.595  17.867  0.00  0.00    +0.000 A 
ATOM      2  N   UNL     1       4.192   6.623  17.643  0.00  0.00    +0.000 NA
ATOM      3  C   UNL     1       3.480   6.658  18.746  0.00  0.00    +0.000 A 
ATOM      4  O   UNL     1       3.753   5.653  19.630  0.00  0.00    +0.000 OA
ATOM      5  C   UNL     1       4.777   4.955  19.049  0.00  0.00    +0.000 A 
ENDROOT
BRANCH   3   6
ATOM      6  C   UNL     1       2.428   7.595  19.106  0.00  0.00    +0.000 A 
ATOM      7  C   UNL     1       2.015   8.553  18.168  0.00  0.00    +0.000 A 
ATOM      8  C   UNL     1       1.056   9.509  18.500  0.00  0.00    +0.000 A 
ATOM      9  C   UNL     1       0.517   9.517  19.780  0.00  0.00    +0.000 A 
ATOM     10  F   UNL     1      -0.384  10.451  20.109  0.00  0.00    +0.000 F 
ATOM     11  C   UNL     1       0.915   8.580  20.728  0.00  0.00    +0.000 A 
ATOM     12  C   UNL     1       1.864   7.612  20.391  0.00  0.00    +0.000 A 
ENDBRANCH   3   6
BRANCH   1  13
ATOM     13  P   UNL     1       6.385   5.083  16.674  0.00  0.00    +0.000 P 
ATOM     14  O   UNL     1       7.036   4.348  17.852  0.00  0.00    +0.000 OA
BRANCH  13  15
ATOM     15  O   UNL     1       7.603   4.598  15.546  0.00  0.00    +0.000 OA
BRANCH  15  17
ATOM     16  C   UNL     1       6.086   3.921  13.812  0.00  0.00    +0.000 C 
ATOM     17  C   UNL     1       7.225   4.842  14.195  0.00  0.00    +0.000 C 
ENDBRANCH  15  17
ENDBRANCH  13  15
BRANCH  13  18
ATOM     18  O   UNL     1       7.004   6.620  16.609  0.00  0.00    +0.000 OA
BRANCH  18  19
ATOM     19  C   UNL     1       7.727   7.163  17.702  0.00  0.00    +0.000 C 
ATOM     20  C   UNL     1       7.836   8.672  17.653  0.00  0.00    +0.000 C 
ENDBRANCH  18  19
ENDBRANCH  13  18
ENDBRANCH   1  13
BRANCH   5  21
ATOM     21  N   UNL     1       5.259   3.866  19.693  0.00  0.00    +0.000 N 
ATOM     22  H   UNL     1       5.530   4.034  20.666  0.00  0.00    +0.000 HD
BRANCH  21  23
ATOM     23  C   UNL     1       4.621   2.576  19.477  0.00  0.00    +0.000 C 
BRANCH  23  24
ATOM     24  C   UNL     1       3.116   2.626  19.643  0.00  0.00    +0.000 A 
ATOM     25  C   UNL     1       2.589   2.835  20.928  0.00  0.00    +0.000 A 
ATOM     26  C   UNL     1       1.215   2.979  21.127  0.00  0.00    +0.000 A 
ATOM     27  C   UNL     1       0.342   2.920  20.043  0.00  0.00    +0.000 A 
ATOM     28  C   UNL     1       0.846   2.724  18.759  0.00  0.00    +0.000 A 
ATOM     29  C   UNL     1       2.223   2.586  18.559  0.00  0.00    +0.000 A 
ENDBRANCH  23  24
ENDBRANCH  21  23
ENDBRANCH   5  21
TORSDOF 9
ENDMDL
MODEL 4
REMARK VINA RESULT:      -8.3      1.047      1.465
REMARK  Name = 
REMARK  11 active torsions:
REMARK  status: ('A' for Active; 'I' for Inactive)
REMARK    1  A    between atoms: C_1  and  C_2
REMARK    2  A    between atoms: C_2  and  O_3
REMARK    3  A    between atoms: O_3  and  P_4
REMARK    4  A    between atoms: P_4  and  O_6
REMARK    5  A    between atoms: P_4  and  C_9
REMARK    6  A    between atoms: O_6  and  C_7
REMARK    7  A    between atoms: C_7  and  C_8
REMARK    8  A    between atoms: C_11  and  C_12
REMARK    9  A    between atoms: C_20  and  N_21
REMARK   10  A    between atoms: N_21  and  C_22
REMARK   11  A    between atoms: C_22  and  C_23
REMARK                            x       y       z     vdW  Elec       q    Type
REMARK                         _______ _______ _______ _____ _____    ______ ____
ROOT
ATOM      1  C   UNL     1       4.717   6.020  17.052  0.00  0.00    +0.000 A 
ATOM      2  N   UNL     1       3.790   7.053  17.055  0.00  0.00    +0.000 NA
ATOM      3  C   UNL     1       3.255   6.987  18.253  0.00  0.00    +0.000 A 
ATOM      4  O   UNL     1       3.660   5.915  18.998  0.00  0.00    +0.000 OA
ATOM      5  C   UNL     1       4.583   5.281  18.211  0.00  0.00    +0.000 A 
ENDROOT
BRANCH   3   6
ATOM      6  C   UNL     1       2.272   7.878  18.847  0.00  0.00    +0.000 A 
ATOM      7  C   UNL     1       1.769   8.945  18.087  0.00  0.00    +0.000 A 
ATOM      8  C   UNL     1       0.875   9.858  18.644  0.00  0.00    +0.000 A 
ATOM      9  C   UNL     1       0.491   9.712  19.971  0.00  0.00    +0.000 A 
ATOM     10  F   UNL     1      -0.347  10.603  20.516  0.00  0.00    +0.000 F 
ATOM     11  C   UNL     1       0.980   8.665  20.746  0.00  0.00    +0.000 A 
ATOM     12  C   UNL     1       1.864   7.741  20.183  0.00  0.00    +0.000 A 
ENDBRANCH   3   6
BRANCH   1  13
ATOM     13  P   UNL     1       5.808   5.625  15.637  0.00  0.00    +0.000 P 
ATOM     14  O   UNL     1       5.192   4.221  15.690  0.00  0.00    +0.000 OA
BRANCH  13  15
ATOM     15  O   UNL     1       6.839   5.250  14.299  0.00  0.00    +0.000 OA
BRANCH  15  17
ATOM     16  C   UNL     1       6.957   4.068  12.213  0.00  0.00    +0.000 C 
ATOM     17  C   UNL     1       6.467   4.042  13.645  0.00  0.00    +0.000 C 
ENDBRANCH  15  17
ENDBRANCH  13  15
BRANCH  13  18
ATOM     18  O   UNL     1       7.153   5.642  16.607  0.00  0.00    +0.000 OA
BRANCH  18  19
ATOM     19  C   UNL     1       7.521   6.809  17.325  0.00  0.00    +0.000 C 
ATOM     20  C   UNL     1       7.982   6.520  18.737  0.00  0.00    +0.000 C 
ENDBRANCH  18  19
ENDBRANCH  13  18
ENDBRANCH   1  13
BRANCH   5  21
ATOM     21  N   UNL     1       5.156   4.148  18.680  0.00  0.00    +0.000 N 
ATOM     22  H   UNL     1       5.646   4.259  19.572  0.00  0.00    +0.000 HD
BRANCH  21  23
ATOM     23  C   UNL     1       4.439   2.887  18.558  0.00  0.00    +0.000 C 
BRANCH  23  24
ATOM     24  C   UNL     1       3.196   2.830  19.423  0.00  0.00    +0.000 A 
ATOM     25  C   UNL     1       3.352   2.748  20.817  0.00  0.00    +0.000 A 
ATOM     26  C   UNL     1       2.245   2.782  21.667  0.00  0.00    +0.000 A 
ATOM     27  C   UNL     1       0.962   2.901  21.139  0.00  0.00    +0.000 A 
ATOM     28  C   UNL     1       0.787   2.995  19.760  0.00  0.00    +0.000 A 
ATOM     29  C   UNL     1       1.896   2.967  18.909  0.00  0.00    +0.000 A 
ENDBRANCH  23  24
ENDBRANCH  21  23
ENDBRANCH   5  21
TORSDOF 9
ENDMDL
MODEL 5
REMARK VINA RESULT:      -8.2      1.141      1.771
REMARK  Name = 
REMARK  11 active torsions:
REMARK  status: ('A' for Active; 'I' for Inactive)
REMARK    1  A    between atoms: C_1  and  C_2
REMARK    2  A    between atoms: C_2  and  O_3
REMARK    3  A    between atoms: O_3  and  P_4
REMARK    4  A    between atoms: P_4  and  O_6
REMARK    5  A    between atoms: P_4  and  C_9
REMARK    6  A    between atoms: O_6  and  C_7
REMARK    7  A    between atoms: C_7  and  C_8
REMARK    8  A    between atoms: C_11  and  C_12
REMARK    9  A    between atoms: C_20  and  N_21
REMARK   10  A    between atoms: N_21  and  C_22
REMARK   11  A    between atoms: C_22  and  C_23
REMARK                            x       y       z     vdW  Elec       q    Type
REMARK                         _______ _______ _______ _____ _____    ______ ____
ROOT
ATOM      1  C   UNL     1       4.420   6.249  17.469  0.00  0.00    +0.000 A 
ATOM      2  N   UNL     1       3.387   7.175  17.452  0.00  0.00    +0.000 NA
ATOM      3  C   UNL     1       2.969   7.197  18.698  0.00  0.00    +0.000 A 
ATOM      4  O   UNL     1       3.555   6.268  19.510  0.00  0.00    +0.000 OA
ATOM      5  C   UNL     1       4.471   5.642  18.709  0.00  0.00    +0.000 A 
ENDROOT
BRANCH   3   6
ATOM      6  C   UNL     1       1.948   8.048  19.286  0.00  0.00    +0.000 A 
ATOM      7  C   UNL     1       1.411   9.098  18.526  0.00  0.00    +0.000 A 
ATOM      8  C   UNL     1       0.478   9.974  19.078  0.00  0.00    +0.000 A 
ATOM      9  C   UNL     1       0.089   9.808  20.401  0.00  0.00    +0.000 A 
ATOM     10  F   UNL     1      -0.787  10.665  20.942  0.00  0.00    +0.000 F 
ATOM     11  C   UNL     1       0.610   8.777  21.176  0.00  0.00    +0.000 A 
ATOM     12  C   UNL     1       1.533   7.890  20.618  0.00  0.00    +0.000 A 
ENDBRANCH   3   6
BRANCH   1  13
ATOM     13  P   UNL     1       5.421   5.801  16.004  0.00  0.00    +0.000 P 
ATOM     14  O   UNL     1       4.755   4.423  16.100  0.00  0.00    +0.000 OA
BRANCH  13  15
ATOM     15  O   UNL     1       6.367   5.378  14.619  0.00  0.00    +0.000 OA
BRANCH  15  17
ATOM     16  C   UNL     1       6.140   3.684  12.934  0.00  0.00    +0.000 C 
ATOM     17  C   UNL     1       6.408   3.973  14.394  0.00  0.00    +0.000 C 
ENDBRANCH  15  17
ENDBRANCH  13  15
BRANCH  13  18
ATOM     18  O   UNL     1       6.813   5.773  16.904  0.00  0.00    +0.000 OA
BRANCH  18  19
ATOM     19  C   UNL     1       7.442   6.975  17.318  0.00  0.00    +0.000 C 
ATOM     20  C   UNL     1       8.101   6.867  18.676  0.00  0.00    +0.000 C 
ENDBRANCH  18  19
ENDBRANCH  13  18
ENDBRANCH   1  13
BRANCH   5  21
ATOM     21  N   UNL     1       5.207   4.637  19.239  0.00  0.00    +0.000 N 
ATOM     22  H   UNL     1       5.643   4.859  20.137  0.00  0.00    +0.000 HD
BRANCH  21  23
ATOM     23  C   UNL     1       4.710   3.272  19.150  0.00  0.00    +0.000 C 
BRANCH  23  24
ATOM     24  C   UNL     1       3.230   3.162  19.460  0.00  0.00    +0.000 A 
ATOM     25  C   UNL     1       2.339   2.917  18.402  0.00  0.00    +0.000 A 
ATOM     26  C   UNL     1       0.978   2.719  18.640  0.00  0.00    +0.000 A 
ATOM     27  C   UNL     1       0.483   2.758  19.942  0.00  0.00    +0.000 A 
ATOM     28  C   UNL     1       1.353   2.990  21.005  0.00  0.00    +0.000 A 
ATOM     29  C   UNL     1       2.717   3.182  20.767  0.00  0.00    +0.000 A 
ENDBRANCH  23  24
ENDBRANCH  21  23
ENDBRANCH   5  21
TORSDOF 9
ENDMDL
MODEL 6
REMARK VINA RESULT:      -8.2      1.034      1.395
REMARK  Name = 
REMARK  11 active torsions:
REMARK  status: ('A' for Active; 'I' for Inactive)
REMARK    1  A    between atoms: C_1  and  C_2
REMARK    2  A    between atoms: C_2  and  O_3
REMARK    3  A    between atoms: O_3  and  P_4
REMARK    4  A    between atoms: P_4  and  O_6
REMARK    5  A    between atoms: P_4  and  C_9
REMARK    6  A    between atoms: O_6  and  C_7
REMARK    7  A    between atoms: C_7  and  C_8
REMARK    8  A    between atoms: C_11  and  C_12
REMARK    9  A    between atoms: C_20  and  N_21
REMARK   10  A    between atoms: N_21  and  C_22
REMARK   11  A    between atoms: C_22  and  C_23
REMARK                            x       y       z     vdW  Elec       q    Type
REMARK                         _______ _______ _______ _____ _____    ______ ____
ROOT
ATOM      1  C   UNL     1       5.067   5.862  17.643  0.00  0.00    +0.000 A 
ATOM      2  N   UNL     1       4.170   6.890  17.389  0.00  0.00    +0.000 NA
ATOM      3  C   UNL     1       3.464   6.967  18.494  0.00  0.00    +0.000 A 
ATOM      4  O   UNL     1       3.734   5.990  19.410  0.00  0.00    +0.000 OA
ATOM      5  C   UNL     1       4.749   5.264  18.847  0.00  0.00    +0.000 A 
ENDROOT
BRANCH   3   6
ATOM      6  C   UNL     1       2.422   7.924  18.829  0.00  0.00    +0.000 A 
ATOM      7  C   UNL     1       1.879   7.920  20.123  0.00  0.00    +0.000 A 
ATOM      8  C   UNL     1       0.835   8.779  20.461  0.00  0.00    +0.000 A 
ATOM      9  C   UNL     1       0.320   9.636  19.497  0.00  0.00    +0.000 A 
ATOM     10  F   UNL     1      -0.702  10.443  19.812  0.00  0.00    +0.000 F 
ATOM     11  C   UNL     1       0.838   9.655  18.206  0.00  0.00    +0.000 A 
ATOM     12  C   UNL     1       1.896   8.806  17.872  0.00  0.00    +0.000 A 
ENDBRANCH   3   6
BRANCH   1  13
ATOM     13  P   UNL     1       6.345   5.300  16.461  0.00  0.00    +0.000 P 
ATOM     14  O   UNL     1       6.901   4.464  17.621  0.00  0.00    +0.000 OA
BRANCH  13  15
ATOM     15  O   UNL     1       7.554   4.768  15.343  0.00  0.00    +0.000 OA
BRANCH  15  17
ATOM     16  C   UNL     1       6.177   3.832  13.614  0.00  0.00    +0.000 C 
ATOM     17  C   UNL     1       7.152   4.928  13.987  0.00  0.00    +0.000 C 
ENDBRANCH  15  17
ENDBRANCH  13  15
BRANCH  13  18
ATOM     18  O   UNL     1       7.087   6.783  16.483  0.00  0.00    +0.000 OA
BRANCH  18  19
ATOM     19  C   UNL     1       7.693   7.280  17.665  0.00  0.00    +0.000 C 
ATOM     20  C   UNL     1       7.875   8.783  17.657  0.00  0.00    +0.000 C 
ENDBRANCH  18  19
ENDBRANCH  13  18
ENDBRANCH   1  13
BRANCH   5  21
ATOM     21  N   UNL     1       5.225   4.193  19.524  0.00  0.00    +0.000 N 
ATOM     22  H   UNL     1       5.470   4.382  20.500  0.00  0.00    +0.000 HD
BRANCH  21  23
ATOM     23  C   UNL     1       4.606   2.892  19.318  0.00  0.00    +0.000 C 
BRANCH  23  24
ATOM     24  C   UNL     1       3.119   2.893  19.614  0.00  0.00    +0.000 A 
ATOM     25  C   UNL     1       2.224   2.690  18.551  0.00  0.00    +0.000 A 
ATOM     26  C   UNL     1       0.849   2.593  18.778  0.00  0.00    +0.000 A 
ATOM     27  C   UNL     1       0.346   2.693  20.073  0.00  0.00    +0.000 A 
ATOM     28  C   UNL     1       1.220   2.885  21.141  0.00  0.00    +0.000 A 
ATOM     29  C   UNL     1       2.597   2.976  20.914  0.00  0.00    +0.000 A 
ENDBRANCH  23  24
ENDBRANCH  21  23
ENDBRANCH   5  21
TORSDOF 9
ENDMDL
MODEL 7
REMARK VINA RESULT:      -7.8      1.183      1.392
REMARK  Name = 
REMARK  11 active torsions:
REMARK  status: ('A' for Active; 'I' for Inactive)
REMARK    1  A    between atoms: C_1  and  C_2
REMARK    2  A    between atoms: C_2  and  O_3
REMARK    3  A    between atoms: O_3  and  P_4
REMARK    4  A    between atoms: P_4  and  O_6
REMARK    5  A    between atoms: P_4  and  C_9
REMARK    6  A    between atoms: O_6  and  C_7
REMARK    7  A    between atoms: C_7  and  C_8
REMARK    8  A    between atoms: C_11  and  C_12
REMARK    9  A    between atoms: C_20  and  N_21
REMARK   10  A    between atoms: N_21  and  C_22
REMARK   11  A    between atoms: C_22  and  C_23
REMARK                            x       y       z     vdW  Elec       q    Type
REMARK                         _______ _______ _______ _____ _____    ______ ____
ROOT
ATOM      1  C   UNL     1       4.429   6.422  17.552  0.00  0.00    +0.000 A 
ATOM      2  N   UNL     1       3.453   7.390  17.367  0.00  0.00    +0.000 NA
ATOM      3  C   UNL     1       2.888   7.492  18.548  0.00  0.00    +0.000 A 
ATOM      4  O   UNL     1       3.323   6.579  19.467  0.00  0.00    +0.000 OA
ATOM      5  C   UNL     1       4.298   5.875  18.813  0.00  0.00    +0.000 A 
ENDROOT
BRANCH   3   6
ATOM      6  C   UNL     1       1.846   8.414  18.968  0.00  0.00    +0.000 A 
ATOM      7  C   UNL     1       1.391   8.374  20.295  0.00  0.00    +0.000 A 
ATOM      8  C   UNL     1       0.348   9.198  20.717  0.00  0.00    +0.000 A 
ATOM      9  C   UNL     1      -0.253  10.056  19.805  0.00  0.00    +0.000 A 
ATOM     10  F   UNL     1      -1.272  10.829  20.201  0.00  0.00    +0.000 F 
ATOM     11  C   UNL     1       0.178  10.110  18.483  0.00  0.00    +0.000 A 
ATOM     12  C   UNL     1       1.233   9.296  18.064  0.00  0.00    +0.000 A 
ENDBRANCH   3   6
BRANCH   1  13
ATOM     13  P   UNL     1       5.578   5.859  16.243  0.00  0.00    +0.000 P 
ATOM     14  O   UNL     1       4.641   4.656  16.083  0.00  0.00    +0.000 OA
BRANCH  13  15
ATOM     15  O   UNL     1       6.664   5.328  15.006  0.00  0.00    +0.000 OA
BRANCH  15  17
ATOM     16  C   UNL     1       6.441   3.920  13.075  0.00  0.00    +0.000 C 
ATOM     17  C   UNL     1       6.402   3.993  14.586  0.00  0.00    +0.000 C 
ENDBRANCH  15  17
ENDBRANCH  13  15
BRANCH  13  18
ATOM     18  O   UNL     1       6.739   5.472  17.362  0.00  0.00    +0.000 OA
BRANCH  18  19
ATOM     19  C   UNL     1       7.747   6.403  17.723  0.00  0.00    +0.000 C 
ATOM     20  C   UNL     1       7.381   7.835  17.395  0.00  0.00    +0.000 C 
ENDBRANCH  18  19
ENDBRANCH  13  18
ENDBRANCH   1  13
BRANCH   5  21
ATOM     21  N   UNL     1       4.913   4.865  19.473  0.00  0.00    +0.000 N 
ATOM     22  H   UNL     1       5.039   5.029  20.476  0.00  0.00    +0.000 HD
BRANCH  21  23
ATOM     23  C   UNL     1       4.570   3.490  19.143  0.00  0.00    +0.000 C 
BRANCH  23  24
ATOM     24  C   UNL     1       3.118   3.160  19.423  0.00  0.00    +0.000 A 
ATOM     25  C   UNL     1       2.646   3.275  20.741  0.00  0.00    +0.000 A 
ATOM     26  C   UNL     1       1.298   3.070  21.042  0.00  0.00    +0.000 A 
ATOM     27  C   UNL     1       0.397   2.750  20.030  0.00  0.00    +0.000 A 
ATOM     28  C   UNL     1       0.844   2.642  18.715  0.00  0.00    +0.000 A 
ATOM     29  C   UNL     1       2.192   2.853  18.412  0.00  0.00    +0.000 A 
ENDBRANCH  23  24
ENDBRANCH  21  23
ENDBRANCH   5  21
TORSDOF 9
ENDMDL
MODEL 8
REMARK VINA RESULT:      -7.8      1.098      1.246
REMARK  Name = 
REMARK  11 active torsions:
REMARK  status: ('A' for Active; 'I' for Inactive)
REMARK    1  A    between atoms: C_1  and  C_2
REMARK    2  A    between atoms: C_2  and  O_3
REMARK    3  A    between atoms: O_3  and  P_4
REMARK    4  A    between atoms: P_4  and  O_6
REMARK    5  A    between atoms: P_4  and  C_9
REMARK    6  A    between atoms: O_6  and  C_7
REMARK    7  A    between atoms: C_7  and  C_8
REMARK    8  A    between atoms: C_11  and  C_12
REMARK    9  A    between atoms: C_20  and  N_21
REMARK   10  A    between atoms: N_21  and  C_22
REMARK   11  A    between atoms: C_22  and  C_23
REMARK                            x       y       z     vdW  Elec       q    Type
REMARK                         _______ _______ _______ _____ _____    ______ ____
ROOT
ATOM      1  C   UNL     1       4.763   5.497  17.507  0.00  0.00    +0.000 A 
ATOM      2  N   UNL     1       3.822   6.516  17.450  0.00  0.00    +0.000 NA
ATOM      3  C   UNL     1       3.380   6.599  18.684  0.00  0.00    +0.000 A 
ATOM      4  O   UNL     1       3.857   5.634  19.525  0.00  0.00    +0.000 OA
ATOM      5  C   UNL     1       4.728   4.910  18.756  0.00  0.00    +0.000 A 
ENDROOT
BRANCH   3   6
ATOM      6  C   UNL     1       2.430   7.552  19.235  0.00  0.00    +0.000 A 
ATOM      7  C   UNL     1       1.905   7.331  20.517  0.00  0.00    +0.000 A 
ATOM      8  C   UNL     1       0.944   8.188  21.051  0.00  0.00    +0.000 A 
ATOM      9  C   UNL     1       0.493   9.261  20.294  0.00  0.00    +0.000 A 
ATOM     10  F   UNL     1      -0.450  10.069  20.795  0.00  0.00    +0.000 F 
ATOM     11  C   UNL     1       0.994   9.497  19.019  0.00  0.00    +0.000 A 
ATOM     12  C   UNL     1       1.970   8.649  18.490  0.00  0.00    +0.000 A 
ENDBRANCH   3   6
BRANCH   1  13
ATOM     13  P   UNL     1       5.750   4.932  16.074  0.00  0.00    +0.000 P 
ATOM     14  O   UNL     1       6.362   3.904  17.034  0.00  0.00    +0.000 OA
BRANCH  13  15
ATOM     15  O   UNL     1       6.684   4.397  14.719  0.00  0.00    +0.000 OA
BRANCH  15  17
ATOM     16  C   UNL     1       6.746   3.701  12.422  0.00  0.00    +0.000 C 
ATOM     17  C   UNL     1       5.872   3.985  13.624  0.00  0.00    +0.000 C 
ENDBRANCH  15  17
ENDBRANCH  13  15
BRANCH  13  18
ATOM     18  O   UNL     1       6.682   6.303  16.113  0.00  0.00    +0.000 OA
BRANCH  18  19
ATOM     19  C   UNL     1       7.506   6.596  17.230  0.00  0.00    +0.000 C 
ATOM     20  C   UNL     1       7.637   8.079  17.503  0.00  0.00    +0.000 C 
ENDBRANCH  18  19
ENDBRANCH  13  18
ENDBRANCH   1  13
BRANCH   5  21
ATOM     21  N   UNL     1       5.353   3.850  19.320  0.00  0.00    +0.000 N 
ATOM     22  H   UNL     1       5.866   4.067  20.178  0.00  0.00    +0.000 HD
BRANCH  21  23
ATOM     23  C   UNL     1       4.676   2.562  19.351  0.00  0.00    +0.000 C 
BRANCH  23  24
ATOM     24  C   UNL     1       3.187   2.686  19.604  0.00  0.00    +0.000 A 
ATOM     25  C   UNL     1       2.744   2.881  20.923  0.00  0.00    +0.000 A 
ATOM     26  C   UNL     1       1.392   3.089  21.204  0.00  0.00    +0.000 A 
ATOM     27  C   UNL     1       0.459   3.110  20.170  0.00  0.00    +0.000 A 
ATOM     28  C   UNL     1       0.880   2.928  18.854  0.00  0.00    +0.000 A 
ATOM     29  C   UNL     1       2.235   2.725  18.573  0.00  0.00    +0.000 A 
ENDBRANCH  23  24
ENDBRANCH  21  23
ENDBRANCH   5  21
TORSDOF 9
ENDMDL
MODEL 9
REMARK VINA RESULT:      -7.6      0.864      1.396
REMARK  Name = 
REMARK  11 active torsions:
REMARK  status: ('A' for Active; 'I' for Inactive)
REMARK    1  A    between atoms: C_1  and  C_2
REMARK    2  A    between atoms: C_2  and  O_3
REMARK    3  A    between atoms: O_3  and  P_4
REMARK    4  A    between atoms: P_4  and  O_6
REMARK    5  A    between atoms: P_4  and  C_9
REMARK    6  A    between atoms: O_6  and  C_7
REMARK    7  A    between atoms: C_7  and  C_8
REMARK    8  A    between atoms: C_11  and  C_12
REMARK    9  A    between atoms: C_20  and  N_21
REMARK   10  A    between atoms: N_21  and  C_22
REMARK   11  A    between atoms: C_22  and  C_23
REMARK                            x       y       z     vdW  Elec       q    Type
REMARK                         _______ _______ _______ _____ _____    ______ ____
ROOT
ATOM      1  C   UNL     1       4.134   6.590  17.452  0.00  0.00    +0.000 A 
ATOM      2  N   UNL     1       3.709   7.850  17.850  0.00  0.00    +0.000 NA
ATOM      3  C   UNL     1       2.502   7.636  18.322  0.00  0.00    +0.000 A 
ATOM      4  O   UNL     1       2.042   6.361  18.151  0.00  0.00    +0.000 OA
ATOM      5  C   UNL     1       3.087   5.696  17.568  0.00  0.00    +0.000 A 
ENDROOT
BRANCH   3   6
ATOM      6  C   UNL     1       1.602   8.590  18.950  0.00  0.00    +0.000 A 
ATOM      7  C   UNL     1       1.046   9.619  18.175  0.00  0.00    +0.000 A 
ATOM      8  C   UNL     1       0.231  10.589  18.757  0.00  0.00    +0.000 A 
ATOM      9  C   UNL     1      -0.017  10.540  20.122  0.00  0.00    +0.000 A 
ATOM     10  F   UNL     1      -0.777  11.487  20.687  0.00  0.00    +0.000 F 
ATOM     11  C   UNL     1       0.528   9.533  20.912  0.00  0.00    +0.000 A 
ATOM     12  C   UNL     1       1.331   8.551  20.327  0.00  0.00    +0.000 A 
ENDBRANCH   3   6
BRANCH   1  13
ATOM     13  P   UNL     1       5.777   6.243  16.726  0.00  0.00    +0.000 P 
ATOM     14  O   UNL     1       5.859   5.085  17.727  0.00  0.00    +0.000 OA
BRANCH  13  15
ATOM     15  O   UNL     1       7.331   5.915  16.039  0.00  0.00    +0.000 OA
BRANCH  15  17
ATOM     16  C   UNL     1       5.995   4.710  14.450  0.00  0.00    +0.000 C 
ATOM     17  C   UNL     1       7.319   4.781  15.179  0.00  0.00    +0.000 C 
ENDBRANCH  15  17
ENDBRANCH  13  15
BRANCH  13  18
ATOM     18  O   UNL     1       6.429   7.594  17.434  0.00  0.00    +0.000 OA
BRANCH  18  19
ATOM     19  C   UNL     1       7.833   7.747  17.562  0.00  0.00    +0.000 C 
ATOM     20  C   UNL     1       8.244   9.136  18.002  0.00  0.00    +0.000 C 
ENDBRANCH  18  19
ENDBRANCH  13  18
ENDBRANCH   1  13
BRANCH   5  21
ATOM     21  N   UNL     1       2.921   4.391  17.250  0.00  0.00    +0.000 N 
ATOM     22  H   UNL     1       3.782   3.838  17.265  0.00  0.00    +0.000 HD
BRANCH  21  23
ATOM     23  C   UNL     1       1.759   3.679  17.762  0.00  0.00    +0.000 C 
BRANCH  23  24
ATOM     24  C   UNL     1       1.940   3.204  19.189  0.00  0.00    +0.000 A 
ATOM     25  C   UNL     1       3.190   2.689  19.571  0.00  0.00    +0.000 A 
ATOM     26  C   UNL     1       3.441   2.319  20.894  0.00  0.00    +0.000 A 
ATOM     27  C   UNL     1       2.447   2.460  21.860  0.00  0.00    +0.000 A 
ATOM     28  C   UNL     1       1.204   2.978  21.502  0.00  0.00    +0.000 A 
ATOM     29  C   UNL     1       0.955   3.354  20.179  0.00  0.00    +0.000 A 
ENDBRANCH  23  24
ENDBRANCH  21  23
ENDBRANCH   5  21
TORSDOF 9
ENDMDL
