MODEL 1
REMARK VINA RESULT:      -8.9      0.000      0.000
REMARK  Name = 
REMARK  10 active torsions:
REMARK  status: ('A' for Active; 'I' for Inactive)
REMARK    1  A    between atoms: C_1  and  N_2
REMARK    2  A    between atoms: N_2  and  C_3
REMARK    3  A    between atoms: C_4  and  C_6
REMARK    4  A    between atoms: C_6  and  N_7
REMARK    5  A    between atoms: C_10  and  C_11
REMARK    6  A    between atoms: C_14  and  N_15
REMARK    7  A    between atoms: C_19  and  C_20
REMARK    8  A    between atoms: C_24  and  N_25
REMARK    9  A    between atoms: N_25  and  C_26
REMARK   10  A    between atoms: N_25  and  C_27
REMARK                            x       y       z     vdW  Elec       q    Type
REMARK                         _______ _______ _______ _____ _____    ______ ____
ROOT
ATOM      1  N   UNL     1       1.421   6.565  21.205  0.00  0.00    +0.000 N 
ATOM      2  C   UNL     1       1.812   5.472  20.518  0.00  0.00    +0.000 A 
ATOM      3  N   UNL     1       2.615   5.619  19.436  0.00  0.00    +0.000 NA
ATOM      4  C   UNL     1       2.851   4.386  19.051  0.00  0.00    +0.000 A 
ATOM      5  C   UNL     1       3.636   3.858  17.982  0.00  0.00    +0.000 A 
ATOM      6  C   UNL     1       3.703   2.515  17.830  0.00  0.00    +0.000 A 
ATOM      7  C   UNL     1       2.981   1.609  18.717  0.00  0.00    +0.000 A 
ATOM      8  C   UNL     1       2.241   2.122  19.716  0.00  0.00    +0.000 A 
ATOM      9  N   UNL     1       2.179   3.503  19.890  0.00  0.00    +0.000 N 
ATOM     10  N   UNL     1       1.516   4.213  20.840  0.00  0.00    +0.000 NA
ATOM     11  H   UNL     1       0.826   6.394  22.010  0.00  0.00    +0.000 HD
ENDROOT
BRANCH   1  15
ATOM     12  C   UNL     1       1.126  10.584  19.826  0.00  0.00    +0.000 A 
ATOM     13  C   UNL     1       1.449   9.542  18.951  0.00  0.00    +0.000 A 
ATOM     14  C   UNL     1       1.574   8.223  19.406  0.00  0.00    +0.000 A 
ATOM     15  C   UNL     1       1.339   7.890  20.742  0.00  0.00    +0.000 A 
ATOM     16  C   UNL     1       1.009   8.920  21.625  0.00  0.00    +0.000 A 
ATOM     17  C   UNL     1       0.914  10.246  21.176  0.00  0.00    +0.000 A 
BRANCH  12  21
ATOM     18  N   UNL     1      -1.760  13.126  20.185  0.00  0.00    +0.000 NA
ATOM     19  C   UNL     1      -0.634  13.099  21.131  0.00  0.00    +0.000 C 
ATOM     20  C   UNL     1       0.750  13.099  20.469  0.00  0.00    +0.000 C 
ATOM     21  C   UNL     1       0.910  12.029  19.374  0.00  0.00    +0.000 C 
ATOM     22  C   UNL     1      -0.256  12.209  18.391  0.00  0.00    +0.000 C 
ATOM     23  C   UNL     1      -1.612  12.152  19.088  0.00  0.00    +0.000 C 
BRANCH  18  24
ATOM     24  C   UNL     1      -3.035  12.822  20.899  0.00  0.00    +0.000 C 
BRANCH  24  28
ATOM     25  C   UNL     1      -4.091  14.703  24.083  0.00  0.00    +0.000 C 
ATOM     26  N   UNL     1      -3.725  13.623  23.185  0.00  0.00    +0.000 N 
ATOM     27  C   UNL     1      -3.455  12.312  23.750  0.00  0.00    +0.000 C 
ATOM     28  C   UNL     1      -3.486  13.943  21.852  0.00  0.00    +0.000 C 
ATOM     29  O   UNL     1      -3.586  15.103  21.437  0.00  0.00    +0.000 OA
ENDBRANCH  24  28
ENDBRANCH  18  24
ENDBRANCH  12  21
ENDBRANCH   1  15
BRANCH   5  30
ATOM     30  C   UNL     1       4.376   4.740  17.054  0.00  0.00    +0.000 A 
ATOM     31  C   UNL     1       4.303   6.125  17.197  0.00  0.00    +0.000 A 
ATOM     32  C   UNL     1       4.908   6.936  16.246  0.00  0.00    +0.000 A 
ATOM     33  C   UNL     1       5.585   6.364  15.160  0.00  0.00    +0.000 A 
ATOM     34  C   UNL     1       5.693   4.974  14.983  0.00  0.00    +0.000 A 
ATOM     35  C   UNL     1       5.070   4.182  15.964  0.00  0.00    +0.000 A 
BRANCH  34  36
ATOM     36  N   UNL     1       6.415   4.434  13.925  0.00  0.00    +0.000 N 
ATOM     37  C   UNL     1       7.640   5.082  13.446  0.00  0.00    +0.000 C 
ATOM     38  C   UNL     1       5.810   3.518  12.963  0.00  0.00    +0.000 C 
ENDBRANCH  34  36
ENDBRANCH   5  30
TORSDOF 6
ENDMDL
MODEL 2
REMARK VINA RESULT:      -8.8      1.357      1.895
REMARK  Name = 
REMARK  10 active torsions:
REMARK  status: ('A' for Active; 'I' for Inactive)
REMARK    1  A    between atoms: C_1  and  N_2
REMARK    2  A    between atoms: N_2  and  C_3
REMARK    3  A    between atoms: C_4  and  C_6
REMARK    4  A    between atoms: C_6  and  N_7
REMARK    5  A    between atoms: C_10  and  C_11
REMARK    6  A    between atoms: C_14  and  N_15
REMARK    7  A    between atoms: C_19  and  C_20
REMARK    8  A    between atoms: C_24  and  N_25
REMARK    9  A    between atoms: N_25  and  C_26
REMARK   10  A    between atoms: N_25  and  C_27
REMARK                            x       y       z     vdW  Elec       q    Type
REMARK                         _______ _______ _______ _____ _____    ______ ____
ROOT
ATOM      1  N   UNL     1       1.257   6.487  21.168  0.00  0.00    +0.000 N 
ATOM      2  C   UNL     1       1.698   5.411  20.484  0.00  0.00    +0.000 A 
ATOM      3  N   UNL     1       2.643   5.575  19.525  0.00  0.00    +0.000 NA
ATOM      4  C   UNL     1       2.885   4.352  19.112  0.00  0.00    +0.000 A 
ATOM      5  C   UNL     1       3.787   3.843  18.130  0.00  0.00    +0.000 A 
ATOM      6  C   UNL     1       3.828   2.506  17.921  0.00  0.00    +0.000 A 
ATOM      7  C   UNL     1       2.965   1.591  18.658  0.00  0.00    +0.000 A 
ATOM      8  C   UNL     1       2.117   2.087  19.576  0.00  0.00    +0.000 A 
ATOM      9  N   UNL     1       2.079   3.460  19.811  0.00  0.00    +0.000 N 
ATOM     10  N   UNL     1       1.320   4.152  20.700  0.00  0.00    +0.000 NA
ATOM     11  H   UNL     1       0.555   6.303  21.878  0.00  0.00    +0.000 HD
ENDROOT
BRANCH   1  15
ATOM     12  C   UNL     1       1.288  10.576  19.976  0.00  0.00    +0.000 A 
ATOM     13  C   UNL     1       1.478   9.550  19.044  0.00  0.00    +0.000 A 
ATOM     14  C   UNL     1       1.497   8.206  19.437  0.00  0.00    +0.000 A 
ATOM     15  C   UNL     1       1.282   7.834  20.766  0.00  0.00    +0.000 A 
ATOM     16  C   UNL     1       1.084   8.847  21.705  0.00  0.00    +0.000 A 
ATOM     17  C   UNL     1       1.097  10.197  21.317  0.00  0.00    +0.000 A 
BRANCH  12  21
ATOM     18  N   UNL     1      -1.498  13.243  20.179  0.00  0.00    +0.000 NA
ATOM     19  C   UNL     1      -0.487  13.101  21.238  0.00  0.00    +0.000 C 
ATOM     20  C   UNL     1       0.960  13.066  20.731  0.00  0.00    +0.000 C 
ATOM     21  C   UNL     1       1.192  12.054  19.595  0.00  0.00    +0.000 C 
ATOM     22  C   UNL     1       0.152  12.352  18.505  0.00  0.00    +0.000 C 
ATOM     23  C   UNL     1      -1.274  12.328  19.045  0.00  0.00    +0.000 C 
BRANCH  18  24
ATOM     24  C   UNL     1      -2.857  12.967  20.730  0.00  0.00    +0.000 C 
BRANCH  24  28
ATOM     25  C   UNL     1      -4.086  14.794  23.883  0.00  0.00    +0.000 C 
ATOM     26  N   UNL     1      -3.660  13.731  22.992  0.00  0.00    +0.000 N 
ATOM     27  C   UNL     1      -3.385  12.421  23.556  0.00  0.00    +0.000 C 
ATOM     28  C   UNL     1      -3.372  14.069  21.672  0.00  0.00    +0.000 C 
ATOM     29  O   UNL     1      -3.480  15.230  21.263  0.00  0.00    +0.000 OA
ENDBRANCH  24  28
ENDBRANCH  18  24
ENDBRANCH  12  21
ENDBRANCH   1  15
BRANCH   5  30
ATOM     30  C   UNL     1       4.673   4.736  17.353  0.00  0.00    +0.000 A 
ATOM     31  C   UNL     1       4.555   4.803  15.965  0.00  0.00    +0.000 A 
ATOM     32  C   UNL     1       5.473   5.555  15.243  0.00  0.00    +0.000 A 
ATOM     33  C   UNL     1       6.500   6.239  15.907  0.00  0.00    +0.000 A 
ATOM     34  C   UNL     1       6.650   6.208  17.305  0.00  0.00    +0.000 A 
ATOM     35  C   UNL     1       5.704   5.438  18.004  0.00  0.00    +0.000 A 
BRANCH  34  36
ATOM     36  N   UNL     1       7.648   6.937  17.941  0.00  0.00    +0.000 N 
ATOM     37  C   UNL     1       8.225   6.472  19.206  0.00  0.00    +0.000 C 
ATOM     38  C   UNL     1       7.855   8.358  17.679  0.00  0.00    +0.000 C 
ENDBRANCH  34  36
ENDBRANCH   5  30
TORSDOF 6
ENDMDL
MODEL 3
REMARK VINA RESULT:      -8.7      1.709      2.375
REMARK  Name = 
REMARK  10 active torsions:
REMARK  status: ('A' for Active; 'I' for Inactive)
REMARK    1  A    between atoms: C_1  and  N_2
REMARK    2  A    between atoms: N_2  and  C_3
REMARK    3  A    between atoms: C_4  and  C_6
REMARK    4  A    between atoms: C_6  and  N_7
REMARK    5  A    between atoms: C_10  and  C_11
REMARK    6  A    between atoms: C_14  and  N_15
REMARK    7  A    between atoms: C_19  and  C_20
REMARK    8  A    between atoms: C_24  and  N_25
REMARK    9  A    between atoms: N_25  and  C_26
REMARK   10  A    between atoms: N_25  and  C_27
REMARK                            x       y       z     vdW  Elec       q    Type
REMARK                         _______ _______ _______ _____ _____    ______ ____
ROOT
ATOM      1  N   UNL     1       1.252   6.768  20.952  0.00  0.00    +0.000 N 
ATOM      2  C   UNL     1       1.669   5.617  20.385  0.00  0.00    +0.000 A 
ATOM      3  N   UNL     1       2.631   5.657  19.431  0.00  0.00    +0.000 NA
ATOM      4  C   UNL     1       2.840   4.393  19.144  0.00  0.00    +0.000 A 
ATOM      5  C   UNL     1       3.739   3.762  18.233  0.00  0.00    +0.000 A 
ATOM      6  C   UNL     1       3.740   2.410  18.156  0.00  0.00    +0.000 A 
ATOM      7  C   UNL     1       2.837   1.599  18.964  0.00  0.00    +0.000 A 
ATOM      8  C   UNL     1       1.993   2.208  19.815  0.00  0.00    +0.000 A 
ATOM      9  N   UNL     1       1.996   3.598  19.913  0.00  0.00    +0.000 N 
ATOM     10  N   UNL     1       1.246   4.397  20.717  0.00  0.00    +0.000 NA
ATOM     11  H   UNL     1       0.535   6.677  21.665  0.00  0.00    +0.000 HD
ENDROOT
BRANCH   1  15
ATOM     12  C   UNL     1       1.429  10.715  19.361  0.00  0.00    +0.000 A 
ATOM     13  C   UNL     1       1.724   9.601  18.567  0.00  0.00    +0.000 A 
ATOM     14  C   UNL     1       1.694   8.305  19.094  0.00  0.00    +0.000 A 
ATOM     15  C   UNL     1       1.326   8.068  20.421  0.00  0.00    +0.000 A 
ATOM     16  C   UNL     1       1.023   9.169  21.223  0.00  0.00    +0.000 A 
ATOM     17  C   UNL     1       1.083  10.472  20.703  0.00  0.00    +0.000 A 
BRANCH  12  21
ATOM     18  N   UNL     1       0.417  14.130  20.854  0.00  0.00    +0.000 NA
ATOM     19  C   UNL     1       1.816  13.677  20.843  0.00  0.00    +0.000 C 
ATOM     20  C   UNL     1       2.311  13.182  19.478  0.00  0.00    +0.000 C 
ATOM     21  C   UNL     1       1.380  12.146  18.823  0.00  0.00    +0.000 C 
ATOM     22  C   UNL     1      -0.029  12.756  18.797  0.00  0.00    +0.000 C 
ATOM     23  C   UNL     1      -0.497  13.188  20.183  0.00  0.00    +0.000 C 
BRANCH  18  24
ATOM     24  C   UNL     1      -0.053  14.302  22.260  0.00  0.00    +0.000 C 
BRANCH  24  28
ATOM     25  C   UNL     1      -3.207  12.337  23.249  0.00  0.00    +0.000 C 
ATOM     26  N   UNL     1      -2.340  13.431  22.853  0.00  0.00    +0.000 N 
ATOM     27  C   UNL     1      -2.950  14.679  22.425  0.00  0.00    +0.000 C 
ATOM     28  C   UNL     1      -0.977  13.171  22.741  0.00  0.00    +0.000 C 
ATOM     29  O   UNL     1      -0.512  12.051  22.975  0.00  0.00    +0.000 OA
ENDBRANCH  24  28
ENDBRANCH  18  24
ENDBRANCH  12  21
ENDBRANCH   1  15
BRANCH   5  30
ATOM     30  C   UNL     1       4.665   4.546  17.387  0.00  0.00    +0.000 A 
ATOM     31  C   UNL     1       4.626   4.413  16.000  0.00  0.00    +0.000 A 
ATOM     32  C   UNL     1       5.581   5.067  15.231  0.00  0.00    +0.000 A 
ATOM     33  C   UNL     1       6.565   5.852  15.848  0.00  0.00    +0.000 A 
ATOM     34  C   UNL     1       6.634   6.022  17.242  0.00  0.00    +0.000 A 
ATOM     35  C   UNL     1       5.652   5.347  17.989  0.00  0.00    +0.000 A 
BRANCH  34  36
ATOM     36  N   UNL     1       7.590   6.847  17.822  0.00  0.00    +0.000 N 
ATOM     37  C   UNL     1       8.226   6.480  19.091  0.00  0.00    +0.000 C 
ATOM     38  C   UNL     1       7.689   8.266  17.496  0.00  0.00    +0.000 C 
ENDBRANCH  34  36
ENDBRANCH   5  30
TORSDOF 6
ENDMDL
MODEL 4
REMARK VINA RESULT:      -8.7      0.860      1.094
REMARK  Name = 
REMARK  10 active torsions:
REMARK  status: ('A' for Active; 'I' for Inactive)
REMARK    1  A    between atoms: C_1  and  N_2
REMARK    2  A    between atoms: N_2  and  C_3
REMARK    3  A    between atoms: C_4  and  C_6
REMARK    4  A    between atoms: C_6  and  N_7
REMARK    5  A    between atoms: C_10  and  C_11
REMARK    6  A    between atoms: C_14  and  N_15
REMARK    7  A    between atoms: C_19  and  C_20
REMARK    8  A    between atoms: C_24  and  N_25
REMARK    9  A    between atoms: N_25  and  C_26
REMARK   10  A    between atoms: N_25  and  C_27
REMARK                            x       y       z     vdW  Elec       q    Type
REMARK                         _______ _______ _______ _____ _____    ______ ____
ROOT
ATOM      1  N   UNL     1       1.481   6.405  21.231  0.00  0.00    +0.000 N 
ATOM      2  C   UNL     1       1.900   5.323  20.542  0.00  0.00    +0.000 A 
ATOM      3  N   UNL     1       2.697   5.493  19.458  0.00  0.00    +0.000 NA
ATOM      4  C   UNL     1       2.964   4.267  19.070  0.00  0.00    +0.000 A 
ATOM      5  C   UNL     1       3.761   3.762  17.999  0.00  0.00    +0.000 A 
ATOM      6  C   UNL     1       3.863   2.421  17.845  0.00  0.00    +0.000 A 
ATOM      7  C   UNL     1       3.167   1.496  18.731  0.00  0.00    +0.000 A 
ATOM      8  C   UNL     1       2.416   1.987  19.732  0.00  0.00    +0.000 A 
ATOM      9  N   UNL     1       2.318   3.366  19.909  0.00  0.00    +0.000 N 
ATOM     10  N   UNL     1       1.638   4.056  20.862  0.00  0.00    +0.000 NA
ATOM     11  H   UNL     1       0.893   6.216  22.036  0.00  0.00    +0.000 HD
ENDROOT
BRANCH   1  15
ATOM     12  C   UNL     1       1.076  10.415  19.853  0.00  0.00    +0.000 A 
ATOM     13  C   UNL     1       1.584   9.412  19.020  0.00  0.00    +0.000 A 
ATOM     14  C   UNL     1       1.744   8.099  19.479  0.00  0.00    +0.000 A 
ATOM     15  C   UNL     1       1.364   7.728  20.770  0.00  0.00    +0.000 A 
ATOM     16  C   UNL     1       0.850   8.717  21.610  0.00  0.00    +0.000 A 
ATOM     17  C   UNL     1       0.717  10.041  21.162  0.00  0.00    +0.000 A 
BRANCH  12  21
ATOM     18  N   UNL     1      -1.748  12.980  20.450  0.00  0.00    +0.000 NA
ATOM     19  C   UNL     1      -0.527  12.973  21.269  0.00  0.00    +0.000 C 
ATOM     20  C   UNL     1       0.777  12.948  20.463  0.00  0.00    +0.000 C 
ATOM     21  C   UNL     1       0.816  11.848  19.387  0.00  0.00    +0.000 C 
ATOM     22  C   UNL     1      -0.448  12.007  18.531  0.00  0.00    +0.000 C 
ATOM     23  C   UNL     1      -1.722  11.976  19.371  0.00  0.00    +0.000 C 
BRANCH  18  24
ATOM     24  C   UNL     1      -2.939  12.703  21.305  0.00  0.00    +0.000 C 
BRANCH  24  28
ATOM     25  C   UNL     1      -6.210  14.633  20.699  0.00  0.00    +0.000 C 
ATOM     26  N   UNL     1      -5.210  13.582  20.660  0.00  0.00    +0.000 N 
ATOM     27  C   UNL     1      -5.590  12.280  20.141  0.00  0.00    +0.000 C 
ATOM     28  C   UNL     1      -3.988  13.829  21.280  0.00  0.00    +0.000 C 
ATOM     29  O   UNL     1      -3.752  14.904  21.841  0.00  0.00    +0.000 OA
ENDBRANCH  24  28
ENDBRANCH  18  24
ENDBRANCH  12  21
ENDBRANCH   1  15
BRANCH   5  30
ATOM     30  C   UNL     1       4.476   4.665  17.071  0.00  0.00    +0.000 A 
ATOM     31  C   UNL     1       4.383   6.047  17.230  0.00  0.00    +0.000 A 
ATOM     32  C   UNL     1       4.963   6.877  16.279  0.00  0.00    +0.000 A 
ATOM     33  C   UNL     1       5.637   6.327  15.180  0.00  0.00    +0.000 A 
ATOM     34  C   UNL     1       5.765   4.940  14.988  0.00  0.00    +0.000 A 
ATOM     35  C   UNL     1       5.166   4.129  15.968  0.00  0.00    +0.000 A 
BRANCH  34  36
ATOM     36  N   UNL     1       6.482   4.422  13.916  0.00  0.00    +0.000 N 
ATOM     37  C   UNL     1       7.665   5.118  13.400  0.00  0.00    +0.000 C 
ATOM     38  C   UNL     1       5.894   3.472  12.977  0.00  0.00    +0.000 C 
ENDBRANCH  34  36
ENDBRANCH   5  30
TORSDOF 6
ENDMDL
MODEL 5
REMARK VINA RESULT:      -8.7      1.100      1.616
REMARK  Name = 
REMARK  10 active torsions:
REMARK  status: ('A' for Active; 'I' for Inactive)
REMARK    1  A    between atoms: C_1  and  N_2
REMARK    2  A    between atoms: N_2  and  C_3
REMARK    3  A    between atoms: C_4  and  C_6
REMARK    4  A    between atoms: C_6  and  N_7
REMARK    5  A    between atoms: C_10  and  C_11
REMARK    6  A    between atoms: C_14  and  N_15
REMARK    7  A    between atoms: C_19  and  C_20
REMARK    8  A    between atoms: C_24  and  N_25
REMARK    9  A    between atoms: N_25  and  C_26
REMARK   10  A    between atoms: N_25  and  C_27
REMARK                            x       y       z     vdW  Elec       q    Type
REMARK                         _______ _______ _______ _____ _____    ______ ____
ROOT
ATOM      1  N   UNL     1       1.395   6.613  21.051  0.00  0.00    +0.000 N 
ATOM      2  C   UNL     1       1.834   5.503  20.422  0.00  0.00    +0.000 A 
ATOM      3  N   UNL     1       2.633   5.628  19.334  0.00  0.00    +0.000 NA
ATOM      4  C   UNL     1       2.921   4.388  19.013  0.00  0.00    +0.000 A 
ATOM      5  C   UNL     1       3.731   3.840  17.973  0.00  0.00    +0.000 A 
ATOM      6  C   UNL     1       3.855   2.494  17.890  0.00  0.00    +0.000 A 
ATOM      7  C   UNL     1       3.169   1.606  18.822  0.00  0.00    +0.000 A 
ATOM      8  C   UNL     1       2.406   2.137  19.792  0.00  0.00    +0.000 A 
ATOM      9  N   UNL     1       2.285   3.522  19.896  0.00  0.00    +0.000 N 
ATOM     10  N   UNL     1       1.590   4.250  20.808  0.00  0.00    +0.000 NA
ATOM     11  H   UNL     1       0.806   6.458  21.863  0.00  0.00    +0.000 HD
ENDROOT
BRANCH   1  15
ATOM     12  C   UNL     1       1.035  10.538  19.438  0.00  0.00    +0.000 A 
ATOM     13  C   UNL     1       0.423  10.195  20.648  0.00  0.00    +0.000 A 
ATOM     14  C   UNL     1       0.516   8.898  21.168  0.00  0.00    +0.000 A 
ATOM     15  C   UNL     1       1.259   7.908  20.520  0.00  0.00    +0.000 A 
ATOM     16  C   UNL     1       1.880   8.238  19.315  0.00  0.00    +0.000 A 
ATOM     17  C   UNL     1       1.761   9.529  18.778  0.00  0.00    +0.000 A 
BRANCH  12  21
ATOM     18  N   UNL     1       0.232  14.036  20.863  0.00  0.00    +0.000 NA
ATOM     19  C   UNL     1       1.609  13.523  20.808  0.00  0.00    +0.000 C 
ATOM     20  C   UNL     1       2.024  12.967  19.440  0.00  0.00    +0.000 C 
ATOM     21  C   UNL     1       1.023  11.953  18.858  0.00  0.00    +0.000 C 
ATOM     22  C   UNL     1      -0.359  12.622  18.870  0.00  0.00    +0.000 C 
ATOM     23  C   UNL     1      -0.749  13.115  20.261  0.00  0.00    +0.000 C 
BRANCH  18  24
ATOM     24  C   UNL     1      -0.170  14.270  22.281  0.00  0.00    +0.000 C 
BRANCH  24  28
ATOM     25  C   UNL     1      -3.239  12.318  23.529  0.00  0.00    +0.000 C 
ATOM     26  N   UNL     1      -2.410  13.403  23.038  0.00  0.00    +0.000 N 
ATOM     27  C   UNL     1      -3.058  14.624  22.591  0.00  0.00    +0.000 C 
ATOM     28  C   UNL     1      -1.052  13.151  22.862  0.00  0.00    +0.000 C 
ATOM     29  O   UNL     1      -0.560  12.047  23.118  0.00  0.00    +0.000 OA
ENDBRANCH  24  28
ENDBRANCH  18  24
ENDBRANCH  12  21
ENDBRANCH   1  15
BRANCH   5  30
ATOM     30  C   UNL     1       4.436   4.703  17.001  0.00  0.00    +0.000 A 
ATOM     31  C   UNL     1       4.352   6.090  17.109  0.00  0.00    +0.000 A 
ATOM     32  C   UNL     1       4.921   6.882  16.119  0.00  0.00    +0.000 A 
ATOM     33  C   UNL     1       5.575   6.287  15.031  0.00  0.00    +0.000 A 
ATOM     34  C   UNL     1       5.693   4.893  14.889  0.00  0.00    +0.000 A 
ATOM     35  C   UNL     1       5.105   4.123  15.908  0.00  0.00    +0.000 A 
BRANCH  34  36
ATOM     36  N   UNL     1       6.391   4.332  13.826  0.00  0.00    +0.000 N 
ATOM     37  C   UNL     1       7.634   4.940  13.341  0.00  0.00    +0.000 C 
ATOM     38  C   UNL     1       5.752   3.438  12.866  0.00  0.00    +0.000 C 
ENDBRANCH  34  36
ENDBRANCH   5  30
TORSDOF 6
ENDMDL
MODEL 6
REMARK VINA RESULT:      -8.6      0.768      1.149
REMARK  Name = 
REMARK  10 active torsions:
REMARK  status: ('A' for Active; 'I' for Inactive)
REMARK    1  A    between atoms: C_1  and  N_2
REMARK    2  A    between atoms: N_2  and  C_3
REMARK    3  A    between atoms: C_4  and  C_6
REMARK    4  A    between atoms: C_6  and  N_7
REMARK    5  A    between atoms: C_10  and  C_11
REMARK    6  A    between atoms: C_14  and  N_15
REMARK    7  A    between atoms: C_19  and  C_20
REMARK    8  A    between atoms: C_24  and  N_25
REMARK    9  A    between atoms: N_25  and  C_26
REMARK   10  A    between atoms: N_25  and  C_27
REMARK                            x       y       z     vdW  Elec       q    Type
REMARK                         _______ _______ _______ _____ _____    ______ ____
ROOT
ATOM      1  N   UNL     1       1.473   6.615  21.143  0.00  0.00    +0.000 N 
ATOM      2  C   UNL     1       1.891   5.507  20.498  0.00  0.00    +0.000 A 
ATOM      3  N   UNL     1       2.676   5.633  19.400  0.00  0.00    +0.000 NA
ATOM      4  C   UNL     1       2.945   4.393  19.063  0.00  0.00    +0.000 A 
ATOM      5  C   UNL     1       3.734   3.845  18.007  0.00  0.00    +0.000 A 
ATOM      6  C   UNL     1       3.841   2.499  17.910  0.00  0.00    +0.000 A 
ATOM      7  C   UNL     1       3.157   1.610  18.842  0.00  0.00    +0.000 A 
ATOM      8  C   UNL     1       2.414   2.141  19.828  0.00  0.00    +0.000 A 
ATOM      9  N   UNL     1       2.311   3.526  19.946  0.00  0.00    +0.000 N 
ATOM     10  N   UNL     1       1.637   4.254  20.875  0.00  0.00    +0.000 NA
ATOM     11  H   UNL     1       0.894   6.460  21.962  0.00  0.00    +0.000 HD
ENDROOT
BRANCH   1  15
ATOM     12  C   UNL     1       1.136  10.556  19.563  0.00  0.00    +0.000 A 
ATOM     13  C   UNL     1       0.766  10.272  20.882  0.00  0.00    +0.000 A 
ATOM     14  C   UNL     1       0.850   8.972  21.396  0.00  0.00    +0.000 A 
ATOM     15  C   UNL     1       1.346   7.917  20.628  0.00  0.00    +0.000 A 
ATOM     16  C   UNL     1       1.725   8.188  19.312  0.00  0.00    +0.000 A 
ATOM     17  C   UNL     1       1.612   9.484  18.786  0.00  0.00    +0.000 A 
BRANCH  12  21
ATOM     18  N   UNL     1      -0.376  13.939  20.651  0.00  0.00    +0.000 NA
ATOM     19  C   UNL     1       1.012  13.576  20.972  0.00  0.00    +0.000 C 
ATOM     20  C   UNL     1       1.829  13.076  19.774  0.00  0.00    +0.000 C 
ATOM     21  C   UNL     1       1.130  11.966  18.970  0.00  0.00    +0.000 C 
ATOM     22  C   UNL     1      -0.268  12.484  18.604  0.00  0.00    +0.000 C 
ATOM     23  C   UNL     1      -1.061  12.922  19.832  0.00  0.00    +0.000 C 
BRANCH  18  24
ATOM     24  C   UNL     1      -1.161  14.119  21.908  0.00  0.00    +0.000 C 
BRANCH  24  28
ATOM     25  C   UNL     1      -4.998  14.367  21.932  0.00  0.00    +0.000 C 
ATOM     26  N   UNL     1      -3.656  13.844  22.109  0.00  0.00    +0.000 N 
ATOM     27  C   UNL     1      -3.481  12.629  22.887  0.00  0.00    +0.000 C 
ATOM     28  C   UNL     1      -2.593  14.628  21.670  0.00  0.00    +0.000 C 
ATOM     29  O   UNL     1      -2.776  15.729  21.140  0.00  0.00    +0.000 OA
ENDBRANCH  24  28
ENDBRANCH  18  24
ENDBRANCH  12  21
ENDBRANCH   1  15
BRANCH   5  30
ATOM     30  C   UNL     1       4.436   4.710  17.034  0.00  0.00    +0.000 A 
ATOM     31  C   UNL     1       4.367   6.097  17.154  0.00  0.00    +0.000 A 
ATOM     32  C   UNL     1       4.933   6.891  16.164  0.00  0.00    +0.000 A 
ATOM     33  C   UNL     1       5.568   6.299  15.064  0.00  0.00    +0.000 A 
ATOM     34  C   UNL     1       5.671   4.905  14.909  0.00  0.00    +0.000 A 
ATOM     35  C   UNL     1       5.088   4.132  15.929  0.00  0.00    +0.000 A 
BRANCH  34  36
ATOM     36  N   UNL     1       6.351   4.346  13.834  0.00  0.00    +0.000 N 
ATOM     37  C   UNL     1       7.598   4.943  13.344  0.00  0.00    +0.000 C 
ATOM     38  C   UNL     1       5.691   3.471  12.870  0.00  0.00    +0.000 C 
ENDBRANCH  34  36
ENDBRANCH   5  30
TORSDOF 6
ENDMDL
MODEL 7
REMARK VINA RESULT:      -8.6      1.848      2.390
REMARK  Name = 
REMARK  10 active torsions:
REMARK  status: ('A' for Active; 'I' for Inactive)
REMARK    1  A    between atoms: C_1  and  N_2
REMARK    2  A    between atoms: N_2  and  C_3
REMARK    3  A    between atoms: C_4  and  C_6
REMARK    4  A    between atoms: C_6  and  N_7
REMARK    5  A    between atoms: C_10  and  C_11
REMARK    6  A    between atoms: C_14  and  N_15
REMARK    7  A    between atoms: C_19  and  C_20
REMARK    8  A    between atoms: C_24  and  N_25
REMARK    9  A    between atoms: N_25  and  C_26
REMARK   10  A    between atoms: N_25  and  C_27
REMARK                            x       y       z     vdW  Elec       q    Type
REMARK                         _______ _______ _______ _____ _____    ______ ____
ROOT
ATOM      1  N   UNL     1       1.447   6.298  21.317  0.00  0.00    +0.000 N 
ATOM      2  C   UNL     1       1.911   5.257  20.596  0.00  0.00    +0.000 A 
ATOM      3  N   UNL     1       2.665   5.494  19.494  0.00  0.00    +0.000 NA
ATOM      4  C   UNL     1       2.995   4.295  19.076  0.00  0.00    +0.000 A 
ATOM      5  C   UNL     1       3.790   3.858  17.974  0.00  0.00    +0.000 A 
ATOM      6  C   UNL     1       3.970   2.529  17.792  0.00  0.00    +0.000 A 
ATOM      7  C   UNL     1       3.359   1.547  18.679  0.00  0.00    +0.000 A 
ATOM      8  C   UNL     1       2.608   1.973  19.710  0.00  0.00    +0.000 A 
ATOM      9  N   UNL     1       2.430   3.340  19.916  0.00  0.00    +0.000 N 
ATOM     10  N   UNL     1       1.737   3.971  20.899  0.00  0.00    +0.000 NA
ATOM     11  H   UNL     1       0.894   6.060  22.135  0.00  0.00    +0.000 HD
ENDROOT
BRANCH   1  15
ATOM     12  C   UNL     1       0.753  10.296  20.022  0.00  0.00    +0.000 A 
ATOM     13  C   UNL     1       1.420   9.377  19.205  0.00  0.00    +0.000 A 
ATOM     14  C   UNL     1       1.675   8.070  19.638  0.00  0.00    +0.000 A 
ATOM     15  C   UNL     1       1.235   7.620  20.885  0.00  0.00    +0.000 A 
ATOM     16  C   UNL     1       0.562   8.524  21.708  0.00  0.00    +0.000 A 
ATOM     17  C   UNL     1       0.334   9.843  21.286  0.00  0.00    +0.000 A 
BRANCH  12  21
ATOM     18  N   UNL     1      -2.496  11.998  18.813  0.00  0.00    +0.000 NA
ATOM     19  C   UNL     1      -2.077  12.048  20.222  0.00  0.00    +0.000 C 
ATOM     20  C   UNL     1      -0.624  12.489  20.435  0.00  0.00    +0.000 C 
ATOM     21  C   UNL     1       0.389  11.713  19.575  0.00  0.00    +0.000 C 
ATOM     22  C   UNL     1      -0.087  11.806  18.119  0.00  0.00    +0.000 C 
ATOM     23  C   UNL     1      -1.520  11.310  17.947  0.00  0.00    +0.000 C 
BRANCH  18  24
ATOM     24  C   UNL     1      -3.800  11.282  18.693  0.00  0.00    +0.000 C 
BRANCH  24  28
ATOM     25  C   UNL     1      -6.617  13.312  17.039  0.00  0.00    +0.000 C 
ATOM     26  N   UNL     1      -5.780  12.702  18.056  0.00  0.00    +0.000 N 
ATOM     27  C   UNL     1      -5.960  13.109  19.439  0.00  0.00    +0.000 C 
ATOM     28  C   UNL     1      -4.736  11.885  17.631  0.00  0.00    +0.000 C 
ATOM     29  O   UNL     1      -4.524  11.677  16.432  0.00  0.00    +0.000 OA
ENDBRANCH  24  28
ENDBRANCH  18  24
ENDBRANCH  12  21
ENDBRANCH   1  15
BRANCH   5  30
ATOM     30  C   UNL     1       4.422   4.819  17.044  0.00  0.00    +0.000 A 
ATOM     31  C   UNL     1       4.239   6.190  17.224  0.00  0.00    +0.000 A 
ATOM     32  C   UNL     1       4.740   7.070  16.273  0.00  0.00    +0.000 A 
ATOM     33  C   UNL     1       5.424   6.581  15.152  0.00  0.00    +0.000 A 
ATOM     34  C   UNL     1       5.641   5.208  14.937  0.00  0.00    +0.000 A 
ATOM     35  C   UNL     1       5.121   4.346  15.918  0.00  0.00    +0.000 A 
BRANCH  34  36
ATOM     36  N   UNL     1       6.367   4.754  13.842  0.00  0.00    +0.000 N 
ATOM     37  C   UNL     1       5.997   3.509  13.162  0.00  0.00    +0.000 C 
ATOM     38  C   UNL     1       7.737   5.188  13.588  0.00  0.00    +0.000 C 
ENDBRANCH  34  36
ENDBRANCH   5  30
TORSDOF 6
ENDMDL
MODEL 8
REMARK VINA RESULT:      -8.5      1.961      2.579
REMARK  Name = 
REMARK  10 active torsions:
REMARK  status: ('A' for Active; 'I' for Inactive)
REMARK    1  A    between atoms: C_1  and  N_2
REMARK    2  A    between atoms: N_2  and  C_3
REMARK    3  A    between atoms: C_4  and  C_6
REMARK    4  A    between atoms: C_6  and  N_7
REMARK    5  A    between atoms: C_10  and  C_11
REMARK    6  A    between atoms: C_14  and  N_15
REMARK    7  A    between atoms: C_19  and  C_20
REMARK    8  A    between atoms: C_24  and  N_25
REMARK    9  A    between atoms: N_25  and  C_26
REMARK   10  A    between atoms: N_25  and  C_27
REMARK                            x       y       z     vdW  Elec       q    Type
REMARK                         _______ _______ _______ _____ _____    ______ ____
ROOT
ATOM      1  N   UNL     1       1.192   6.996  20.740  0.00  0.00    +0.000 N 
ATOM      2  C   UNL     1       1.603   5.811  20.243  0.00  0.00    +0.000 A 
ATOM      3  N   UNL     1       2.599   5.785  19.324  0.00  0.00    +0.000 NA
ATOM      4  C   UNL     1       2.790   4.505  19.104  0.00  0.00    +0.000 A 
ATOM      5  C   UNL     1       3.706   3.813  18.257  0.00  0.00    +0.000 A 
ATOM      6  C   UNL     1       3.680   2.460  18.243  0.00  0.00    +0.000 A 
ATOM      7  C   UNL     1       2.732   1.706  19.056  0.00  0.00    +0.000 A 
ATOM      8  C   UNL     1       1.872   2.373  19.845  0.00  0.00    +0.000 A 
ATOM      9  N   UNL     1       1.902   3.766  19.878  0.00  0.00    +0.000 N 
ATOM     10  N   UNL     1       1.142   4.617  20.616  0.00  0.00    +0.000 NA
ATOM     11  H   UNL     1       0.448   6.953  21.430  0.00  0.00    +0.000 HD
ENDROOT
BRANCH   1  15
ATOM     12  C   UNL     1       1.511  10.857  18.971  0.00  0.00    +0.000 A 
ATOM     13  C   UNL     1       1.865   9.705  18.261  0.00  0.00    +0.000 A 
ATOM     14  C   UNL     1       1.788   8.436  18.849  0.00  0.00    +0.000 A 
ATOM     15  C   UNL     1       1.314   8.267  20.151  0.00  0.00    +0.000 A 
ATOM     16  C   UNL     1       0.950   9.407  20.869  0.00  0.00    +0.000 A 
ATOM     17  C   UNL     1       1.056  10.682  20.292  0.00  0.00    +0.000 A 
BRANCH  12  21
ATOM     18  N   UNL     1       1.183  14.429  20.401  0.00  0.00    +0.000 NA
ATOM     19  C   UNL     1       2.496  13.815  20.155  0.00  0.00    +0.000 C 
ATOM     20  C   UNL     1       2.657  13.206  18.756  0.00  0.00    +0.000 C 
ATOM     21  C   UNL     1       1.511  12.259  18.360  0.00  0.00    +0.000 C 
ATOM     22  C   UNL     1       0.198  13.029  18.561  0.00  0.00    +0.000 C 
ATOM     23  C   UNL     1       0.059  13.573  19.980  0.00  0.00    +0.000 C 
BRANCH  18  24
ATOM     24  C   UNL     1       1.019  14.717  21.857  0.00  0.00    +0.000 C 
BRANCH  24  28
ATOM     25  C   UNL     1      -2.235  16.227  23.243  0.00  0.00    +0.000 C 
ATOM     26  N   UNL     1      -1.202  15.263  22.913  0.00  0.00    +0.000 N 
ATOM     27  C   UNL     1      -1.259  13.946  23.524  0.00  0.00    +0.000 C 
ATOM     28  C   UNL     1      -0.117  15.709  22.161  0.00  0.00    +0.000 C 
ATOM     29  O   UNL     1      -0.032  16.881  21.780  0.00  0.00    +0.000 OA
ENDBRANCH  24  28
ENDBRANCH  18  24
ENDBRANCH  12  21
ENDBRANCH   1  15
BRANCH   5  30
ATOM     30  C   UNL     1       4.678   4.537  17.409  0.00  0.00    +0.000 A 
ATOM     31  C   UNL     1       4.692   4.332  16.030  0.00  0.00    +0.000 A 
ATOM     32  C   UNL     1       5.688   4.929  15.268  0.00  0.00    +0.000 A 
ATOM     33  C   UNL     1       6.661   5.730  15.881  0.00  0.00    +0.000 A 
ATOM     34  C   UNL     1       6.678   5.972  17.266  0.00  0.00    +0.000 A 
ATOM     35  C   UNL     1       5.656   5.353  18.008  0.00  0.00    +0.000 A 
BRANCH  34  36
ATOM     36  N   UNL     1       7.625   6.812  17.841  0.00  0.00    +0.000 N 
ATOM     37  C   UNL     1       8.253   6.467  19.121  0.00  0.00    +0.000 C 
ATOM     38  C   UNL     1       7.719   8.226  17.493  0.00  0.00    +0.000 C 
ENDBRANCH  34  36
ENDBRANCH   5  30
TORSDOF 6
ENDMDL
MODEL 9
REMARK VINA RESULT:      -8.5      2.549      3.478
REMARK  Name = 
REMARK  10 active torsions:
REMARK  status: ('A' for Active; 'I' for Inactive)
REMARK    1  A    between atoms: C_1  and  N_2
REMARK    2  A    between atoms: N_2  and  C_3
REMARK    3  A    between atoms: C_4  and  C_6
REMARK    4  A    between atoms: C_6  and  N_7
REMARK    5  A    between atoms: C_10  and  C_11
REMARK    6  A    between atoms: C_14  and  N_15
REMARK    7  A    between atoms: C_19  and  C_20
REMARK    8  A    between atoms: C_24  and  N_25
REMARK    9  A    between atoms: N_25  and  C_26
REMARK   10  A    between atoms: N_25  and  C_27
REMARK                            x       y       z     vdW  Elec       q    Type
REMARK                         _______ _______ _______ _____ _____    ______ ____
ROOT
ATOM      1  N   UNL     1       1.451   6.838  21.143  0.00  0.00    +0.000 N 
ATOM      2  C   UNL     1       1.862   5.715  20.518  0.00  0.00    +0.000 A 
ATOM      3  N   UNL     1       2.648   5.816  19.418  0.00  0.00    +0.000 NA
ATOM      4  C   UNL     1       2.909   4.568  19.104  0.00  0.00    +0.000 A 
ATOM      5  C   UNL     1       3.694   3.996  18.059  0.00  0.00    +0.000 A 
ATOM      6  C   UNL     1       3.793   2.648  17.987  0.00  0.00    +0.000 A 
ATOM      7  C   UNL     1       3.105   1.780  18.936  0.00  0.00    +0.000 A 
ATOM      8  C   UNL     1       2.365   2.334  19.912  0.00  0.00    +0.000 A 
ATOM      9  N   UNL     1       2.271   3.721  20.004  0.00  0.00    +0.000 N 
ATOM     10  N   UNL     1       1.601   4.470  20.919  0.00  0.00    +0.000 NA
ATOM     11  H   UNL     1       0.871   6.701  21.965  0.00  0.00    +0.000 HD
ENDROOT
BRANCH   1  15
ATOM     12  C   UNL     1       1.036  10.755  19.523  0.00  0.00    +0.000 A 
ATOM     13  C   UNL     1       1.538   9.702  18.750  0.00  0.00    +0.000 A 
ATOM     14  C   UNL     1       1.702   8.420  19.288  0.00  0.00    +0.000 A 
ATOM     15  C   UNL     1       1.331   8.130  20.603  0.00  0.00    +0.000 A 
ATOM     16  C   UNL     1       0.822   9.169  21.383  0.00  0.00    +0.000 A 
ATOM     17  C   UNL     1       0.686  10.462  20.855  0.00  0.00    +0.000 A 
BRANCH  12  21
ATOM     18  N   UNL     1       2.754  14.189  19.937  0.00  0.00    +0.000 NA
ATOM     19  C   UNL     1       3.071  13.298  18.811  0.00  0.00    +0.000 C 
ATOM     20  C   UNL     1       1.845  12.771  18.055  0.00  0.00    +0.000 C 
ATOM     21  C   UNL     1       0.772  12.157  18.971  0.00  0.00    +0.000 C 
ATOM     22  C   UNL     1       0.444  13.201  20.048  0.00  0.00    +0.000 C 
ATOM     23  C   UNL     1       1.687  13.658  20.806  0.00  0.00    +0.000 C 
BRANCH  18  24
ATOM     24  C   UNL     1       3.968  14.401  20.778  0.00  0.00    +0.000 C 
BRANCH  24  28
ATOM     25  C   UNL     1       3.357  17.605  22.815  0.00  0.00    +0.000 C 
ATOM     26  N   UNL     1       3.637  16.722  21.698  0.00  0.00    +0.000 N 
ATOM     27  C   UNL     1       3.624  17.276  20.355  0.00  0.00    +0.000 C 
ATOM     28  C   UNL     1       3.735  15.358  21.960  0.00  0.00    +0.000 C 
ATOM     29  O   UNL     1       3.596  14.907  23.101  0.00  0.00    +0.000 OA
ENDBRANCH  24  28
ENDBRANCH  18  24
ENDBRANCH  12  21
ENDBRANCH   1  15
BRANCH   5  30
ATOM     30  C   UNL     1       4.400   4.838  17.069  0.00  0.00    +0.000 A 
ATOM     31  C   UNL     1       4.316   6.227  17.146  0.00  0.00    +0.000 A 
ATOM     32  C   UNL     1       4.887   6.997  16.140  0.00  0.00    +0.000 A 
ATOM     33  C   UNL     1       5.542   6.378  15.067  0.00  0.00    +0.000 A 
ATOM     34  C   UNL     1       5.661   4.982  14.955  0.00  0.00    +0.000 A 
ATOM     35  C   UNL     1       5.072   4.234  15.990  0.00  0.00    +0.000 A 
BRANCH  34  36
ATOM     36  N   UNL     1       6.360   4.397  13.906  0.00  0.00    +0.000 N 
ATOM     37  C   UNL     1       7.606   4.992  13.412  0.00  0.00    +0.000 C 
ATOM     38  C   UNL     1       5.721   3.486  12.962  0.00  0.00    +0.000 C 
ENDBRANCH  34  36
ENDBRANCH   5  30
TORSDOF 6
ENDMDL
