MODEL 1
REMARK VINA RESULT:      -8.3      0.000      0.000
REMARK  Name = 
REMARK  4 active torsions:
REMARK  status: ('A' for Active; 'I' for Inactive)
REMARK    1  A    between atoms: C_2  and  C_3
REMARK    2  A    between atoms: C_2  and  C_21
REMARK    3  A    between atoms: C_3  and  C_4
REMARK    4  A    between atoms: C_10  and  C_12
REMARK                            x       y       z     vdW  Elec       q    Type
REMARK                         _______ _______ _______ _____ _____    ______ ____
ROOT
ATOM      1  C   UNL     1       6.564   5.234  18.260  0.00  0.00    +0.000 C 
ATOM      2  C   UNL     1       7.578   5.796  19.280  0.00  0.00    +0.000 C 
ATOM      3  O   UNL     1       8.438   6.771  18.669  0.00  0.00    +0.000 OA
ATOM      4  C   UNL     1       7.673   7.895  18.205  0.00  0.00    +0.000 C 
ATOM      5  C   UNL     1       6.623   7.467  17.173  0.00  0.00    +0.000 C 
ATOM      6  N   UNL     1       5.787   6.379  17.703  0.00  0.00    +0.000 N 
ATOM      7  C   UNL     1       4.403   6.482  17.547  0.00  0.00    +0.000 C 
ATOM      8  O   UNL     1       3.885   7.382  16.882  0.00  0.00    +0.000 OA
ENDROOT
BRANCH   7   9
ATOM      9  C   UNL     1       3.476   5.510  18.189  0.00  0.00    +0.000 A 
ATOM     10  C   UNL     1       2.609   4.694  17.433  0.00  0.00    +0.000 A 
ATOM     11  C   UNL     1       1.682   3.856  18.056  0.00  0.00    +0.000 A 
ATOM     12  C   UNL     1       1.733   3.763  19.426  0.00  0.00    +0.000 A 
ATOM     13  C   UNL     1       2.653   4.467  20.168  0.00  0.00    +0.000 A 
ATOM     14  C   UNL     1       3.531   5.354  19.584  0.00  0.00    +0.000 A 
ATOM     15  O   UNL     1       2.573   4.175  21.494  0.00  0.00    +0.000 OA
ATOM     16  C   UNL     1       1.500   3.210  21.499  0.00  0.00    +0.000 C 
ATOM     17  O   UNL     1       0.937   2.972  20.192  0.00  0.00    +0.000 OA
ENDBRANCH   7   9
BRANCH   1  18
ATOM     18  C   UNL     1       7.239   4.404  17.158  0.00  0.00    +0.000 C 
BRANCH  18  20
ATOM     19  O   UNL     1       5.182   3.425  16.382  0.00  0.00    +0.000 OA
ATOM     20  C   UNL     1       6.241   3.977  16.085  0.00  0.00    +0.000 C 
BRANCH  20  21
ATOM     21  C   UNL     1       6.611   4.280  14.719  0.00  0.00    +0.000 A 
ATOM     22  C   UNL     1       6.162   3.768  13.518  0.00  0.00    +0.000 A 
ATOM     23  C   UNL     1       6.909   4.407  12.499  0.00  0.00    +0.000 A 
ATOM     24  C   UNL     1       7.752   5.286  13.139  0.00  0.00    +0.000 A 
ATOM     25  O   UNL     1       7.577   5.220  14.482  0.00  0.00    +0.000 OA
ENDBRANCH  20  21
ENDBRANCH  18  20
ENDBRANCH   1  18
TORSDOF 4
ENDMDL
MODEL 2
REMARK VINA RESULT:      -8.3      2.277      6.974
REMARK  Name = 
REMARK  4 active torsions:
REMARK  status: ('A' for Active; 'I' for Inactive)
REMARK    1  A    between atoms: C_2  and  C_3
REMARK    2  A    between atoms: C_2  and  C_21
REMARK    3  A    between atoms: C_3  and  C_4
REMARK    4  A    between atoms: C_10  and  C_12
REMARK                            x       y       z     vdW  Elec       q    Type
REMARK                         _______ _______ _______ _____ _____    ______ ____
ROOT
ATOM      1  C   UNL     1       3.197   4.998  18.724  0.00  0.00    +0.000 C 
ATOM      2  C   UNL     1       2.683   4.047  19.826  0.00  0.00    +0.000 C 
ATOM      3  O   UNL     1       1.715   3.125  19.301  0.00  0.00    +0.000 OA
ATOM      4  C   UNL     1       2.311   2.287  18.297  0.00  0.00    +0.000 C 
ATOM      5  C   UNL     1       2.862   3.119  17.134  0.00  0.00    +0.000 C 
ATOM      6  N   UNL     1       3.770   4.165  17.626  0.00  0.00    +0.000 N 
ATOM      7  C   UNL     1       4.995   4.329  16.974  0.00  0.00    +0.000 C 
ATOM      8  O   UNL     1       5.274   3.715  15.942  0.00  0.00    +0.000 OA
ENDROOT
BRANCH   7   9
ATOM      9  C   UNL     1       6.036   5.252  17.502  0.00  0.00    +0.000 A 
ATOM     10  C   UNL     1       6.997   4.834  18.446  0.00  0.00    +0.000 A 
ATOM     11  C   UNL     1       7.906   5.737  19.000  0.00  0.00    +0.000 A 
ATOM     12  C   UNL     1       7.912   7.017  18.498  0.00  0.00    +0.000 A 
ATOM     13  C   UNL     1       7.056   7.407  17.494  0.00  0.00    +0.000 A 
ATOM     14  C   UNL     1       6.102   6.555  16.982  0.00  0.00    +0.000 A 
ATOM     15  O   UNL     1       7.277   8.691  17.102  0.00  0.00    +0.000 OA
ATOM     16  C   UNL     1       8.366   9.060  17.974  0.00  0.00    +0.000 C 
ATOM     17  O   UNL     1       8.749   8.013  18.889  0.00  0.00    +0.000 OA
ENDBRANCH   7   9
BRANCH   1  18
ATOM     18  C   UNL     1       2.106   5.951  18.214  0.00  0.00    +0.000 C 
BRANCH  18  20
ATOM     19  O   UNL     1       3.271   8.005  17.747  0.00  0.00    +0.000 OA
ATOM     20  C   UNL     1       2.471   7.411  18.469  0.00  0.00    +0.000 C 
BRANCH  20  21
ATOM     21  C   UNL     1       1.806   8.044  19.588  0.00  0.00    +0.000 A 
ATOM     22  C   UNL     1       1.579   7.607  20.879  0.00  0.00    +0.000 A 
ATOM     23  C   UNL     1       0.844   8.628  21.529  0.00  0.00    +0.000 A 
ATOM     24  C   UNL     1       0.687   9.633  20.604  0.00  0.00    +0.000 A 
ATOM     25  O   UNL     1       1.269   9.293  19.428  0.00  0.00    +0.000 OA
ENDBRANCH  20  21
ENDBRANCH  18  20
ENDBRANCH   1  18
TORSDOF 4
ENDMDL
MODEL 3
REMARK VINA RESULT:      -8.2      0.654      1.405
REMARK  Name = 
REMARK  4 active torsions:
REMARK  status: ('A' for Active; 'I' for Inactive)
REMARK    1  A    between atoms: C_2  and  C_3
REMARK    2  A    between atoms: C_2  and  C_21
REMARK    3  A    between atoms: C_3  and  C_4
REMARK    4  A    between atoms: C_10  and  C_12
REMARK                            x       y       z     vdW  Elec       q    Type
REMARK                         _______ _______ _______ _____ _____    ______ ____
ROOT
ATOM      1  C   UNL     1       6.636   5.385  18.332  0.00  0.00    +0.000 C 
ATOM      2  C   UNL     1       7.680   6.027  19.271  0.00  0.00    +0.000 C 
ATOM      3  O   UNL     1       8.523   6.944  18.555  0.00  0.00    +0.000 OA
ATOM      4  C   UNL     1       7.746   8.028  18.020  0.00  0.00    +0.000 C 
ATOM      5  C   UNL     1       6.667   7.518  17.059  0.00  0.00    +0.000 C 
ATOM      6  N   UNL     1       5.845   6.482  17.702  0.00  0.00    +0.000 N 
ATOM      7  C   UNL     1       4.457   6.577  17.578  0.00  0.00    +0.000 C 
ATOM      8  O   UNL     1       3.921   7.419  16.854  0.00  0.00    +0.000 OA
ENDROOT
BRANCH   7   9
ATOM      9  C   UNL     1       3.548   5.665  18.325  0.00  0.00    +0.000 A 
ATOM     10  C   UNL     1       3.350   5.784  19.717  0.00  0.00    +0.000 A 
ATOM     11  C   UNL     1       2.567   4.862  20.415  0.00  0.00    +0.000 A 
ATOM     12  C   UNL     1       1.899   3.913  19.679  0.00  0.00    +0.000 A 
ATOM     13  C   UNL     1       1.993   3.859  18.307  0.00  0.00    +0.000 A 
ATOM     14  C   UNL     1       2.814   4.711  17.602  0.00  0.00    +0.000 A 
ATOM     15  O   UNL     1       1.199   2.890  17.777  0.00  0.00    +0.000 OA
ATOM     16  C   UNL     1       0.598   2.344  18.970  0.00  0.00    +0.000 C 
ATOM     17  O   UNL     1       1.068   2.965  20.185  0.00  0.00    +0.000 OA
ENDBRANCH   7   9
BRANCH   1  18
ATOM     18  C   UNL     1       7.278   4.463  17.284  0.00  0.00    +0.000 C 
BRANCH  18  20
ATOM     19  O   UNL     1       5.217   3.462  16.547  0.00  0.00    +0.000 OA
ATOM     20  C   UNL     1       6.267   4.020  16.230  0.00  0.00    +0.000 C 
BRANCH  20  21
ATOM     21  C   UNL     1       6.615   4.315  14.857  0.00  0.00    +0.000 A 
ATOM     22  C   UNL     1       6.111   3.833  13.665  0.00  0.00    +0.000 A 
ATOM     23  C   UNL     1       6.859   4.445  12.630  0.00  0.00    +0.000 A 
ATOM     24  C   UNL     1       7.757   5.280  13.251  0.00  0.00    +0.000 A 
ATOM     25  O   UNL     1       7.616   5.213  14.598  0.00  0.00    +0.000 OA
ENDBRANCH  20  21
ENDBRANCH  18  20
ENDBRANCH   1  18
TORSDOF 4
ENDMDL
MODEL 4
REMARK VINA RESULT:      -8.2      2.804      5.110
REMARK  Name = 
REMARK  4 active torsions:
REMARK  status: ('A' for Active; 'I' for Inactive)
REMARK    1  A    between atoms: C_2  and  C_3
REMARK    2  A    between atoms: C_2  and  C_21
REMARK    3  A    between atoms: C_3  and  C_4
REMARK    4  A    between atoms: C_10  and  C_12
REMARK                            x       y       z     vdW  Elec       q    Type
REMARK                         _______ _______ _______ _____ _____    ______ ____
ROOT
ATOM      1  C   UNL     1       3.398   4.357  17.864  0.00  0.00    +0.000 C 
ATOM      2  C   UNL     1       2.651   3.272  17.059  0.00  0.00    +0.000 C 
ATOM      3  O   UNL     1       2.876   1.968  17.617  0.00  0.00    +0.000 OA
ATOM      4  C   UNL     1       2.359   1.898  18.956  0.00  0.00    +0.000 C 
ATOM      5  C   UNL     1       3.030   2.933  19.867  0.00  0.00    +0.000 C 
ATOM      6  N   UNL     1       2.937   4.279  19.281  0.00  0.00    +0.000 N 
ATOM      7  C   UNL     1       2.533   5.327  20.111  0.00  0.00    +0.000 C 
ATOM      8  O   UNL     1       2.376   5.177  21.325  0.00  0.00    +0.000 OA
ENDROOT
BRANCH   7   9
ATOM      9  C   UNL     1       2.261   6.686  19.567  0.00  0.00    +0.000 A 
ATOM     10  C   UNL     1       2.549   7.025  18.229  0.00  0.00    +0.000 A 
ATOM     11  C   UNL     1       2.373   8.330  17.762  0.00  0.00    +0.000 A 
ATOM     12  C   UNL     1       1.794   9.236  18.618  0.00  0.00    +0.000 A 
ATOM     13  C   UNL     1       1.402   8.886  19.889  0.00  0.00    +0.000 A 
ATOM     14  C   UNL     1       1.629   7.625  20.398  0.00  0.00    +0.000 A 
ATOM     15  O   UNL     1       0.791   9.913  20.538  0.00  0.00    +0.000 OA
ATOM     16  C   UNL     1       0.845  10.945  19.531  0.00  0.00    +0.000 C 
ATOM     17  O   UNL     1       1.515  10.532  18.322  0.00  0.00    +0.000 OA
ENDBRANCH   7   9
BRANCH   1  18
ATOM     18  C   UNL     1       4.924   4.229  17.746  0.00  0.00    +0.000 C 
BRANCH  18  20
ATOM     19  O   UNL     1       5.107   5.413  15.659  0.00  0.00    +0.000 OA
ATOM     20  C   UNL     1       5.507   5.289  16.817  0.00  0.00    +0.000 C 
BRANCH  20  21
ATOM     21  C   UNL     1       6.532   6.137  17.386  0.00  0.00    +0.000 A 
ATOM     22  C   UNL     1       7.360   5.958  18.477  0.00  0.00    +0.000 A 
ATOM     23  C   UNL     1       8.140   7.135  18.592  0.00  0.00    +0.000 A 
ATOM     24  C   UNL     1       7.758   7.949  17.551  0.00  0.00    +0.000 A 
ATOM     25  O   UNL     1       6.788   7.354  16.813  0.00  0.00    +0.000 OA
ENDBRANCH  20  21
ENDBRANCH  18  20
ENDBRANCH   1  18
TORSDOF 4
ENDMDL
MODEL 5
REMARK VINA RESULT:      -8.2      2.291      6.615
REMARK  Name = 
REMARK  4 active torsions:
REMARK  status: ('A' for Active; 'I' for Inactive)
REMARK    1  A    between atoms: C_2  and  C_3
REMARK    2  A    between atoms: C_2  and  C_21
REMARK    3  A    between atoms: C_3  and  C_4
REMARK    4  A    between atoms: C_10  and  C_12
REMARK                            x       y       z     vdW  Elec       q    Type
REMARK                         _______ _______ _______ _____ _____    ______ ____
ROOT
ATOM      1  C   UNL     1       3.535   4.356  19.014  0.00  0.00    +0.000 C 
ATOM      2  C   UNL     1       3.271   3.254  20.062  0.00  0.00    +0.000 C 
ATOM      3  O   UNL     1       2.367   2.262  19.551  0.00  0.00    +0.000 OA
ATOM      4  C   UNL     1       2.940   1.600  18.412  0.00  0.00    +0.000 C 
ATOM      5  C   UNL     1       3.248   2.594  17.286  0.00  0.00    +0.000 C 
ATOM      6  N   UNL     1       4.074   3.704  17.785  0.00  0.00    +0.000 N 
ATOM      7  C   UNL     1       5.186   4.083  17.029  0.00  0.00    +0.000 C 
ATOM      8  O   UNL     1       5.415   3.603  15.917  0.00  0.00    +0.000 OA
ENDROOT
BRANCH   7   9
ATOM      9  C   UNL     1       6.162   5.086  17.536  0.00  0.00    +0.000 A 
ATOM     10  C   UNL     1       7.151   4.753  18.485  0.00  0.00    +0.000 A 
ATOM     11  C   UNL     1       7.997   5.727  19.018  0.00  0.00    +0.000 A 
ATOM     12  C   UNL     1       7.913   6.994  18.492  0.00  0.00    +0.000 A 
ATOM     13  C   UNL     1       7.030   7.305  17.484  0.00  0.00    +0.000 A 
ATOM     14  C   UNL     1       6.136   6.380  16.991  0.00  0.00    +0.000 A 
ATOM     15  O   UNL     1       7.161   8.593  17.067  0.00  0.00    +0.000 OA
ATOM     16  C   UNL     1       8.224   9.054  17.928  0.00  0.00    +0.000 C 
ATOM     17  O   UNL     1       8.680   8.053  18.862  0.00  0.00    +0.000 OA
ENDBRANCH   7   9
BRANCH   1  18
ATOM     18  C   UNL     1       2.285   5.198  18.719  0.00  0.00    +0.000 C 
BRANCH  18  20
ATOM     19  O   UNL     1       2.195   6.202  20.905  0.00  0.00    +0.000 OA
ATOM     20  C   UNL     1       2.156   6.372  19.686  0.00  0.00    +0.000 C 
BRANCH  20  21
ATOM     21  C   UNL     1       2.007   7.678  19.081  0.00  0.00    +0.000 A 
ATOM     22  C   UNL     1       2.449   8.178  17.872  0.00  0.00    +0.000 A 
ATOM     23  C   UNL     1       2.046   9.535  17.823  0.00  0.00    +0.000 A 
ATOM     24  C   UNL     1       1.364   9.773  18.993  0.00  0.00    +0.000 A 
ATOM     25  O   UNL     1       1.331   8.656  19.760  0.00  0.00    +0.000 OA
ENDBRANCH  20  21
ENDBRANCH  18  20
ENDBRANCH   1  18
TORSDOF 4
ENDMDL
MODEL 6
REMARK VINA RESULT:      -8.1      2.738      4.608
REMARK  Name = 
REMARK  4 active torsions:
REMARK  status: ('A' for Active; 'I' for Inactive)
REMARK    1  A    between atoms: C_2  and  C_3
REMARK    2  A    between atoms: C_2  and  C_21
REMARK    3  A    between atoms: C_3  and  C_4
REMARK    4  A    between atoms: C_10  and  C_12
REMARK                            x       y       z     vdW  Elec       q    Type
REMARK                         _______ _______ _______ _____ _____    ______ ____
ROOT
ATOM      1  C   UNL     1       3.585   4.347  17.990  0.00  0.00    +0.000 C 
ATOM      2  C   UNL     1       2.930   3.239  17.136  0.00  0.00    +0.000 C 
ATOM      3  O   UNL     1       3.161   1.942  17.709  0.00  0.00    +0.000 OA
ATOM      4  C   UNL     1       2.558   1.853  19.010  0.00  0.00    +0.000 C 
ATOM      5  C   UNL     1       3.130   2.908  19.963  0.00  0.00    +0.000 C 
ATOM      6  N   UNL     1       3.032   4.251  19.373  0.00  0.00    +0.000 N 
ATOM      7  C   UNL     1       2.539   5.283  20.173  0.00  0.00    +0.000 C 
ATOM      8  O   UNL     1       2.306   5.125  21.374  0.00  0.00    +0.000 OA
ENDROOT
BRANCH   7   9
ATOM      9  C   UNL     1       2.258   6.633  19.612  0.00  0.00    +0.000 A 
ATOM     10  C   UNL     1       2.504   6.944  18.258  0.00  0.00    +0.000 A 
ATOM     11  C   UNL     1       2.323   8.241  17.772  0.00  0.00    +0.000 A 
ATOM     12  C   UNL     1       1.779   9.168  18.628  0.00  0.00    +0.000 A 
ATOM     13  C   UNL     1       1.427   8.846  19.919  0.00  0.00    +0.000 A 
ATOM     14  C   UNL     1       1.662   7.594  20.444  0.00  0.00    +0.000 A 
ATOM     15  O   UNL     1       0.846   9.891  20.567  0.00  0.00    +0.000 OA
ATOM     16  C   UNL     1       0.874  10.902  19.538  0.00  0.00    +0.000 C 
ATOM     17  O   UNL     1       1.500  10.460  18.316  0.00  0.00    +0.000 OA
ENDBRANCH   7   9
BRANCH   1  18
ATOM     18  C   UNL     1       5.119   4.270  17.975  0.00  0.00    +0.000 C 
BRANCH  18  20
ATOM     19  O   UNL     1       5.892   6.511  17.559  0.00  0.00    +0.000 OA
ATOM     20  C   UNL     1       5.729   5.374  17.116  0.00  0.00    +0.000 C 
BRANCH  20  21
ATOM     21  C   UNL     1       6.113   4.993  15.774  0.00  0.00    +0.000 A 
ATOM     22  C   UNL     1       5.527   4.132  14.868  0.00  0.00    +0.000 A 
ATOM     23  C   UNL     1       6.362   4.116  13.725  0.00  0.00    +0.000 A 
ATOM     24  C   UNL     1       7.393   4.985  13.993  0.00  0.00    +0.000 A 
ATOM     25  O   UNL     1       7.251   5.525  15.229  0.00  0.00    +0.000 OA
ENDBRANCH  20  21
ENDBRANCH  18  20
ENDBRANCH   1  18
TORSDOF 4
ENDMDL
MODEL 7
REMARK VINA RESULT:      -8.0      2.697      5.137
REMARK  Name = 
REMARK  4 active torsions:
REMARK  status: ('A' for Active; 'I' for Inactive)
REMARK    1  A    between atoms: C_2  and  C_3
REMARK    2  A    between atoms: C_2  and  C_21
REMARK    3  A    between atoms: C_3  and  C_4
REMARK    4  A    between atoms: C_10  and  C_12
REMARK                            x       y       z     vdW  Elec       q    Type
REMARK                         _______ _______ _______ _____ _____    ______ ____
ROOT
ATOM      1  C   UNL     1       5.054   5.067  18.847  0.00  0.00    +0.000 C 
ATOM      2  C   UNL     1       6.514   5.160  19.341  0.00  0.00    +0.000 C 
ATOM      3  O   UNL     1       7.438   4.874  18.280  0.00  0.00    +0.000 OA
ATOM      4  C   UNL     1       7.311   5.844  17.227  0.00  0.00    +0.000 C 
ATOM      5  C   UNL     1       5.894   5.848  16.643  0.00  0.00    +0.000 C 
ATOM      6  N   UNL     1       4.892   6.015  17.706  0.00  0.00    +0.000 N 
ATOM      7  C   UNL     1       3.871   6.947  17.503  0.00  0.00    +0.000 C 
ATOM      8  O   UNL     1       3.721   7.528  16.427  0.00  0.00    +0.000 OA
ENDROOT
BRANCH   7   9
ATOM      9  C   UNL     1       2.911   7.292  18.587  0.00  0.00    +0.000 A 
ATOM     10  C   UNL     1       2.695   6.444  19.693  0.00  0.00    +0.000 A 
ATOM     11  C   UNL     1       1.724   6.740  20.651  0.00  0.00    +0.000 A 
ATOM     12  C   UNL     1       1.077   7.948  20.544  0.00  0.00    +0.000 A 
ATOM     13  C   UNL     1       1.361   8.837  19.533  0.00  0.00    +0.000 A 
ATOM     14  C   UNL     1       2.263   8.537  18.535  0.00  0.00    +0.000 A 
ATOM     15  O   UNL     1       0.657   9.994  19.655  0.00  0.00    +0.000 OA
ATOM     16  C   UNL     1      -0.100   9.729  20.855  0.00  0.00    +0.000 C 
ATOM     17  O   UNL     1       0.134   8.416  21.403  0.00  0.00    +0.000 OA
ENDBRANCH   7   9
BRANCH   1  18
ATOM     18  C   UNL     1       4.655   3.634  18.465  0.00  0.00    +0.000 C 
BRANCH  18  20
ATOM     19  O   UNL     1       5.204   2.088  20.227  0.00  0.00    +0.000 OA
ATOM     20  C   UNL     1       4.342   2.790  19.698  0.00  0.00    +0.000 C 
BRANCH  20  21
ATOM     21  C   UNL     1       2.990   2.886  20.205  0.00  0.00    +0.000 A 
ATOM     22  C   UNL     1       2.491   2.817  21.491  0.00  0.00    +0.000 A 
ATOM     23  C   UNL     1       1.084   2.935  21.387  0.00  0.00    +0.000 A 
ATOM     24  C   UNL     1       0.812   3.093  20.049  0.00  0.00    +0.000 A 
ATOM     25  O   UNL     1       1.958   3.069  19.324  0.00  0.00    +0.000 OA
ENDBRANCH  20  21
ENDBRANCH  18  20
ENDBRANCH   1  18
TORSDOF 4
ENDMDL
MODEL 8
REMARK VINA RESULT:      -7.9      2.853      7.141
REMARK  Name = 
REMARK  4 active torsions:
REMARK  status: ('A' for Active; 'I' for Inactive)
REMARK    1  A    between atoms: C_2  and  C_3
REMARK    2  A    between atoms: C_2  and  C_21
REMARK    3  A    between atoms: C_3  and  C_4
REMARK    4  A    between atoms: C_10  and  C_12
REMARK                            x       y       z     vdW  Elec       q    Type
REMARK                         _______ _______ _______ _____ _____    ______ ____
ROOT
ATOM      1  C   UNL     1       2.377   4.783  20.369  0.00  0.00    +0.000 C 
ATOM      2  C   UNL     1       2.371   3.814  21.571  0.00  0.00    +0.000 C 
ATOM      3  O   UNL     1       1.155   3.050  21.612  0.00  0.00    +0.000 OA
ATOM      4  C   UNL     1       1.036   2.230  20.439  0.00  0.00    +0.000 C 
ATOM      5  C   UNL     1       1.026   3.081  19.164  0.00  0.00    +0.000 C 
ATOM      6  N   UNL     1       2.191   3.977  19.126  0.00  0.00    +0.000 N 
ATOM      7  C   UNL     1       2.922   4.051  17.938  0.00  0.00    +0.000 C 
ATOM      8  O   UNL     1       2.550   3.492  16.905  0.00  0.00    +0.000 OA
ENDROOT
BRANCH   7   9
ATOM      9  C   UNL     1       4.202   4.808  17.862  0.00  0.00    +0.000 A 
ATOM     10  C   UNL     1       4.504   5.657  16.777  0.00  0.00    +0.000 A 
ATOM     11  C   UNL     1       5.747   6.285  16.678  0.00  0.00    +0.000 A 
ATOM     12  C   UNL     1       6.614   6.145  17.735  0.00  0.00    +0.000 A 
ATOM     13  C   UNL     1       6.284   5.413  18.852  0.00  0.00    +0.000 A 
ATOM     14  C   UNL     1       5.094   4.725  18.944  0.00  0.00    +0.000 A 
ATOM     15  O   UNL     1       7.256   5.463  19.803  0.00  0.00    +0.000 OA
ATOM     16  C   UNL     1       8.230   6.308  19.155  0.00  0.00    +0.000 C 
ATOM     17  O   UNL     1       7.844   6.714  17.826  0.00  0.00    +0.000 OA
ENDBRANCH   7   9
BRANCH   1  18
ATOM     18  C   UNL     1       1.320   5.889  20.502  0.00  0.00    +0.000 C 
BRANCH  18  20
ATOM     19  O   UNL     1       2.751   7.338  19.219  0.00  0.00    +0.000 OA
ATOM     20  C   UNL     1       1.871   7.247  20.074  0.00  0.00    +0.000 C 
BRANCH  20  21
ATOM     21  C   UNL     1       1.282   8.401  20.720  0.00  0.00    +0.000 A 
ATOM     22  C   UNL     1       0.848   8.598  22.015  0.00  0.00    +0.000 A 
ATOM     23  C   UNL     1       0.323   9.912  22.072  0.00  0.00    +0.000 A 
ATOM     24  C   UNL     1       0.491  10.444  20.816  0.00  0.00    +0.000 A 
ATOM     25  O   UNL     1       1.074   9.540  19.990  0.00  0.00    +0.000 OA
ENDBRANCH  20  21
ENDBRANCH  18  20
ENDBRANCH   1  18
TORSDOF 4
ENDMDL
MODEL 9
REMARK VINA RESULT:      -7.9      2.714      5.183
REMARK  Name = 
REMARK  4 active torsions:
REMARK  status: ('A' for Active; 'I' for Inactive)
REMARK    1  A    between atoms: C_2  and  C_3
REMARK    2  A    between atoms: C_2  and  C_21
REMARK    3  A    between atoms: C_3  and  C_4
REMARK    4  A    between atoms: C_10  and  C_12
REMARK                            x       y       z     vdW  Elec       q    Type
REMARK                         _______ _______ _______ _____ _____    ______ ____
ROOT
ATOM      1  C   UNL     1       4.173   4.831  18.123  0.00  0.00    +0.000 C 
ATOM      2  C   UNL     1       5.606   4.429  18.534  0.00  0.00    +0.000 C 
ATOM      3  O   UNL     1       6.446   4.258  17.381  0.00  0.00    +0.000 OA
ATOM      4  C   UNL     1       6.569   5.495  16.661  0.00  0.00    +0.000 C 
ATOM      5  C   UNL     1       5.202   6.004  16.189  0.00  0.00    +0.000 C 
ATOM      6  N   UNL     1       4.259   6.082  17.315  0.00  0.00    +0.000 N 
ATOM      7  C   UNL     1       3.496   7.245  17.450  0.00  0.00    +0.000 C 
ATOM      8  O   UNL     1       3.504   8.134  16.597  0.00  0.00    +0.000 OA
ENDROOT
BRANCH   7   9
ATOM      9  C   UNL     1       2.636   7.473  18.643  0.00  0.00    +0.000 A 
ATOM     10  C   UNL     1       2.565   6.543  19.701  0.00  0.00    +0.000 A 
ATOM     11  C   UNL     1       1.683   6.730  20.768  0.00  0.00    +0.000 A 
ATOM     12  C   UNL     1       0.982   7.912  20.810  0.00  0.00    +0.000 A 
ATOM     13  C   UNL     1       1.130   8.879  19.842  0.00  0.00    +0.000 A 
ATOM     14  C   UNL     1       1.939   8.688  18.743  0.00  0.00    +0.000 A 
ATOM     15  O   UNL     1       0.398   9.992  20.115  0.00  0.00    +0.000 OA
ATOM     16  C   UNL     1      -0.226   9.613  21.360  0.00  0.00    +0.000 C 
ATOM     17  O   UNL     1       0.113   8.278  21.788  0.00  0.00    +0.000 OA
ENDBRANCH   7   9
BRANCH   1  18
ATOM     18  C   UNL     1       3.442   3.708  17.371  0.00  0.00    +0.000 C 
BRANCH  18  20
ATOM     19  O   UNL     1       3.708   1.378  17.912  0.00  0.00    +0.000 OA
ATOM     20  C   UNL     1       3.257   2.473  18.248  0.00  0.00    +0.000 C 
BRANCH  20  21
ATOM     21  C   UNL     1       2.542   2.678  19.489  0.00  0.00    +0.000 A 
ATOM     22  C   UNL     1       1.210   2.945  19.740  0.00  0.00    +0.000 A 
ATOM     23  C   UNL     1       1.083   3.090  21.143  0.00  0.00    +0.000 A 
ATOM     24  C   UNL     1       2.339   2.881  21.664  0.00  0.00    +0.000 A 
ATOM     25  O   UNL     1       3.228   2.627  20.672  0.00  0.00    +0.000 OA
ENDBRANCH  20  21
ENDBRANCH  18  20
ENDBRANCH   1  18
TORSDOF 4
ENDMDL
