MODEL 1
REMARK VINA RESULT:      -7.6      0.000      0.000
REMARK  Name = 
REMARK  13 active torsions:
REMARK  status: ('A' for Active; 'I' for Inactive)
REMARK    1  A    between atoms: C_1  and  C_2
REMARK    2  A    between atoms: C_2  and  C_3
REMARK    3  A    between atoms: C_4  and  C_5
REMARK    4  A    between atoms: C_5  and  C_6
REMARK    5  A    between atoms: C_6  and  C_7
REMARK    6  A    between atoms: C_7  and  C_8
REMARK    7  A    between atoms: C_7  and  C_9
REMARK    8  A    between atoms: C_12  and  C_13
REMARK    9  A    between atoms: C_18  and  C_19
REMARK   10  A    between atoms: C_20  and  C_21
REMARK   11  A    between atoms: C_24  and  O_25
REMARK   12  A    between atoms: C_26  and  C_27
REMARK   13  A    between atoms: C_26  and  C_28
REMARK                            x       y       z     vdW  Elec       q    Type
REMARK                         _______ _______ _______ _____ _____    ______ ____
ROOT
ATOM      1  C   UNL     1      10.552  12.576  19.073  0.00  0.00    +0.000 C 
ATOM      2  C   UNL     1      10.692  12.803  17.567  0.00  0.00    +0.000 C 
ATOM      3  C   UNL     1       9.654  13.894  17.280  0.00  0.00    +0.000 C 
ATOM      4  C   UNL     1       9.420  14.734  18.606  0.00  0.00    +0.000 C 
ATOM      5  C   UNL     1       9.646  16.197  18.104  0.00  0.00    +0.000 C 
ATOM      6  C   UNL     1       8.012  14.782  19.283  0.00  0.00    +0.000 C 
ATOM      7  C   UNL     1       7.869  14.839  20.634  0.00  0.00    +0.000 C 
ATOM      8  C   UNL     1       9.077  14.823  21.545  0.00  0.00    +0.000 C 
ATOM      9  C   UNL     1      10.287  14.091  21.081  0.00  0.00    +0.000 C 
ATOM     10  C   UNL     1      10.491  14.086  19.572  0.00  0.00    +0.000 C 
ATOM     11  C   UNL     1      11.846  14.862  19.417  0.00  0.00    +0.000 C 
ATOM     12  C   UNL     1       6.581  15.260  21.372  0.00  0.00    +0.000 C 
ATOM     13  C   UNL     1       7.002  16.583  22.102  0.00  0.00    +0.000 C 
ATOM     14  C   UNL     1       6.115  14.327  22.531  0.00  0.00    +0.000 C 
ATOM     15  C   UNL     1       4.947  14.977  23.306  0.00  0.00    +0.000 C 
ATOM     16  C   UNL     1       3.853  15.707  22.471  0.00  0.00    +0.000 C 
ATOM     17  C   UNL     1       4.190  16.224  21.007  0.00  0.00    +0.000 C 
ATOM     18  C   UNL     1       2.890  16.201  20.163  0.00  0.00    +0.000 C 
ATOM     19  C   UNL     1       4.650  17.713  20.910  0.00  0.00    +0.000 C 
ATOM     20  C   UNL     1       5.304  15.275  20.454  0.00  0.00    +0.000 C 
ATOM     21  C   UNL     1       5.469  15.271  18.932  0.00  0.00    +0.000 C 
ATOM     22  C   UNL     1       6.850  15.025  18.349  0.00  0.00    +0.000 C 
ENDROOT
BRANCH   1  23
ATOM     23  C   UNL     1       9.401  11.473  19.328  0.00  0.00    +0.000 C 
ATOM     24  C   UNL     1       9.370  10.728  20.679  0.00  0.00    +0.000 C 
BRANCH  23  25
ATOM     25  C   UNL     1       9.176  10.437  18.198  0.00  0.00    +0.000 C 
BRANCH  25  26
ATOM     26  C   UNL     1       8.818   9.024  18.683  0.00  0.00    +0.000 C 
BRANCH  26  30
ATOM     27  C   UNL     1       6.494   6.534  16.761  0.00  0.00    +0.000 C 
ATOM     28  C   UNL     1       7.420   7.077  17.816  0.00  0.00    +0.000 C 
ATOM     29  C   UNL     1       7.854   6.133  18.894  0.00  0.00    +0.000 C 
ATOM     30  C   UNL     1       7.823   8.364  17.766  0.00  0.00    +0.000 C 
ENDBRANCH  26  30
ENDBRANCH  25  26
ENDBRANCH  23  25
ENDBRANCH   1  23
BRANCH  16  31
ATOM     31  O   UNL     1       2.766  14.768  22.407  0.00  0.00    +0.000 OA
ATOM     32  H   UNL     1       3.058  13.946  22.837  0.00  0.00    +0.000 HD
ENDBRANCH  16  31
TORSDOF 5
ENDMDL
MODEL 2
REMARK VINA RESULT:      -7.6      7.604     10.552
REMARK  Name = 
REMARK  13 active torsions:
REMARK  status: ('A' for Active; 'I' for Inactive)
REMARK    1  A    between atoms: C_1  and  C_2
REMARK    2  A    between atoms: C_2  and  C_3
REMARK    3  A    between atoms: C_4  and  C_5
REMARK    4  A    between atoms: C_5  and  C_6
REMARK    5  A    between atoms: C_6  and  C_7
REMARK    6  A    between atoms: C_7  and  C_8
REMARK    7  A    between atoms: C_7  and  C_9
REMARK    8  A    between atoms: C_12  and  C_13
REMARK    9  A    between atoms: C_18  and  C_19
REMARK   10  A    between atoms: C_20  and  C_21
REMARK   11  A    between atoms: C_24  and  O_25
REMARK   12  A    between atoms: C_26  and  C_27
REMARK   13  A    between atoms: C_26  and  C_28
REMARK                            x       y       z     vdW  Elec       q    Type
REMARK                         _______ _______ _______ _____ _____    ______ ____
ROOT
ATOM      1  C   UNL     1       0.731  12.376  20.136  0.00  0.00    +0.000 C 
ATOM      2  C   UNL     1       0.674  12.810  18.672  0.00  0.00    +0.000 C 
ATOM      3  C   UNL     1      -0.675  13.528  18.571  0.00  0.00    +0.000 C 
ATOM      4  C   UNL     1      -1.061  14.086  20.006  0.00  0.00    +0.000 C 
ATOM      5  C   UNL     1      -1.353  15.591  19.699  0.00  0.00    +0.000 C 
ATOM      6  C   UNL     1      -2.355  13.593  20.732  0.00  0.00    +0.000 C 
ATOM      7  C   UNL     1      -2.405  13.442  22.083  0.00  0.00    +0.000 C 
ATOM      8  C   UNL     1      -1.188  13.715  22.940  0.00  0.00    +0.000 C 
ATOM      9  C   UNL     1       0.153  13.476  22.340  0.00  0.00    +0.000 C 
ATOM     10  C   UNL     1       0.231  13.714  20.837  0.00  0.00    +0.000 C 
ATOM     11  C   UNL     1       1.252  14.901  20.741  0.00  0.00    +0.000 C 
ATOM     12  C   UNL     1      -3.699  13.332  22.915  0.00  0.00    +0.000 C 
ATOM     13  C   UNL     1      -3.666  14.625  23.802  0.00  0.00    +0.000 C 
ATOM     14  C   UNL     1      -3.752  12.169  23.953  0.00  0.00    +0.000 C 
ATOM     15  C   UNL     1      -5.003  12.308  24.850  0.00  0.00    +0.000 C 
ATOM     16  C   UNL     1      -6.334  12.734  24.160  0.00  0.00    +0.000 C 
ATOM     17  C   UNL     1      -6.293  13.500  22.769  0.00  0.00    +0.000 C 
ATOM     18  C   UNL     1      -7.579  13.153  21.975  0.00  0.00    +0.000 C 
ATOM     19  C   UNL     1      -6.340  15.058  22.857  0.00  0.00    +0.000 C 
ATOM     20  C   UNL     1      -4.981  13.036  22.053  0.00  0.00    +0.000 C 
ATOM     21  C   UNL     1      -4.941  13.265  20.540  0.00  0.00    +0.000 C 
ATOM     22  C   UNL     1      -3.602  13.552  19.881  0.00  0.00    +0.000 C 
ENDROOT
BRANCH   1  23
ATOM     23  C   UNL     1       0.014  10.936  20.280  0.00  0.00    +0.000 C 
ATOM     24  C   UNL     1       0.558   9.934  21.321  0.00  0.00    +0.000 C 
BRANCH  23  25
ATOM     25  C   UNL     1      -0.258  10.167  18.964  0.00  0.00    +0.000 C 
BRANCH  25  26
ATOM     26  C   UNL     1      -1.737  10.092  18.555  0.00  0.00    +0.000 C 
BRANCH  26  30
ATOM     27  C   UNL     1      -2.972  10.213  14.846  0.00  0.00    +0.000 C 
ATOM     28  C   UNL     1      -2.904  10.490  16.325  0.00  0.00    +0.000 C 
ATOM     29  C   UNL     1      -3.995  11.330  16.912  0.00  0.00    +0.000 C 
ATOM     30  C   UNL     1      -1.891   9.989  17.062  0.00  0.00    +0.000 C 
ENDBRANCH  26  30
ENDBRANCH  25  26
ENDBRANCH  23  25
ENDBRANCH   1  23
BRANCH  16  31
ATOM     31  O   UNL     1      -7.067  11.506  24.007  0.00  0.00    +0.000 OA
ATOM     32  H   UNL     1      -7.989  11.735  23.802  0.00  0.00    +0.000 HD
ENDBRANCH  16  31
TORSDOF 5
ENDMDL
MODEL 3
REMARK VINA RESULT:      -7.4      7.337     10.008
REMARK  Name = 
REMARK  13 active torsions:
REMARK  status: ('A' for Active; 'I' for Inactive)
REMARK    1  A    between atoms: C_1  and  C_2
REMARK    2  A    between atoms: C_2  and  C_3
REMARK    3  A    between atoms: C_4  and  C_5
REMARK    4  A    between atoms: C_5  and  C_6
REMARK    5  A    between atoms: C_6  and  C_7
REMARK    6  A    between atoms: C_7  and  C_8
REMARK    7  A    between atoms: C_7  and  C_9
REMARK    8  A    between atoms: C_12  and  C_13
REMARK    9  A    between atoms: C_18  and  C_19
REMARK   10  A    between atoms: C_20  and  C_21
REMARK   11  A    between atoms: C_24  and  O_25
REMARK   12  A    between atoms: C_26  and  C_27
REMARK   13  A    between atoms: C_26  and  C_28
REMARK                            x       y       z     vdW  Elec       q    Type
REMARK                         _______ _______ _______ _____ _____    ______ ____
ROOT
ATOM      1  C   UNL     1       0.769  10.899  20.835  0.00  0.00    +0.000 C 
ATOM      2  C   UNL     1       1.157  10.469  19.420  0.00  0.00    +0.000 C 
ATOM      3  C   UNL     1       0.013  11.019  18.560  0.00  0.00    +0.000 C 
ATOM      4  C   UNL     1      -0.625  12.266  19.305  0.00  0.00    +0.000 C 
ATOM      5  C   UNL     1      -0.578  13.364  18.194  0.00  0.00    +0.000 C 
ATOM      6  C   UNL     1      -2.124  12.248  19.752  0.00  0.00    +0.000 C 
ATOM      7  C   UNL     1      -2.537  12.855  20.896  0.00  0.00    +0.000 C 
ATOM      8  C   UNL     1      -1.549  13.547  21.809  0.00  0.00    +0.000 C 
ATOM      9  C   UNL     1      -0.158  13.020  21.856  0.00  0.00    +0.000 C 
ATOM     10  C   UNL     1       0.336  12.404  20.553  0.00  0.00    +0.000 C 
ATOM     11  C   UNL     1       1.529  13.348  20.170  0.00  0.00    +0.000 C 
ATOM     12  C   UNL     1      -3.999  13.215  21.230  0.00  0.00    +0.000 C 
ATOM     13  C   UNL     1      -3.979  14.783  21.282  0.00  0.00    +0.000 C 
ATOM     14  C   UNL     1      -4.504  12.802  22.647  0.00  0.00    +0.000 C 
ATOM     15  C   UNL     1      -5.900  13.407  22.916  0.00  0.00    +0.000 C 
ATOM     16  C   UNL     1      -6.925  13.392  21.742  0.00  0.00    +0.000 C 
ATOM     17  C   UNL     1      -6.408  13.280  20.244  0.00  0.00    +0.000 C 
ATOM     18  C   UNL     1      -7.490  12.560  19.400  0.00  0.00    +0.000 C 
ATOM     19  C   UNL     1      -6.218  14.636  19.495  0.00  0.00    +0.000 C 
ATOM     20  C   UNL     1      -5.053  12.501  20.306  0.00  0.00    +0.000 C 
ATOM     21  C   UNL     1      -4.594  11.871  18.988  0.00  0.00    +0.000 C 
ATOM     22  C   UNL     1      -3.105  11.753  18.715  0.00  0.00    +0.000 C 
ENDROOT
BRANCH   1  23
ATOM     23  C   UNL     1      -0.188   9.769  21.479  0.00  0.00    +0.000 C 
ATOM     24  C   UNL     1      -0.396   9.752  23.008  0.00  0.00    +0.000 C 
BRANCH  23  25
ATOM     25  C   UNL     1       0.051   8.313  21.007  0.00  0.00    +0.000 C 
BRANCH  25  26
ATOM     26  C   UNL     1       1.462   7.771  21.281  0.00  0.00    +0.000 C 
BRANCH  26  30
ATOM     27  C   UNL     1       2.958   5.395  18.558  0.00  0.00    +0.000 C 
ATOM     28  C   UNL     1       2.238   5.847  19.801  0.00  0.00    +0.000 C 
ATOM     29  C   UNL     1       1.735   4.779  20.722  0.00  0.00    +0.000 C 
ATOM     30  C   UNL     1       2.068   7.163  20.045  0.00  0.00    +0.000 C 
ENDBRANCH  26  30
ENDBRANCH  25  26
ENDBRANCH  23  25
ENDBRANCH   1  23
BRANCH  16  31
ATOM     31  O   UNL     1      -7.787  12.278  22.034  0.00  0.00    +0.000 OA
ATOM     32  H   UNL     1      -7.372  11.479  21.669  0.00  0.00    +0.000 HD
ENDBRANCH  16  31
TORSDOF 5
ENDMDL
MODEL 4
REMARK VINA RESULT:      -7.2      6.877      9.322
REMARK  Name = 
REMARK  13 active torsions:
REMARK  status: ('A' for Active; 'I' for Inactive)
REMARK    1  A    between atoms: C_1  and  C_2
REMARK    2  A    between atoms: C_2  and  C_3
REMARK    3  A    between atoms: C_4  and  C_5
REMARK    4  A    between atoms: C_5  and  C_6
REMARK    5  A    between atoms: C_6  and  C_7
REMARK    6  A    between atoms: C_7  and  C_8
REMARK    7  A    between atoms: C_7  and  C_9
REMARK    8  A    between atoms: C_12  and  C_13
REMARK    9  A    between atoms: C_18  and  C_19
REMARK   10  A    between atoms: C_20  and  C_21
REMARK   11  A    between atoms: C_24  and  O_25
REMARK   12  A    between atoms: C_26  and  C_27
REMARK   13  A    between atoms: C_26  and  C_28
REMARK                            x       y       z     vdW  Elec       q    Type
REMARK                         _______ _______ _______ _____ _____    ______ ____
ROOT
ATOM      1  C   UNL     1       0.824  10.255  20.043  0.00  0.00    +0.000 C 
ATOM      2  C   UNL     1       0.497   9.795  18.622  0.00  0.00    +0.000 C 
ATOM      3  C   UNL     1      -0.713  10.656  18.245  0.00  0.00    +0.000 C 
ATOM      4  C   UNL     1      -0.667  11.996  19.093  0.00  0.00    +0.000 C 
ATOM      5  C   UNL     1      -0.787  13.087  17.980  0.00  0.00    +0.000 C 
ATOM      6  C   UNL     1      -1.817  12.349  20.092  0.00  0.00    +0.000 C 
ATOM      7  C   UNL     1      -1.574  12.997  21.263  0.00  0.00    +0.000 C 
ATOM      8  C   UNL     1      -0.165  13.374  21.665  0.00  0.00    +0.000 C 
ATOM      9  C   UNL     1       0.947  12.502  21.198  0.00  0.00    +0.000 C 
ATOM     10  C   UNL     1       0.711  11.830  19.852  0.00  0.00    +0.000 C 
ATOM     11  C   UNL     1       1.851  12.447  18.968  0.00  0.00    +0.000 C 
ATOM     12  C   UNL     1      -2.641  13.711  22.118  0.00  0.00    +0.000 C 
ATOM     13  C   UNL     1      -2.206  15.216  22.051  0.00  0.00    +0.000 C 
ATOM     14  C   UNL     1      -2.630  13.388  23.643  0.00  0.00    +0.000 C 
ATOM     15  C   UNL     1      -3.603  14.323  24.397  0.00  0.00    +0.000 C 
ATOM     16  C   UNL     1      -4.976  14.620  23.723  0.00  0.00    +0.000 C 
ATOM     17  C   UNL     1      -5.142  14.436  22.154  0.00  0.00    +0.000 C 
ATOM     18  C   UNL     1      -6.614  14.055  21.853  0.00  0.00    +0.000 C 
ATOM     19  C   UNL     1      -4.928  15.725  21.300  0.00  0.00    +0.000 C 
ATOM     20  C   UNL     1      -4.118  13.331  21.732  0.00  0.00    +0.000 C 
ATOM     21  C   UNL     1      -4.395  12.656  20.386  0.00  0.00    +0.000 C 
ATOM     22  C   UNL     1      -3.218  12.166  19.560  0.00  0.00    +0.000 C 
ENDROOT
BRANCH   1  23
ATOM     23  C   UNL     1      -0.051   9.387  21.086  0.00  0.00    +0.000 C 
ATOM     24  C   UNL     1      -0.244   9.921  22.521  0.00  0.00    +0.000 C 
BRANCH  23  25
ATOM     25  C   UNL     1       0.278   7.876  21.171  0.00  0.00    +0.000 C 
BRANCH  25  26
ATOM     26  C   UNL     1       1.747   7.520  20.900  0.00  0.00    +0.000 C 
BRANCH  26  30
ATOM     27  C   UNL     1       2.340   4.710  18.246  0.00  0.00    +0.000 C 
ATOM     28  C   UNL     1       2.380   6.061  18.909  0.00  0.00    +0.000 C 
ATOM     29  C   UNL     1       3.004   7.181  18.136  0.00  0.00    +0.000 C 
ATOM     30  C   UNL     1       1.870   6.223  20.148  0.00  0.00    +0.000 C 
ENDBRANCH  26  30
ENDBRANCH  25  26
ENDBRANCH  23  25
ENDBRANCH   1  23
BRANCH  16  31
ATOM     31  O   UNL     1      -5.903  13.757  24.405  0.00  0.00    +0.000 OA
ATOM     32  H   UNL     1      -5.395  13.024  24.792  0.00  0.00    +0.000 HD
ENDBRANCH  16  31
TORSDOF 5
ENDMDL
MODEL 5
REMARK VINA RESULT:      -7.2      7.398     10.147
REMARK  Name = 
REMARK  13 active torsions:
REMARK  status: ('A' for Active; 'I' for Inactive)
REMARK    1  A    between atoms: C_1  and  C_2
REMARK    2  A    between atoms: C_2  and  C_3
REMARK    3  A    between atoms: C_4  and  C_5
REMARK    4  A    between atoms: C_5  and  C_6
REMARK    5  A    between atoms: C_6  and  C_7
REMARK    6  A    between atoms: C_7  and  C_8
REMARK    7  A    between atoms: C_7  and  C_9
REMARK    8  A    between atoms: C_12  and  C_13
REMARK    9  A    between atoms: C_18  and  C_19
REMARK   10  A    between atoms: C_20  and  C_21
REMARK   11  A    between atoms: C_24  and  O_25
REMARK   12  A    between atoms: C_26  and  C_27
REMARK   13  A    between atoms: C_26  and  C_28
REMARK                            x       y       z     vdW  Elec       q    Type
REMARK                         _______ _______ _______ _____ _____    ______ ____
ROOT
ATOM      1  C   UNL     1       0.662  11.437  21.037  0.00  0.00    +0.000 C 
ATOM      2  C   UNL     1       0.867  11.390  19.522  0.00  0.00    +0.000 C 
ATOM      3  C   UNL     1      -0.419  12.017  18.974  0.00  0.00    +0.000 C 
ATOM      4  C   UNL     1      -1.019  12.989  20.076  0.00  0.00    +0.000 C 
ATOM      5  C   UNL     1      -1.198  14.317  19.272  0.00  0.00    +0.000 C 
ATOM      6  C   UNL     1      -2.434  12.726  20.688  0.00  0.00    +0.000 C 
ATOM      7  C   UNL     1      -2.714  13.005  21.989  0.00  0.00    +0.000 C 
ATOM      8  C   UNL     1      -1.648  13.553  22.914  0.00  0.00    +0.000 C 
ATOM      9  C   UNL     1      -0.236  13.162  22.655  0.00  0.00    +0.000 C 
ATOM     10  C   UNL     1       0.102  12.918  21.190  0.00  0.00    +0.000 C 
ATOM     11  C   UNL     1       1.168  14.033  20.904  0.00  0.00    +0.000 C 
ATOM     12  C   UNL     1      -4.132  13.138  22.582  0.00  0.00    +0.000 C 
ATOM     13  C   UNL     1      -4.200  14.644  23.014  0.00  0.00    +0.000 C 
ATOM     14  C   UNL     1      -4.402  12.358  23.904  0.00  0.00    +0.000 C 
ATOM     15  C   UNL     1      -5.779  12.749  24.487  0.00  0.00    +0.000 C 
ATOM     16  C   UNL     1      -6.959  12.914  23.482  0.00  0.00    +0.000 C 
ATOM     17  C   UNL     1      -6.657  13.207  21.950  0.00  0.00    +0.000 C 
ATOM     18  C   UNL     1      -7.804  12.607  21.097  0.00  0.00    +0.000 C 
ATOM     19  C   UNL     1      -6.660  14.713  21.540  0.00  0.00    +0.000 C 
ATOM     20  C   UNL     1      -5.262  12.565  21.649  0.00  0.00    +0.000 C 
ATOM     21  C   UNL     1      -4.960  12.309  20.170  0.00  0.00    +0.000 C 
ATOM     22  C   UNL     1      -3.521  12.399  19.693  0.00  0.00    +0.000 C 
ENDROOT
BRANCH   1  23
ATOM     23  C   UNL     1      -0.122  10.102  21.497  0.00  0.00    +0.000 C 
ATOM     24  C   UNL     1      -0.217   9.777  23.003  0.00  0.00    +0.000 C 
BRANCH  23  25
ATOM     25  C   UNL     1       0.234   8.798  20.741  0.00  0.00    +0.000 C 
BRANCH  25  26
ATOM     26  C   UNL     1       1.635   8.244  21.039  0.00  0.00    +0.000 C 
BRANCH  26  30
ATOM     27  C   UNL     1       2.478   5.757  18.140  0.00  0.00    +0.000 C 
ATOM     28  C   UNL     1       2.302   7.053  18.887  0.00  0.00    +0.000 C 
ATOM     29  C   UNL     1       2.543   8.318  18.122  0.00  0.00    +0.000 C 
ATOM     30  C   UNL     1       1.945   7.042  20.187  0.00  0.00    +0.000 C 
ENDBRANCH  26  30
ENDBRANCH  25  26
ENDBRANCH  23  25
ENDBRANCH   1  23
BRANCH  16  31
ATOM     31  O   UNL     1      -7.701  11.688  23.597  0.00  0.00    +0.000 OA
ATOM     32  H   UNL     1      -7.069  10.952  23.532  0.00  0.00    +0.000 HD
ENDBRANCH  16  31
TORSDOF 5
ENDMDL
MODEL 6
REMARK VINA RESULT:      -7.0      1.277      1.705
REMARK  Name = 
REMARK  13 active torsions:
REMARK  status: ('A' for Active; 'I' for Inactive)
REMARK    1  A    between atoms: C_1  and  C_2
REMARK    2  A    between atoms: C_2  and  C_3
REMARK    3  A    between atoms: C_4  and  C_5
REMARK    4  A    between atoms: C_5  and  C_6
REMARK    5  A    between atoms: C_6  and  C_7
REMARK    6  A    between atoms: C_7  and  C_8
REMARK    7  A    between atoms: C_7  and  C_9
REMARK    8  A    between atoms: C_12  and  C_13
REMARK    9  A    between atoms: C_18  and  C_19
REMARK   10  A    between atoms: C_20  and  C_21
REMARK   11  A    between atoms: C_24  and  O_25
REMARK   12  A    between atoms: C_26  and  C_27
REMARK   13  A    between atoms: C_26  and  C_28
REMARK                            x       y       z     vdW  Elec       q    Type
REMARK                         _______ _______ _______ _____ _____    ______ ____
ROOT
ATOM      1  C   UNL     1      10.378  12.616  18.570  0.00  0.00    +0.000 C 
ATOM      2  C   UNL     1       9.899  13.074  17.193  0.00  0.00    +0.000 C 
ATOM      3  C   UNL     1       8.903  14.191  17.522  0.00  0.00    +0.000 C 
ATOM      4  C   UNL     1       9.286  14.814  18.930  0.00  0.00    +0.000 C 
ATOM      5  C   UNL     1       9.374  16.339  18.595  0.00  0.00    +0.000 C 
ATOM      6  C   UNL     1       8.287  14.750  20.131  0.00  0.00    +0.000 C 
ATOM      7  C   UNL     1       8.716  14.596  21.412  0.00  0.00    +0.000 C 
ATOM      8  C   UNL     1      10.189  14.445  21.725  0.00  0.00    +0.000 C 
ATOM      9  C   UNL     1      11.055  13.800  20.701  0.00  0.00    +0.000 C 
ATOM     10  C   UNL     1      10.619  14.030  19.260  0.00  0.00    +0.000 C 
ATOM     11  C   UNL     1      11.834  14.827  18.668  0.00  0.00    +0.000 C 
ATOM     12  C   UNL     1       7.874  14.892  22.670  0.00  0.00    +0.000 C 
ATOM     13  C   UNL     1       8.637  16.087  23.340  0.00  0.00    +0.000 C 
ATOM     14  C   UNL     1       7.871  13.788  23.771  0.00  0.00    +0.000 C 
ATOM     15  C   UNL     1       7.167  14.304  25.047  0.00  0.00    +0.000 C 
ATOM     16  C   UNL     1       5.872  15.149  24.856  0.00  0.00    +0.000 C 
ATOM     17  C   UNL     1       5.607  15.889  23.475  0.00  0.00    +0.000 C 
ATOM     18  C   UNL     1       4.077  15.991  23.254  0.00  0.00    +0.000 C 
ATOM     19  C   UNL     1       6.075  17.377  23.409  0.00  0.00    +0.000 C 
ATOM     20  C   UNL     1       6.335  15.042  22.379  0.00  0.00    +0.000 C 
ATOM     21  C   UNL     1       5.860  15.276  20.943  0.00  0.00    +0.000 C 
ATOM     22  C   UNL     1       6.861  15.129  19.810  0.00  0.00    +0.000 C 
ENDROOT
BRANCH   1  23
ATOM     23  C   UNL     1       9.370  11.481  19.121  0.00  0.00    +0.000 C 
ATOM     24  C   UNL     1       9.739  10.720  20.412  0.00  0.00    +0.000 C 
BRANCH  23  25
ATOM     25  C   UNL     1       8.857  10.453  18.082  0.00  0.00    +0.000 C 
BRANCH  25  26
ATOM     26  C   UNL     1       8.647   9.033  18.631  0.00  0.00    +0.000 C 
BRANCH  26  30
ATOM     27  C   UNL     1       6.848   6.134  16.721  0.00  0.00    +0.000 C 
ATOM     28  C   UNL     1       7.561   6.876  17.820  0.00  0.00    +0.000 C 
ATOM     29  C   UNL     1       7.910   6.098  19.051  0.00  0.00    +0.000 C 
ATOM     30  C   UNL     1       7.857   8.183  17.673  0.00  0.00    +0.000 C 
ENDBRANCH  26  30
ENDBRANCH  25  26
ENDBRANCH  23  25
ENDBRANCH   1  23
BRANCH  16  31
ATOM     31  O   UNL     1       4.801  14.226  25.116  0.00  0.00    +0.000 OA
ATOM     32  H   UNL     1       4.216  14.630  25.779  0.00  0.00    +0.000 HD
ENDBRANCH  16  31
TORSDOF 5
ENDMDL
MODEL 7
REMARK VINA RESULT:      -6.9      7.285     10.130
REMARK  Name = 
REMARK  13 active torsions:
REMARK  status: ('A' for Active; 'I' for Inactive)
REMARK    1  A    between atoms: C_1  and  C_2
REMARK    2  A    between atoms: C_2  and  C_3
REMARK    3  A    between atoms: C_4  and  C_5
REMARK    4  A    between atoms: C_5  and  C_6
REMARK    5  A    between atoms: C_6  and  C_7
REMARK    6  A    between atoms: C_7  and  C_8
REMARK    7  A    between atoms: C_7  and  C_9
REMARK    8  A    between atoms: C_12  and  C_13
REMARK    9  A    between atoms: C_18  and  C_19
REMARK   10  A    between atoms: C_20  and  C_21
REMARK   11  A    between atoms: C_24  and  O_25
REMARK   12  A    between atoms: C_26  and  C_27
REMARK   13  A    between atoms: C_26  and  C_28
REMARK                            x       y       z     vdW  Elec       q    Type
REMARK                         _______ _______ _______ _____ _____    ______ ____
ROOT
ATOM      1  C   UNL     1       0.821  11.724  21.330  0.00  0.00    +0.000 C 
ATOM      2  C   UNL     1       1.539  11.357  20.031  0.00  0.00    +0.000 C 
ATOM      3  C   UNL     1       0.495  11.667  18.953  0.00  0.00    +0.000 C 
ATOM      4  C   UNL     1      -0.492  12.779  19.508  0.00  0.00    +0.000 C 
ATOM      5  C   UNL     1      -0.442  13.851  18.372  0.00  0.00    +0.000 C 
ATOM      6  C   UNL     1      -2.017  12.480  19.676  0.00  0.00    +0.000 C 
ATOM      7  C   UNL     1      -2.743  13.011  20.696  0.00  0.00    +0.000 C 
ATOM      8  C   UNL     1      -2.089  13.892  21.739  0.00  0.00    +0.000 C 
ATOM      9  C   UNL     1      -0.658  13.641  22.062  0.00  0.00    +0.000 C 
ATOM     10  C   UNL     1       0.176  13.114  20.902  0.00  0.00    +0.000 C 
ATOM     11  C   UNL     1       1.224  14.264  20.696  0.00  0.00    +0.000 C 
ATOM     12  C   UNL     1      -4.283  13.089  20.742  0.00  0.00    +0.000 C 
ATOM     13  C   UNL     1      -4.564  14.632  20.721  0.00  0.00    +0.000 C 
ATOM     14  C   UNL     1      -4.958  12.605  22.061  0.00  0.00    +0.000 C 
ATOM     15  C   UNL     1      -6.468  12.935  22.044  0.00  0.00    +0.000 C 
ATOM     16  C   UNL     1      -7.234  12.709  20.706  0.00  0.00    +0.000 C 
ATOM     17  C   UNL     1      -6.434  12.679  19.333  0.00  0.00    +0.000 C 
ATOM     18  C   UNL     1      -7.186  11.754  18.343  0.00  0.00    +0.000 C 
ATOM     19  C   UNL     1      -6.363  14.037  18.567  0.00  0.00    +0.000 C 
ATOM     20  C   UNL     1      -4.993  12.174  19.678  0.00  0.00    +0.000 C 
ATOM     21  C   UNL     1      -4.187  11.627  18.496  0.00  0.00    +0.000 C 
ATOM     22  C   UNL     1      -2.678  11.793  18.504  0.00  0.00    +0.000 C 
ENDROOT
BRANCH   1  23
ATOM     23  C   UNL     1      -0.013  10.439  21.843  0.00  0.00    +0.000 C 
ATOM     24  C   UNL     1      -0.884  10.575  23.110  0.00  0.00    +0.000 C 
BRANCH  23  25
ATOM     25  C   UNL     1       0.766   9.103  21.932  0.00  0.00    +0.000 C 
BRANCH  25  26
ATOM     26  C   UNL     1       0.601   8.181  20.714  0.00  0.00    +0.000 C 
BRANCH  26  30
ATOM     27  C   UNL     1       3.530   5.910  19.462  0.00  0.00    +0.000 C 
ATOM     28  C   UNL     1       2.459   6.969  19.459  0.00  0.00    +0.000 C 
ATOM     29  C   UNL     1       2.222   7.694  18.170  0.00  0.00    +0.000 C 
ATOM     30  C   UNL     1       1.761   7.230  20.583  0.00  0.00    +0.000 C 
ENDBRANCH  26  30
ENDBRANCH  25  26
ENDBRANCH  23  25
ENDBRANCH   1  23
BRANCH  16  31
ATOM     31  O   UNL     1      -7.913  11.455  20.890  0.00  0.00    +0.000 OA
ATOM     32  H   UNL     1      -8.473  11.304  20.109  0.00  0.00    +0.000 HD
ENDBRANCH  16  31
TORSDOF 5
ENDMDL
MODEL 8
REMARK VINA RESULT:      -6.6      7.450     10.420
REMARK  Name = 
REMARK  13 active torsions:
REMARK  status: ('A' for Active; 'I' for Inactive)
REMARK    1  A    between atoms: C_1  and  C_2
REMARK    2  A    between atoms: C_2  and  C_3
REMARK    3  A    between atoms: C_4  and  C_5
REMARK    4  A    between atoms: C_5  and  C_6
REMARK    5  A    between atoms: C_6  and  C_7
REMARK    6  A    between atoms: C_7  and  C_8
REMARK    7  A    between atoms: C_7  and  C_9
REMARK    8  A    between atoms: C_12  and  C_13
REMARK    9  A    between atoms: C_18  and  C_19
REMARK   10  A    between atoms: C_20  and  C_21
REMARK   11  A    between atoms: C_24  and  O_25
REMARK   12  A    between atoms: C_26  and  C_27
REMARK   13  A    between atoms: C_26  and  C_28
REMARK                            x       y       z     vdW  Elec       q    Type
REMARK                         _______ _______ _______ _____ _____    ______ ____
ROOT
ATOM      1  C   UNL     1       0.586  12.289  21.838  0.00  0.00    +0.000 C 
ATOM      2  C   UNL     1       1.497  12.174  20.616  0.00  0.00    +0.000 C 
ATOM      3  C   UNL     1       0.555  12.480  19.446  0.00  0.00    +0.000 C 
ATOM      4  C   UNL     1      -0.635  13.385  19.977  0.00  0.00    +0.000 C 
ATOM      5  C   UNL     1      -0.600  14.585  18.976  0.00  0.00    +0.000 C 
ATOM      6  C   UNL     1      -2.114  12.881  19.908  0.00  0.00    +0.000 C 
ATOM      7  C   UNL     1      -3.021  13.191  20.872  0.00  0.00    +0.000 C 
ATOM      8  C   UNL     1      -2.624  14.014  22.078  0.00  0.00    +0.000 C 
ATOM      9  C   UNL     1      -1.221  13.905  22.562  0.00  0.00    +0.000 C 
ATOM     10  C   UNL     1      -0.190  13.630  21.475  0.00  0.00    +0.000 C 
ATOM     11  C   UNL     1       0.705  14.917  21.531  0.00  0.00    +0.000 C 
ATOM     12  C   UNL     1      -4.552  13.071  20.719  0.00  0.00    +0.000 C 
ATOM     13  C   UNL     1      -5.040  14.558  20.821  0.00  0.00    +0.000 C 
ATOM     14  C   UNL     1      -5.305  12.352  21.879  0.00  0.00    +0.000 C 
ATOM     15  C   UNL     1      -6.833  12.491  21.694  0.00  0.00    +0.000 C 
ATOM     16  C   UNL     1      -7.396  12.335  20.250  0.00  0.00    +0.000 C 
ATOM     17  C   UNL     1      -6.443  12.570  19.001  0.00  0.00    +0.000 C 
ATOM     18  C   UNL     1      -6.937  11.685  17.828  0.00  0.00    +0.000 C 
ATOM     19  C   UNL     1      -6.470  14.009  18.396  0.00  0.00    +0.000 C 
ATOM     20  C   UNL     1      -4.998  12.210  19.480  0.00  0.00    +0.000 C 
ATOM     21  C   UNL     1      -3.989  11.914  18.366  0.00  0.00    +0.000 C 
ATOM     22  C   UNL     1      -2.529  12.264  18.593  0.00  0.00    +0.000 C 
ENDROOT
BRANCH   1  23
ATOM     23  C   UNL     1      -0.117  10.859  22.099  0.00  0.00    +0.000 C 
ATOM     24  C   UNL     1      -1.210  10.753  23.184  0.00  0.00    +0.000 C 
BRANCH  23  25
ATOM     25  C   UNL     1       0.830   9.642  22.246  0.00  0.00    +0.000 C 
BRANCH  25  26
ATOM     26  C   UNL     1       0.572   8.501  21.251  0.00  0.00    +0.000 C 
BRANCH  26  30
ATOM     27  C   UNL     1       2.224   8.892  17.727  0.00  0.00    +0.000 C 
ATOM     28  C   UNL     1       1.198   8.975  18.826  0.00  0.00    +0.000 C 
ATOM     29  C   UNL     1      -0.150   9.515  18.461  0.00  0.00    +0.000 C 
ATOM     30  C   UNL     1       1.510   8.573  20.076  0.00  0.00    +0.000 C 
ENDBRANCH  26  30
ENDBRANCH  25  26
ENDBRANCH  23  25
ENDBRANCH   1  23
BRANCH  16  31
ATOM     31  O   UNL     1      -7.912  10.993  20.210  0.00  0.00    +0.000 OA
ATOM     32  H   UNL     1      -8.833  11.039  19.902  0.00  0.00    +0.000 HD
ENDBRANCH  16  31
TORSDOF 5
ENDMDL
MODEL 9
REMARK VINA RESULT:      -6.5      2.060      3.655
REMARK  Name = 
REMARK  13 active torsions:
REMARK  status: ('A' for Active; 'I' for Inactive)
REMARK    1  A    between atoms: C_1  and  C_2
REMARK    2  A    between atoms: C_2  and  C_3
REMARK    3  A    between atoms: C_4  and  C_5
REMARK    4  A    between atoms: C_5  and  C_6
REMARK    5  A    between atoms: C_6  and  C_7
REMARK    6  A    between atoms: C_7  and  C_8
REMARK    7  A    between atoms: C_7  and  C_9
REMARK    8  A    between atoms: C_12  and  C_13
REMARK    9  A    between atoms: C_18  and  C_19
REMARK   10  A    between atoms: C_20  and  C_21
REMARK   11  A    between atoms: C_24  and  O_25
REMARK   12  A    between atoms: C_26  and  C_27
REMARK   13  A    between atoms: C_26  and  C_28
REMARK                            x       y       z     vdW  Elec       q    Type
REMARK                         _______ _______ _______ _____ _____    ______ ____
ROOT
ATOM      1  C   UNL     1      10.984  13.026  20.248  0.00  0.00    +0.000 C 
ATOM      2  C   UNL     1      11.583  12.897  18.847  0.00  0.00    +0.000 C 
ATOM      3  C   UNL     1      10.560  13.616  17.961  0.00  0.00    +0.000 C 
ATOM      4  C   UNL     1       9.786  14.684  18.844  0.00  0.00    +0.000 C 
ATOM      5  C   UNL     1       9.962  15.989  18.000  0.00  0.00    +0.000 C 
ATOM      6  C   UNL     1       8.240  14.577  19.053  0.00  0.00    +0.000 C 
ATOM      7  C   UNL     1       7.650  14.935  20.225  0.00  0.00    +0.000 C 
ATOM      8  C   UNL     1       8.477  15.421  21.395  0.00  0.00    +0.000 C 
ATOM      9  C   UNL     1       9.861  14.892  21.535  0.00  0.00    +0.000 C 
ATOM     10  C   UNL     1      10.554  14.558  20.220  0.00  0.00    +0.000 C 
ATOM     11  C   UNL     1      11.763  15.558  20.217  0.00  0.00    +0.000 C 
ATOM     12  C   UNL     1       6.146  15.222  20.408  0.00  0.00    +0.000 C 
ATOM     13  C   UNL     1       6.114  16.745  20.783  0.00  0.00    +0.000 C 
ATOM     14  C   UNL     1       5.454  14.526  21.620  0.00  0.00    +0.000 C 
ATOM     15  C   UNL     1       4.017  15.066  21.800  0.00  0.00    +0.000 C 
ATOM     16  C   UNL     1       3.173  15.296  20.511  0.00  0.00    +0.000 C 
ATOM     17  C   UNL     1       3.903  15.496  19.114  0.00  0.00    +0.000 C 
ATOM     18  C   UNL     1       2.973  14.968  17.991  0.00  0.00    +0.000 C 
ATOM     19  C   UNL     1       4.160  16.977  18.695  0.00  0.00    +0.000 C 
ATOM     20  C   UNL     1       5.256  14.717  19.213  0.00  0.00    +0.000 C 
ATOM     21  C   UNL     1       5.917  14.373  17.875  0.00  0.00    +0.000 C 
ATOM     22  C   UNL     1       7.433  14.310  17.805  0.00  0.00    +0.000 C 
ENDROOT
BRANCH   1  23
ATOM     23  C   UNL     1       9.977  11.790  20.499  0.00  0.00    +0.000 C 
ATOM     24  C   UNL     1       9.610  10.874  19.311  0.00  0.00    +0.000 C 
BRANCH  23  25
ATOM     25  C   UNL     1       8.680  12.106  21.285  0.00  0.00    +0.000 C 
BRANCH  25  26
ATOM     26  C   UNL     1       8.640  11.544  22.714  0.00  0.00    +0.000 C 
BRANCH  26  30
ATOM     27  C   UNL     1       5.915  13.077  25.063  0.00  0.00    +0.000 C 
ATOM     28  C   UNL     1       7.237  12.879  24.370  0.00  0.00    +0.000 C 
ATOM     29  C   UNL     1       8.364  13.773  24.784  0.00  0.00    +0.000 C 
ATOM     30  C   UNL     1       7.369  11.929  23.422  0.00  0.00    +0.000 C 
ENDBRANCH  26  30
ENDBRANCH  25  26
ENDBRANCH  23  25
ENDBRANCH   1  23
BRANCH  16  31
ATOM     31  O   UNL     1       2.309  14.149  20.439  0.00  0.00    +0.000 OA
ATOM     32  H   UNL     1       2.405  13.653  21.270  0.00  0.00    +0.000 HD
ENDBRANCH  16  31
TORSDOF 5
ENDMDL
