MODEL 1
REMARK VINA RESULT:      -6.0      0.000      0.000
REMARK  Name = 
REMARK  6 active torsions:
REMARK  status: ('A' for Active; 'I' for Inactive)
REMARK    1  A    between atoms: C_2  and  C_3
REMARK    2  A    between atoms: N_9  and  C_10
REMARK    3  A    between atoms: N_9  and  C_16
REMARK    4  A    between atoms: C_10  and  C_11
REMARK    5  A    between atoms: C_16  and  C_17
REMARK    6  A    between atoms: N_19  and  C_20
REMARK                            x       y       z     vdW  Elec       q    Type
REMARK                         _______ _______ _______ _____ _____    ______ ____
ROOT
ATOM      1  C   UNL     1       8.444  14.168  22.459  0.00  0.00    +0.000 C 
ATOM      2  C   UNL     1       9.616  15.104  22.063  0.00  0.00    +0.000 C 
ATOM      3  C   UNL     1       9.677  16.388  22.876  0.00  0.00    +0.000 C 
ATOM      4  C   UNL     1       9.912  16.086  24.344  0.00  0.00    +0.000 C 
ATOM      5  C   UNL     1       8.907  15.081  24.890  0.00  0.00    +0.000 C 
ATOM      6  C   UNL     1       8.685  13.859  23.982  0.00  0.00    +0.000 C 
ENDROOT
BRANCH   1   7
ATOM      7  C   UNL     1       8.583  12.761  21.753  0.00  0.00    +0.000 C 
ATOM      8  O   UNL     1       8.258  11.706  22.293  0.00  0.00    +0.000 OA
ATOM      9  N   UNL     1       9.006  12.809  20.428  0.00  0.00    +0.000 N 
ATOM     10  H   UNL     1       9.191  13.719  20.026  0.00  0.00    +0.000 HD
BRANCH   9  11
ATOM     11  C   UNL     1       9.376  11.607  19.678  0.00  0.00    +0.000 C 
ATOM     12  C   UNL     1       9.172  11.800  18.172  0.00  0.00    +0.000 C 
ATOM     13  C   UNL     1      10.165  12.810  17.606  0.00  0.00    +0.000 C 
ATOM     14  C   UNL     1      11.604  12.373  17.864  0.00  0.00    +0.000 C 
ATOM     15  C   UNL     1      11.869  12.105  19.343  0.00  0.00    +0.000 C 
ATOM     16  C   UNL     1      10.825  11.173  19.958  0.00  0.00    +0.000 C 
ENDBRANCH   9  11
ENDBRANCH   1   7
BRANCH   1  19
ATOM     17  O   UNL     1       4.797  15.001  22.609  0.00  0.00    +0.000 OA
ATOM     18  C   UNL     1       5.838  14.367  22.814  0.00  0.00    +0.000 C 
ATOM     19  N   UNL     1       7.043  14.689  22.109  0.00  0.00    +0.000 N 
BRANCH  18  20
ATOM     20  C   UNL     1       5.765  13.386  23.931  0.00  0.00    +0.000 A 
ATOM     21  C   UNL     1       5.700  13.847  25.241  0.00  0.00    +0.000 A 
ATOM     22  N   UNL     1       5.718  13.018  26.319  0.00  0.00    +0.000 NA
ATOM     23  C   UNL     1       5.783  11.700  26.028  0.00  0.00    +0.000 A 
ATOM     24  C   UNL     1       5.804  11.236  24.729  0.00  0.00    +0.000 A 
ATOM     25  N   UNL     1       5.776  12.067  23.659  0.00  0.00    +0.000 NA
ENDBRANCH  18  20
BRANCH  19  26
ATOM     26  C   UNL     1       6.868  15.752  21.099  0.00  0.00    +0.000 C 
BRANCH  26  27
ATOM     27  C   UNL     1       6.423  15.236  19.772  0.00  0.00    +0.000 A 
ATOM     28  C   UNL     1       5.206  15.108  19.143  0.00  0.00    +0.000 A 
ATOM     29  C   UNL     1       5.470  14.627  17.835  0.00  0.00    +0.000 A 
ATOM     30  C   UNL     1       6.836  14.496  17.747  0.00  0.00    +0.000 A 
ATOM     31  O   UNL     1       7.423  14.865  18.910  0.00  0.00    +0.000 OA
ENDBRANCH  26  27
ENDBRANCH  19  26
ENDBRANCH   1  19
TORSDOF 6
ENDMDL
MODEL 2
REMARK VINA RESULT:      -5.9      7.666      9.996
REMARK  Name = 
REMARK  6 active torsions:
REMARK  status: ('A' for Active; 'I' for Inactive)
REMARK    1  A    between atoms: C_2  and  C_3
REMARK    2  A    between atoms: N_9  and  C_10
REMARK    3  A    between atoms: N_9  and  C_16
REMARK    4  A    between atoms: C_10  and  C_11
REMARK    5  A    between atoms: C_16  and  C_17
REMARK    6  A    between atoms: N_19  and  C_20
REMARK                            x       y       z     vdW  Elec       q    Type
REMARK                         _______ _______ _______ _____ _____    ______ ____
ROOT
ATOM      1  C   UNL     1      -0.185  12.506  20.930  0.00  0.00    +0.000 C 
ATOM      2  C   UNL     1      -0.374  11.629  22.196  0.00  0.00    +0.000 C 
ATOM      3  C   UNL     1      -0.598  10.155  21.894  0.00  0.00    +0.000 C 
ATOM      4  C   UNL     1       0.608   9.558  21.195  0.00  0.00    +0.000 C 
ATOM      5  C   UNL     1       1.016  10.363  19.969  0.00  0.00    +0.000 C 
ATOM      6  C   UNL     1       1.062  11.883  20.202  0.00  0.00    +0.000 C 
ENDROOT
BRANCH   1   7
ATOM      7  C   UNL     1       0.282  13.965  21.318  0.00  0.00    +0.000 C 
ATOM      8  O   UNL     1       0.760  14.244  22.416  0.00  0.00    +0.000 OA
ATOM      9  N   UNL     1       0.209  14.897  20.289  0.00  0.00    +0.000 N 
ATOM     10  H   UNL     1      -0.132  14.580  19.389  0.00  0.00    +0.000 HD
BRANCH   9  11
ATOM     11  C   UNL     1       0.413  16.330  20.510  0.00  0.00    +0.000 C 
ATOM     12  C   UNL     1       1.763  16.798  19.959  0.00  0.00    +0.000 C 
ATOM     13  C   UNL     1       1.788  16.735  18.435  0.00  0.00    +0.000 C 
ATOM     14  C   UNL     1       0.678  17.589  17.829  0.00  0.00    +0.000 C 
ATOM     15  C   UNL     1      -0.698  17.219  18.377  0.00  0.00    +0.000 C 
ATOM     16  C   UNL     1      -0.721  17.176  19.904  0.00  0.00    +0.000 C 
ENDBRANCH   9  11
ENDBRANCH   1   7
BRANCH   1  19
ATOM     17  O   UNL     1      -3.622  13.394  19.740  0.00  0.00    +0.000 OA
ATOM     18  C   UNL     1      -2.731  13.067  20.531  0.00  0.00    +0.000 C 
ATOM     19  N   UNL     1      -1.439  12.673  20.058  0.00  0.00    +0.000 N 
BRANCH  18  20
ATOM     20  C   UNL     1      -3.066  13.267  21.968  0.00  0.00    +0.000 A 
ATOM     21  C   UNL     1      -2.828  14.503  22.559  0.00  0.00    +0.000 A 
ATOM     22  N   UNL     1      -3.025  14.741  23.883  0.00  0.00    +0.000 NA
ATOM     23  C   UNL     1      -3.492  13.688  24.592  0.00  0.00    +0.000 A 
ATOM     24  C   UNL     1      -3.770  12.473  24.001  0.00  0.00    +0.000 A 
ATOM     25  N   UNL     1      -3.581  12.245  22.679  0.00  0.00    +0.000 NA
ENDBRANCH  18  20
BRANCH  19  26
ATOM     26  C   UNL     1      -1.340  12.622  18.586  0.00  0.00    +0.000 C 
BRANCH  26  27
ATOM     27  C   UNL     1      -1.999  11.423  17.992  0.00  0.00    +0.000 A 
ATOM     28  C   UNL     1      -2.301  10.160  18.450  0.00  0.00    +0.000 A 
ATOM     29  C   UNL     1      -3.026   9.513  17.417  0.00  0.00    +0.000 A 
ATOM     30  C   UNL     1      -3.122  10.425  16.392  0.00  0.00    +0.000 A 
ATOM     31  O   UNL     1      -2.509  11.584  16.731  0.00  0.00    +0.000 OA
ENDBRANCH  26  27
ENDBRANCH  19  26
ENDBRANCH   1  19
TORSDOF 6
ENDMDL
MODEL 3
REMARK VINA RESULT:      -5.9      7.631     10.157
REMARK  Name = 
REMARK  6 active torsions:
REMARK  status: ('A' for Active; 'I' for Inactive)
REMARK    1  A    between atoms: C_2  and  C_3
REMARK    2  A    between atoms: N_9  and  C_10
REMARK    3  A    between atoms: N_9  and  C_16
REMARK    4  A    between atoms: C_10  and  C_11
REMARK    5  A    between atoms: C_16  and  C_17
REMARK    6  A    between atoms: N_19  and  C_20
REMARK                            x       y       z     vdW  Elec       q    Type
REMARK                         _______ _______ _______ _____ _____    ______ ____
ROOT
ATOM      1  C   UNL     1      -1.564  13.630  20.172  0.00  0.00    +0.000 C 
ATOM      2  C   UNL     1      -2.033  14.921  20.894  0.00  0.00    +0.000 C 
ATOM      3  C   UNL     1      -0.927  15.944  21.102  0.00  0.00    +0.000 C 
ATOM      4  C   UNL     1      -0.384  16.429  19.770  0.00  0.00    +0.000 C 
ATOM      5  C   UNL     1       0.031  15.276  18.867  0.00  0.00    +0.000 C 
ATOM      6  C   UNL     1      -0.997  14.134  18.795  0.00  0.00    +0.000 C 
ENDROOT
BRANCH   1   7
ATOM      7  C   UNL     1      -2.798  12.726  19.775  0.00  0.00    +0.000 C 
ATOM      8  O   UNL     1      -3.833  12.678  20.436  0.00  0.00    +0.000 OA
ATOM      9  N   UNL     1      -2.670  12.061  18.560  0.00  0.00    +0.000 N 
ATOM     10  H   UNL     1      -1.816  12.200  18.034  0.00  0.00    +0.000 HD
BRANCH   9  11
ATOM     11  C   UNL     1      -3.619  11.035  18.122  0.00  0.00    +0.000 C 
ATOM     12  C   UNL     1      -4.345  11.452  16.839  0.00  0.00    +0.000 C 
ATOM     13  C   UNL     1      -3.390  11.486  15.651  0.00  0.00    +0.000 C 
ATOM     14  C   UNL     1      -2.730  10.128  15.433  0.00  0.00    +0.000 C 
ATOM     15  C   UNL     1      -2.031   9.618  16.691  0.00  0.00    +0.000 C 
ATOM     16  C   UNL     1      -2.941   9.669  17.918  0.00  0.00    +0.000 C 
ENDBRANCH   9  11
ENDBRANCH   1   7
BRANCH   1  19
ATOM     17  O   UNL     1      -0.142  11.414  22.834  0.00  0.00    +0.000 OA
ATOM     18  C   UNL     1      -0.832  12.310  22.335  0.00  0.00    +0.000 C 
ATOM     19  N   UNL     1      -0.617  12.734  20.984  0.00  0.00    +0.000 N 
BRANCH  18  20
ATOM     20  C   UNL     1      -1.965  12.773  23.182  0.00  0.00    +0.000 A 
ATOM     21  C   UNL     1      -1.857  13.979  23.866  0.00  0.00    +0.000 A 
ATOM     22  N   UNL     1      -2.809  14.430  24.727  0.00  0.00    +0.000 NA
ATOM     23  C   UNL     1      -3.889  13.628  24.858  0.00  0.00    +0.000 A 
ATOM     24  C   UNL     1      -4.020  12.452  24.149  0.00  0.00    +0.000 A 
ATOM     25  N   UNL     1      -3.072  12.013  23.285  0.00  0.00    +0.000 NA
ENDBRANCH  18  20
BRANCH  19  26
ATOM     26  C   UNL     1       0.528  12.068  20.332  0.00  0.00    +0.000 C 
BRANCH  26  27
ATOM     27  C   UNL     1       1.758  12.911  20.299  0.00  0.00    +0.000 A 
ATOM     28  C   UNL     1       2.672  13.248  19.327  0.00  0.00    +0.000 A 
ATOM     29  C   UNL     1       3.570  14.176  19.914  0.00  0.00    +0.000 A 
ATOM     30  C   UNL     1       3.143  14.348  21.210  0.00  0.00    +0.000 A 
ATOM     31  O   UNL     1       2.047  13.592  21.452  0.00  0.00    +0.000 OA
ENDBRANCH  26  27
ENDBRANCH  19  26
ENDBRANCH   1  19
TORSDOF 6
ENDMDL
MODEL 4
REMARK VINA RESULT:      -5.8      9.889     12.520
REMARK  Name = 
REMARK  6 active torsions:
REMARK  status: ('A' for Active; 'I' for Inactive)
REMARK    1  A    between atoms: C_2  and  C_3
REMARK    2  A    between atoms: N_9  and  C_10
REMARK    3  A    between atoms: N_9  and  C_16
REMARK    4  A    between atoms: C_10  and  C_11
REMARK    5  A    between atoms: C_16  and  C_17
REMARK    6  A    between atoms: N_19  and  C_20
REMARK                            x       y       z     vdW  Elec       q    Type
REMARK                         _______ _______ _______ _____ _____    ______ ____
ROOT
ATOM      1  C   UNL     1      -2.858  14.092  21.071  0.00  0.00    +0.000 C 
ATOM      2  C   UNL     1      -3.897  15.228  20.875  0.00  0.00    +0.000 C 
ATOM      3  C   UNL     1      -3.419  16.587  21.361  0.00  0.00    +0.000 C 
ATOM      4  C   UNL     1      -2.204  17.044  20.575  0.00  0.00    +0.000 C 
ATOM      5  C   UNL     1      -1.102  15.994  20.562  0.00  0.00    +0.000 C 
ATOM      6  C   UNL     1      -1.597  14.568  20.262  0.00  0.00    +0.000 C 
ENDROOT
BRANCH   1   7
ATOM      7  C   UNL     1      -3.317  12.773  20.331  0.00  0.00    +0.000 C 
ATOM      8  O   UNL     1      -2.588  11.794  20.196  0.00  0.00    +0.000 OA
ATOM      9  N   UNL     1      -4.649  12.759  19.931  0.00  0.00    +0.000 N 
ATOM     10  H   UNL     1      -5.212  13.576  20.136  0.00  0.00    +0.000 HD
BRANCH   9  11
ATOM     11  C   UNL     1      -5.199  11.712  19.068  0.00  0.00    +0.000 C 
ATOM     12  C   UNL     1      -6.649  11.383  19.436  0.00  0.00    +0.000 C 
ATOM     13  C   UNL     1      -7.579  12.546  19.106  0.00  0.00    +0.000 C 
ATOM     14  C   UNL     1      -7.509  12.907  17.625  0.00  0.00    +0.000 C 
ATOM     15  C   UNL     1      -6.081  13.193  17.169  0.00  0.00    +0.000 C 
ATOM     16  C   UNL     1      -5.110  12.086  17.577  0.00  0.00    +0.000 C 
ENDBRANCH   9  11
ENDBRANCH   1   7
BRANCH   1  19
ATOM     17  O   UNL     1      -3.289  12.859  24.580  0.00  0.00    +0.000 OA
ATOM     18  C   UNL     1      -3.594  13.383  23.503  0.00  0.00    +0.000 C 
ATOM     19  N   UNL     1      -2.589  13.696  22.531  0.00  0.00    +0.000 N 
BRANCH  18  20
ATOM     20  C   UNL     1      -5.057  13.504  23.257  0.00  0.00    +0.000 A 
ATOM     21  C   UNL     1      -5.698  14.706  23.536  0.00  0.00    +0.000 A 
ATOM     22  N   UNL     1      -7.044  14.871  23.421  0.00  0.00    +0.000 NA
ATOM     23  C   UNL     1      -7.720  13.782  22.992  0.00  0.00    +0.000 A 
ATOM     24  C   UNL     1      -7.082  12.601  22.673  0.00  0.00    +0.000 A 
ATOM     25  N   UNL     1      -5.740  12.446  22.780  0.00  0.00    +0.000 NA
ENDBRANCH  18  20
BRANCH  19  26
ATOM     26  C   UNL     1      -1.215  13.414  22.992  0.00  0.00    +0.000 C 
BRANCH  26  27
ATOM     27  C   UNL     1      -0.772  12.020  22.704  0.00  0.00    +0.000 A 
ATOM     28  C   UNL     1      -1.177  10.771  23.120  0.00  0.00    +0.000 A 
ATOM     29  C   UNL     1      -0.403   9.828  22.397  0.00  0.00    +0.000 A 
ATOM     30  C   UNL     1       0.424  10.563  21.581  0.00  0.00    +0.000 A 
ATOM     31  O   UNL     1       0.207  11.888  21.755  0.00  0.00    +0.000 OA
ENDBRANCH  26  27
ENDBRANCH  19  26
ENDBRANCH   1  19
TORSDOF 6
ENDMDL
MODEL 5
REMARK VINA RESULT:      -5.8      8.876     11.680
REMARK  Name = 
REMARK  6 active torsions:
REMARK  status: ('A' for Active; 'I' for Inactive)
REMARK    1  A    between atoms: C_2  and  C_3
REMARK    2  A    between atoms: N_9  and  C_10
REMARK    3  A    between atoms: N_9  and  C_16
REMARK    4  A    between atoms: C_10  and  C_11
REMARK    5  A    between atoms: C_16  and  C_17
REMARK    6  A    between atoms: N_19  and  C_20
REMARK                            x       y       z     vdW  Elec       q    Type
REMARK                         _______ _______ _______ _____ _____    ______ ____
ROOT
ATOM      1  C   UNL     1      -1.695  13.435  19.981  0.00  0.00    +0.000 C 
ATOM      2  C   UNL     1      -2.515  14.724  20.252  0.00  0.00    +0.000 C 
ATOM      3  C   UNL     1      -1.659  15.942  20.563  0.00  0.00    +0.000 C 
ATOM      4  C   UNL     1      -0.774  16.296  19.382  0.00  0.00    +0.000 C 
ATOM      5  C   UNL     1       0.039  15.102  18.899  0.00  0.00    +0.000 C 
ATOM      6  C   UNL     1      -0.774  13.803  18.762  0.00  0.00    +0.000 C 
ENDROOT
BRANCH   1   7
ATOM      7  C   UNL     1      -2.624  12.281  19.430  0.00  0.00    +0.000 C 
ATOM      8  O   UNL     1      -2.188  11.199  19.045  0.00  0.00    +0.000 OA
ATOM      9  N   UNL     1      -3.989  12.538  19.509  0.00  0.00    +0.000 N 
ATOM     10  H   UNL     1      -4.279  13.426  19.902  0.00  0.00    +0.000 HD
BRANCH   9  11
ATOM     11  C   UNL     1      -4.988  11.676  18.875  0.00  0.00    +0.000 C 
ATOM     12  C   UNL     1      -6.224  11.502  19.763  0.00  0.00    +0.000 C 
ATOM     13  C   UNL     1      -7.004  12.806  19.885  0.00  0.00    +0.000 C 
ATOM     14  C   UNL     1      -7.441  13.319  18.516  0.00  0.00    +0.000 C 
ATOM     15  C   UNL     1      -6.265  13.464  17.553  0.00  0.00    +0.000 C 
ATOM     16  C   UNL     1      -5.409  12.200  17.490  0.00  0.00    +0.000 C 
ENDBRANCH   9  11
ENDBRANCH   1   7
BRANCH   1  19
ATOM     17  O   UNL     1      -0.963  12.003  23.362  0.00  0.00    +0.000 OA
ATOM     18  C   UNL     1      -1.540  12.678  22.503  0.00  0.00    +0.000 C 
ATOM     19  N   UNL     1      -0.966  12.856  21.203  0.00  0.00    +0.000 N 
BRANCH  18  20
ATOM     20  C   UNL     1      -2.906  13.136  22.880  0.00  0.00    +0.000 A 
ATOM     21  C   UNL     1      -3.059  14.340  23.560  0.00  0.00    +0.000 A 
ATOM     22  N   UNL     1      -4.261  14.785  24.015  0.00  0.00    +0.000 NA
ATOM     23  C   UNL     1      -5.312  13.981  23.740  0.00  0.00    +0.000 A 
ATOM     24  C   UNL     1      -5.171  12.807  23.029  0.00  0.00    +0.000 A 
ATOM     25  N   UNL     1      -3.971  12.374  22.570  0.00  0.00    +0.000 NA
ENDBRANCH  18  20
BRANCH  19  26
ATOM     26  C   UNL     1       0.368  12.241  21.059  0.00  0.00    +0.000 C 
BRANCH  26  27
ATOM     27  C   UNL     1       0.369  10.770  21.303  0.00  0.00    +0.000 A 
ATOM     28  C   UNL     1      -0.343   9.706  20.797  0.00  0.00    +0.000 A 
ATOM     29  C   UNL     1       0.206   8.534  21.378  0.00  0.00    +0.000 A 
ATOM     30  C   UNL     1       1.222   8.959  22.202  0.00  0.00    +0.000 A 
ATOM     31  O   UNL     1       1.333  10.308  22.161  0.00  0.00    +0.000 OA
ENDBRANCH  26  27
ENDBRANCH  19  26
ENDBRANCH   1  19
TORSDOF 6
ENDMDL
MODEL 6
REMARK VINA RESULT:      -5.8      2.146      5.654
REMARK  Name = 
REMARK  6 active torsions:
REMARK  status: ('A' for Active; 'I' for Inactive)
REMARK    1  A    between atoms: C_2  and  C_3
REMARK    2  A    between atoms: N_9  and  C_10
REMARK    3  A    between atoms: N_9  and  C_16
REMARK    4  A    between atoms: C_10  and  C_11
REMARK    5  A    between atoms: C_16  and  C_17
REMARK    6  A    between atoms: N_19  and  C_20
REMARK                            x       y       z     vdW  Elec       q    Type
REMARK                         _______ _______ _______ _____ _____    ______ ____
ROOT
ATOM      1  C   UNL     1       9.341  15.211  21.084  0.00  0.00    +0.000 C 
ATOM      2  C   UNL     1      10.567  15.423  22.011  0.00  0.00    +0.000 C 
ATOM      3  C   UNL     1      11.101  16.848  22.006  0.00  0.00    +0.000 C 
ATOM      4  C   UNL     1      10.057  17.817  22.530  0.00  0.00    +0.000 C 
ATOM      5  C   UNL     1       8.727  17.675  21.802  0.00  0.00    +0.000 C 
ATOM      6  C   UNL     1       8.261  16.219  21.623  0.00  0.00    +0.000 C 
ENDROOT
BRANCH   1   7
ATOM      7  C   UNL     1       8.695  13.789  21.321  0.00  0.00    +0.000 C 
ATOM      8  O   UNL     1       8.703  12.901  20.471  0.00  0.00    +0.000 OA
ATOM      9  N   UNL     1       8.202  13.574  22.604  0.00  0.00    +0.000 N 
ATOM     10  H   UNL     1       8.290  14.328  23.275  0.00  0.00    +0.000 HD
BRANCH   9  11
ATOM     11  C   UNL     1       7.401  12.399  22.952  0.00  0.00    +0.000 C 
ATOM     12  C   UNL     1       8.036  11.605  24.097  0.00  0.00    +0.000 C 
ATOM     13  C   UNL     1       7.984  12.386  25.406  0.00  0.00    +0.000 C 
ATOM     14  C   UNL     1       6.549  12.742  25.780  0.00  0.00    +0.000 C 
ATOM     15  C   UNL     1       5.829  13.489  24.660  0.00  0.00    +0.000 C 
ATOM     16  C   UNL     1       5.953  12.773  23.315  0.00  0.00    +0.000 C 
ENDBRANCH   9  11
ENDBRANCH   1   7
BRANCH   1  19
ATOM     17  O   UNL     1       9.065  15.966  17.428  0.00  0.00    +0.000 OA
ATOM     18  C   UNL     1       8.692  15.700  18.575  0.00  0.00    +0.000 C 
ATOM     19  N   UNL     1       9.634  15.307  19.579  0.00  0.00    +0.000 N 
BRANCH  18  20
ATOM     20  C   UNL     1       7.252  15.970  18.844  0.00  0.00    +0.000 A 
ATOM     21  C   UNL     1       6.799  17.284  18.875  0.00  0.00    +0.000 A 
ATOM     22  N   UNL     1       5.521  17.619  19.199  0.00  0.00    +0.000 NA
ATOM     23  C   UNL     1       4.707  16.575  19.471  0.00  0.00    +0.000 A 
ATOM     24  C   UNL     1       5.141  15.267  19.399  0.00  0.00    +0.000 A 
ATOM     25  N   UNL     1       6.414  14.940  19.067  0.00  0.00    +0.000 NA
ENDBRANCH  18  20
BRANCH  19  26
ATOM     26  C   UNL     1      11.015  15.179  19.074  0.00  0.00    +0.000 C 
BRANCH  26  27
ATOM     27  C   UNL     1      11.462  13.763  18.931  0.00  0.00    +0.000 A 
ATOM     28  C   UNL     1      12.226  12.908  19.693  0.00  0.00    +0.000 A 
ATOM     29  C   UNL     1      12.198  11.647  19.045  0.00  0.00    +0.000 A 
ATOM     30  C   UNL     1      11.414  11.812  17.927  0.00  0.00    +0.000 A 
ATOM     31  O   UNL     1      10.960  13.085  17.851  0.00  0.00    +0.000 OA
ENDBRANCH  26  27
ENDBRANCH  19  26
ENDBRANCH   1  19
TORSDOF 6
ENDMDL
MODEL 7
REMARK VINA RESULT:      -5.8      7.192      9.332
REMARK  Name = 
REMARK  6 active torsions:
REMARK  status: ('A' for Active; 'I' for Inactive)
REMARK    1  A    between atoms: C_2  and  C_3
REMARK    2  A    between atoms: N_9  and  C_10
REMARK    3  A    between atoms: N_9  and  C_16
REMARK    4  A    between atoms: C_10  and  C_11
REMARK    5  A    between atoms: C_16  and  C_17
REMARK    6  A    between atoms: N_19  and  C_20
REMARK                            x       y       z     vdW  Elec       q    Type
REMARK                         _______ _______ _______ _____ _____    ______ ____
ROOT
ATOM      1  C   UNL     1      -0.041  12.238  21.017  0.00  0.00    +0.000 C 
ATOM      2  C   UNL     1      -0.374  11.481  22.330  0.00  0.00    +0.000 C 
ATOM      3  C   UNL     1      -0.809  10.040  22.113  0.00  0.00    +0.000 C 
ATOM      4  C   UNL     1       0.306   9.229  21.480  0.00  0.00    +0.000 C 
ATOM      5  C   UNL     1       0.846   9.886  20.216  0.00  0.00    +0.000 C 
ATOM      6  C   UNL     1       1.111  11.395  20.358  0.00  0.00    +0.000 C 
ENDROOT
BRANCH   1   7
ATOM      7  C   UNL     1       0.631  13.635  21.327  0.00  0.00    +0.000 C 
ATOM      8  O   UNL     1       0.588  14.168  22.434  0.00  0.00    +0.000 OA
ATOM      9  N   UNL     1       1.367  14.177  20.278  0.00  0.00    +0.000 N 
ATOM     10  H   UNL     1       1.415  13.650  19.414  0.00  0.00    +0.000 HD
BRANCH   9  11
ATOM     11  C   UNL     1       1.895  15.542  20.312  0.00  0.00    +0.000 C 
ATOM     12  C   UNL     1       3.315  15.582  20.884  0.00  0.00    +0.000 C 
ATOM     13  C   UNL     1       4.309  14.912  19.942  0.00  0.00    +0.000 C 
ATOM     14  C   UNL     1       4.305  15.579  18.570  0.00  0.00    +0.000 C 
ATOM     15  C   UNL     1       2.908  15.629  17.957  0.00  0.00    +0.000 C 
ATOM     16  C   UNL     1       1.873  16.205  18.923  0.00  0.00    +0.000 C 
ENDBRANCH   9  11
ENDBRANCH   1   7
BRANCH   1  19
ATOM     17  O   UNL     1      -3.345  13.444  19.733  0.00  0.00    +0.000 OA
ATOM     18  C   UNL     1      -2.514  13.024  20.546  0.00  0.00    +0.000 C 
ATOM     19  N   UNL     1      -1.243  12.531  20.107  0.00  0.00    +0.000 N 
BRANCH  18  20
ATOM     20  C   UNL     1      -2.882  13.222  21.976  0.00  0.00    +0.000 A 
ATOM     21  C   UNL     1      -2.581  14.430  22.596  0.00  0.00    +0.000 A 
ATOM     22  N   UNL     1      -2.804  14.658  23.919  0.00  0.00    +0.000 NA
ATOM     23  C   UNL     1      -3.365  13.627  24.591  0.00  0.00    +0.000 A 
ATOM     24  C   UNL     1      -3.703  12.443  23.970  0.00  0.00    +0.000 A 
ATOM     25  N   UNL     1      -3.487  12.226  22.649  0.00  0.00    +0.000 NA
ENDBRANCH  18  20
BRANCH  19  26
ATOM     26  C   UNL     1      -1.097  12.503  18.638  0.00  0.00    +0.000 C 
BRANCH  26  27
ATOM     27  C   UNL     1      -1.843  11.384  17.994  0.00  0.00    +0.000 A 
ATOM     28  C   UNL     1      -2.205  10.113  18.380  0.00  0.00    +0.000 A 
ATOM     29  C   UNL     1      -2.999   9.578  17.334  0.00  0.00    +0.000 A 
ATOM     30  C   UNL     1      -3.074  10.560  16.374  0.00  0.00    +0.000 A 
ATOM     31  O   UNL     1      -2.383  11.657  16.764  0.00  0.00    +0.000 OA
ENDBRANCH  26  27
ENDBRANCH  19  26
ENDBRANCH   1  19
TORSDOF 6
ENDMDL
MODEL 8
REMARK VINA RESULT:      -5.8      8.538     11.366
REMARK  Name = 
REMARK  6 active torsions:
REMARK  status: ('A' for Active; 'I' for Inactive)
REMARK    1  A    between atoms: C_2  and  C_3
REMARK    2  A    between atoms: N_9  and  C_10
REMARK    3  A    between atoms: N_9  and  C_16
REMARK    4  A    between atoms: C_10  and  C_11
REMARK    5  A    between atoms: C_16  and  C_17
REMARK    6  A    between atoms: N_19  and  C_20
REMARK                            x       y       z     vdW  Elec       q    Type
REMARK                         _______ _______ _______ _____ _____    ______ ____
ROOT
ATOM      1  C   UNL     1      -2.365  13.720  20.440  0.00  0.00    +0.000 C 
ATOM      2  C   UNL     1      -2.959  15.153  20.407  0.00  0.00    +0.000 C 
ATOM      3  C   UNL     1      -1.930  16.250  20.632  0.00  0.00    +0.000 C 
ATOM      4  C   UNL     1      -0.888  16.246  19.529  0.00  0.00    +0.000 C 
ATOM      5  C   UNL     1      -0.262  14.871  19.337  0.00  0.00    +0.000 C 
ATOM      6  C   UNL     1      -1.281  13.718  19.302  0.00  0.00    +0.000 C 
ENDROOT
BRANCH   1   7
ATOM      7  C   UNL     1      -3.431  12.656  19.962  0.00  0.00    +0.000 C 
ATOM      8  O   UNL     1      -4.504  12.481  20.534  0.00  0.00    +0.000 OA
ATOM      9  N   UNL     1      -3.111  11.996  18.780  0.00  0.00    +0.000 N 
ATOM     10  H   UNL     1      -2.239  12.240  18.325  0.00  0.00    +0.000 HD
BRANCH   9  11
ATOM     11  C   UNL     1      -3.876  10.848  18.288  0.00  0.00    +0.000 C 
ATOM     12  C   UNL     1      -4.888  11.264  17.217  0.00  0.00    +0.000 C 
ATOM     13  C   UNL     1      -4.186  11.710  15.939  0.00  0.00    +0.000 C 
ATOM     14  C   UNL     1      -3.295  10.603  15.383  0.00  0.00    +0.000 C 
ATOM     15  C   UNL     1      -2.294  10.096  16.416  0.00  0.00    +0.000 C 
ATOM     16  C   UNL     1      -2.963   9.736  17.742  0.00  0.00    +0.000 C 
ENDBRANCH   9  11
ENDBRANCH   1   7
BRANCH   1  19
ATOM     17  O   UNL     1      -0.343  12.140  23.167  0.00  0.00    +0.000 OA
ATOM     18  C   UNL     1      -0.828  12.294  22.041  0.00  0.00    +0.000 C 
ATOM     19  N   UNL     1      -1.872  13.248  21.817  0.00  0.00    +0.000 N 
BRANCH  18  20
ATOM     20  C   UNL     1      -0.142  11.540  20.955  0.00  0.00    +0.000 A 
ATOM     21  C   UNL     1       1.081  11.995  20.476  0.00  0.00    +0.000 A 
ATOM     22  N   UNL     1       1.729  11.415  19.430  0.00  0.00    +0.000 NA
ATOM     23  C   UNL     1       1.106  10.341  18.895  0.00  0.00    +0.000 A 
ATOM     24  C   UNL     1      -0.087   9.861  19.394  0.00  0.00    +0.000 A 
ATOM     25  N   UNL     1      -0.722  10.438  20.443  0.00  0.00    +0.000 NA
ENDBRANCH  18  20
BRANCH  19  26
ATOM     26  C   UNL     1      -2.331  13.920  23.049  0.00  0.00    +0.000 C 
BRANCH  26  27
ATOM     27  C   UNL     1      -3.634  13.397  23.553  0.00  0.00    +0.000 A 
ATOM     28  C   UNL     1      -4.008  12.333  24.342  0.00  0.00    +0.000 A 
ATOM     29  C   UNL     1      -5.409  12.440  24.536  0.00  0.00    +0.000 A 
ATOM     30  C   UNL     1      -5.801  13.568  23.855  0.00  0.00    +0.000 A 
ATOM     31  O   UNL     1      -4.736  14.157  23.261  0.00  0.00    +0.000 OA
ENDBRANCH  26  27
ENDBRANCH  19  26
ENDBRANCH   1  19
TORSDOF 6
ENDMDL
MODEL 9
REMARK VINA RESULT:      -5.7      7.716     10.572
REMARK  Name = 
REMARK  6 active torsions:
REMARK  status: ('A' for Active; 'I' for Inactive)
REMARK    1  A    between atoms: C_2  and  C_3
REMARK    2  A    between atoms: N_9  and  C_10
REMARK    3  A    between atoms: N_9  and  C_16
REMARK    4  A    between atoms: C_10  and  C_11
REMARK    5  A    between atoms: C_16  and  C_17
REMARK    6  A    between atoms: N_19  and  C_20
REMARK                            x       y       z     vdW  Elec       q    Type
REMARK                         _______ _______ _______ _____ _____    ______ ____
ROOT
ATOM      1  C   UNL     1      -0.815  11.924  21.084  0.00  0.00    +0.000 C 
ATOM      2  C   UNL     1      -0.541  10.596  20.331  0.00  0.00    +0.000 C 
ATOM      3  C   UNL     1       0.336   9.622  21.103  0.00  0.00    +0.000 C 
ATOM      4  C   UNL     1      -0.338   9.196  22.394  0.00  0.00    +0.000 C 
ATOM      5  C   UNL     1      -0.784  10.389  23.229  0.00  0.00    +0.000 C 
ATOM      6  C   UNL     1      -1.508  11.482  22.424  0.00  0.00    +0.000 C 
ENDROOT
BRANCH   1   7
ATOM      7  C   UNL     1      -1.918  12.778  20.341  0.00  0.00    +0.000 C 
ATOM      8  O   UNL     1      -1.688  13.430  19.325  0.00  0.00    +0.000 OA
ATOM      9  N   UNL     1      -3.203  12.656  20.862  0.00  0.00    +0.000 N 
ATOM     10  H   UNL     1      -3.331  12.047  21.661  0.00  0.00    +0.000 HD
BRANCH   9  11
ATOM     11  C   UNL     1      -4.309  13.513  20.431  0.00  0.00    +0.000 C 
ATOM     12  C   UNL     1      -5.220  12.794  19.432  0.00  0.00    +0.000 C 
ATOM     13  C   UNL     1      -5.981  11.654  20.100  0.00  0.00    +0.000 C 
ATOM     14  C   UNL     1      -6.823  12.161  21.268  0.00  0.00    +0.000 C 
ATOM     15  C   UNL     1      -5.990  12.941  22.282  0.00  0.00    +0.000 C 
ATOM     16  C   UNL     1      -5.140  14.026  21.621  0.00  0.00    +0.000 C 
ENDBRANCH   9  11
ENDBRANCH   1   7
BRANCH   1  19
ATOM     17  O   UNL     1       1.510  14.598  22.294  0.00  0.00    +0.000 OA
ATOM     18  C   UNL     1       0.437  14.043  22.034  0.00  0.00    +0.000 C 
ATOM     19  N   UNL     1       0.404  12.846  21.248  0.00  0.00    +0.000 N 
BRANCH  18  20
ATOM     20  C   UNL     1      -0.750  14.621  22.722  0.00  0.00    +0.000 A 
ATOM     21  C   UNL     1      -1.487  15.616  22.089  0.00  0.00    +0.000 A 
ATOM     22  N   UNL     1      -2.530  16.255  22.683  0.00  0.00    +0.000 NA
ATOM     23  C   UNL     1      -2.820  15.839  23.936  0.00  0.00    +0.000 A 
ATOM     24  C   UNL     1      -2.118  14.823  24.551  0.00  0.00    +0.000 A 
ATOM     25  N   UNL     1      -1.085  14.183  23.950  0.00  0.00    +0.000 NA
ENDBRANCH  18  20
BRANCH  19  26
ATOM     26  C   UNL     1       1.728  12.436  20.741  0.00  0.00    +0.000 C 
BRANCH  26  27
ATOM     27  C   UNL     1       2.236  13.314  19.647  0.00  0.00    +0.000 A 
ATOM     28  C   UNL     1       1.742  13.729  18.432  0.00  0.00    +0.000 A 
ATOM     29  C   UNL     1       2.682  14.649  17.900  0.00  0.00    +0.000 A 
ATOM     30  C   UNL     1       3.691  14.740  18.830  0.00  0.00    +0.000 A 
ATOM     31  O   UNL     1       3.431  13.941  19.892  0.00  0.00    +0.000 OA
ENDBRANCH  26  27
ENDBRANCH  19  26
ENDBRANCH   1  19
TORSDOF 6
ENDMDL
