MODEL 1
REMARK VINA RESULT:      -8.2      0.000      0.000
REMARK  Name = 
REMARK  11 active torsions:
REMARK  status: ('A' for Active; 'I' for Inactive)
REMARK    1  A    between atoms: C_1  and  C_2
REMARK    2  A    between atoms: C_2  and  C_3
REMARK    3  A    between atoms: C_3  and  C_4
REMARK    4  A    between atoms: C_5  and  C_6
REMARK    5  A    between atoms: C_6  and  O_8
REMARK    6  A    between atoms: O_8  and  C_9
REMARK    7  A    between atoms: C_9  and  C_10
REMARK    8  A    between atoms: C_13  and  C_14
REMARK    9  A    between atoms: C_14  and  O_16
REMARK   10  A    between atoms: C_19  and  C_20
REMARK   11  A    between atoms: C_24  and  C_25
REMARK                            x       y       z     vdW  Elec       q    Type
REMARK                         _______ _______ _______ _____ _____    ______ ____
ROOT
ATOM      1  C   UNL     1       2.804   3.114  18.764  0.00  0.00    +0.000 C 
ATOM      2  C   UNL     1       3.301   4.372  18.790  0.00  0.00    +0.000 C 
ATOM      3  C   UNL     1       4.738   4.605  19.205  0.00  0.00    +0.000 C 
ATOM      4  N   UNL     1       5.211   3.526  20.051  0.00  0.00    +0.000 N 
ATOM      5  C   UNL     1       4.765   2.248  19.934  0.00  0.00    +0.000 C 
ATOM      6  O   UNL     1       5.367   1.302  20.426  0.00  0.00    +0.000 OA
ATOM      7  N   UNL     1       3.588   2.090  19.262  0.00  0.00    +0.000 N 
ATOM      8  H   UNL     1       6.115   3.610  20.492  0.00  0.00    +0.000 HD
ATOM      9  H   UNL     1       3.260   1.132  19.217  0.00  0.00    +0.000 HD
ENDROOT
BRANCH   3  10
ATOM     10  C   UNL     1       5.650   4.767  17.991  0.00  0.00    +0.000 A 
ATOM     11  C   UNL     1       6.745   5.640  18.032  0.00  0.00    +0.000 A 
ATOM     12  C   UNL     1       7.471   5.915  16.871  0.00  0.00    +0.000 A 
ATOM     13  C   UNL     1       7.114   5.322  15.658  0.00  0.00    +0.000 A 
ATOM     14  C   UNL     1       6.052   4.419  15.600  0.00  0.00    +0.000 A 
ATOM     15  C   UNL     1       5.613   3.792  14.311  0.00  0.00    +0.000 C 
ATOM     16  C   UNL     1       5.351   4.125  16.774  0.00  0.00    +0.000 A 
ENDBRANCH   3  10
BRANCH   2  17
ATOM     17  C   UNL     1       2.507   5.539  18.320  0.00  0.00    +0.000 C 
ATOM     18  O   UNL     1       1.580   5.462  17.525  0.00  0.00    +0.000 OA
BRANCH  17  19
ATOM     19  O   UNL     1       2.921   6.694  18.883  0.00  0.00    +0.000 OA
BRANCH  19  20
ATOM     20  C   UNL     1       2.340   7.894  18.345  0.00  0.00    +0.000 C 
BRANCH  20  21
ATOM     21  C   UNL     1       1.602   8.616  19.442  0.00  0.00    +0.000 A 
ATOM     22  C   UNL     1       1.504   8.047  20.718  0.00  0.00    +0.000 A 
ATOM     23  C   UNL     1       0.825   8.714  21.738  0.00  0.00    +0.000 A 
ATOM     24  C   UNL     1       0.234   9.961  21.497  0.00  0.00    +0.000 A 
ATOM     25  C   UNL     1       0.347  10.547  20.231  0.00  0.00    +0.000 A 
ATOM     26  C   UNL     1       1.018   9.870  19.207  0.00  0.00    +0.000 A 
BRANCH  24  27
ATOM     27  C   UNL     1      -0.452  10.630  22.635  0.00  0.00    +0.000 C 
ATOM     28  O   UNL     1      -0.407  11.835  22.811  0.00  0.00    +0.000 OA
BRANCH  27  29
ATOM     29  O   UNL     1      -1.090   9.791  23.476  0.00  0.00    +0.000 OA
ATOM     30  H   UNL     1      -0.980   8.842  23.291  0.00  0.00    +0.000 HD
ENDBRANCH  27  29
ENDBRANCH  24  27
ENDBRANCH  20  21
ENDBRANCH  19  20
ENDBRANCH  17  19
ENDBRANCH   2  17
BRANCH   1  31
ATOM     31  C   UNL     1       1.480   2.664  18.189  0.00  0.00    +0.000 C 
BRANCH  31  33
ATOM     32  C   UNL     1       0.941   3.061  20.620  0.00  0.00    +0.000 C 
ATOM     33  C   UNL     1       0.386   2.663  19.262  0.00  0.00    +0.000 C 
ENDBRANCH  31  33
ENDBRANCH   1  31
TORSDOF 9
ENDMDL
MODEL 2
REMARK VINA RESULT:      -8.1      0.953      1.454
REMARK  Name = 
REMARK  11 active torsions:
REMARK  status: ('A' for Active; 'I' for Inactive)
REMARK    1  A    between atoms: C_1  and  C_2
REMARK    2  A    between atoms: C_2  and  C_3
REMARK    3  A    between atoms: C_3  and  C_4
REMARK    4  A    between atoms: C_5  and  C_6
REMARK    5  A    between atoms: C_6  and  O_8
REMARK    6  A    between atoms: O_8  and  C_9
REMARK    7  A    between atoms: C_9  and  C_10
REMARK    8  A    between atoms: C_13  and  C_14
REMARK    9  A    between atoms: C_14  and  O_16
REMARK   10  A    between atoms: C_19  and  C_20
REMARK   11  A    between atoms: C_24  and  C_25
REMARK                            x       y       z     vdW  Elec       q    Type
REMARK                         _______ _______ _______ _____ _____    ______ ____
ROOT
ATOM      1  C   UNL     1       2.989   4.237  18.393  0.00  0.00    +0.000 C 
ATOM      2  C   UNL     1       3.917   5.206  18.218  0.00  0.00    +0.000 C 
ATOM      3  C   UNL     1       5.387   4.871  18.345  0.00  0.00    +0.000 C 
ATOM      4  N   UNL     1       5.579   3.702  19.181  0.00  0.00    +0.000 N 
ATOM      5  C   UNL     1       4.672   2.693  19.258  0.00  0.00    +0.000 C 
ATOM      6  O   UNL     1       4.960   1.593  19.712  0.00  0.00    +0.000 OA
ATOM      7  N   UNL     1       3.413   2.994  18.827  0.00  0.00    +0.000 N 
ATOM      8  H   UNL     1       6.517   3.435  19.442  0.00  0.00    +0.000 HD
ATOM      9  H   UNL     1       2.747   2.237  18.926  0.00  0.00    +0.000 HD
ENDROOT
BRANCH   3  10
ATOM     10  C   UNL     1       6.029   4.656  16.976  0.00  0.00    +0.000 A 
ATOM     11  C   UNL     1       7.335   5.095  16.723  0.00  0.00    +0.000 A 
ATOM     12  C   UNL     1       7.855   5.053  15.427  0.00  0.00    +0.000 A 
ATOM     13  C   UNL     1       7.079   4.572  14.371  0.00  0.00    +0.000 A 
ATOM     14  C   UNL     1       5.789   4.092  14.605  0.00  0.00    +0.000 A 
ATOM     15  C   UNL     1       4.911   3.604  13.492  0.00  0.00    +0.000 C 
ATOM     16  C   UNL     1       5.289   4.109  15.910  0.00  0.00    +0.000 A 
ENDBRANCH   3  10
BRANCH   2  17
ATOM     17  C   UNL     1       3.542   6.584  17.801  0.00  0.00    +0.000 C 
ATOM     18  O   UNL     1       4.290   7.346  17.205  0.00  0.00    +0.000 OA
BRANCH  17  19
ATOM     19  O   UNL     1       2.273   6.891  18.147  0.00  0.00    +0.000 OA
BRANCH  19  20
ATOM     20  C   UNL     1       1.879   8.255  17.923  0.00  0.00    +0.000 C 
BRANCH  20  21
ATOM     21  C   UNL     1       1.296   8.812  19.196  0.00  0.00    +0.000 A 
ATOM     22  C   UNL     1       0.469   9.941  19.156  0.00  0.00    +0.000 A 
ATOM     23  C   UNL     1      -0.077  10.458  20.331  0.00  0.00    +0.000 A 
ATOM     24  C   UNL     1       0.198   9.854  21.564  0.00  0.00    +0.000 A 
ATOM     25  C   UNL     1       1.006   8.712  21.610  0.00  0.00    +0.000 A 
ATOM     26  C   UNL     1       1.560   8.203  20.431  0.00  0.00    +0.000 A 
BRANCH  24  27
ATOM     27  C   UNL     1      -0.436  10.440  22.776  0.00  0.00    +0.000 C 
ATOM     28  O   UNL     1      -0.469  11.641  22.983  0.00  0.00    +0.000 OA
BRANCH  27  29
ATOM     29  O   UNL     1      -0.931   9.535  23.644  0.00  0.00    +0.000 OA
ATOM     30  H   UNL     1      -1.027   8.629  23.300  0.00  0.00    +0.000 HD
ENDBRANCH  27  29
ENDBRANCH  24  27
ENDBRANCH  20  21
ENDBRANCH  19  20
ENDBRANCH  17  19
ENDBRANCH   2  17
BRANCH   1  31
ATOM     31  C   UNL     1       1.506   4.325  18.108  0.00  0.00    +0.000 C 
BRANCH  31  33
ATOM     32  C   UNL     1       0.915   4.341  20.560  0.00  0.00    +0.000 C 
ATOM     33  C   UNL     1       0.691   3.656  19.221  0.00  0.00    +0.000 C 
ENDBRANCH  31  33
ENDBRANCH   1  31
TORSDOF 9
ENDMDL
MODEL 3
REMARK VINA RESULT:      -8.1      1.632      2.618
REMARK  Name = 
REMARK  11 active torsions:
REMARK  status: ('A' for Active; 'I' for Inactive)
REMARK    1  A    between atoms: C_1  and  C_2
REMARK    2  A    between atoms: C_2  and  C_3
REMARK    3  A    between atoms: C_3  and  C_4
REMARK    4  A    between atoms: C_5  and  C_6
REMARK    5  A    between atoms: C_6  and  O_8
REMARK    6  A    between atoms: O_8  and  C_9
REMARK    7  A    between atoms: C_9  and  C_10
REMARK    8  A    between atoms: C_13  and  C_14
REMARK    9  A    between atoms: C_14  and  O_16
REMARK   10  A    between atoms: C_19  and  C_20
REMARK   11  A    between atoms: C_24  and  C_25
REMARK                            x       y       z     vdW  Elec       q    Type
REMARK                         _______ _______ _______ _____ _____    ______ ____
ROOT
ATOM      1  C   UNL     1       4.736   5.284  19.303  0.00  0.00    +0.000 C 
ATOM      2  C   UNL     1       4.595   6.109  18.240  0.00  0.00    +0.000 C 
ATOM      3  C   UNL     1       5.797   6.447  17.386  0.00  0.00    +0.000 C 
ATOM      4  N   UNL     1       7.025   6.298  18.142  0.00  0.00    +0.000 N 
ATOM      5  C   UNL     1       7.170   5.388  19.141  0.00  0.00    +0.000 C 
ATOM      6  O   UNL     1       8.271   5.058  19.565  0.00  0.00    +0.000 OA
ATOM      7  N   UNL     1       6.012   4.890  19.662  0.00  0.00    +0.000 N 
ATOM      8  H   UNL     1       7.894   6.600  17.728  0.00  0.00    +0.000 HD
ATOM      9  H   UNL     1       6.146   4.239  20.427  0.00  0.00    +0.000 HD
ENDROOT
BRANCH   3  10
ATOM     10  C   UNL     1       5.843   5.588  16.124  0.00  0.00    +0.000 A 
ATOM     11  C   UNL     1       5.075   4.420  16.027  0.00  0.00    +0.000 A 
ATOM     12  C   UNL     1       5.249   3.550  14.948  0.00  0.00    +0.000 A 
ATOM     13  C   UNL     1       6.188   3.835  13.955  0.00  0.00    +0.000 A 
ATOM     14  C   UNL     1       6.936   5.011  14.010  0.00  0.00    +0.000 A 
ATOM     15  C   UNL     1       7.982   5.333  12.985  0.00  0.00    +0.000 C 
ATOM     16  C   UNL     1       6.733   5.892  15.076  0.00  0.00    +0.000 A 
ENDBRANCH   3  10
BRANCH   2  17
ATOM     17  C   UNL     1       3.263   6.620  17.816  0.00  0.00    +0.000 C 
ATOM     18  O   UNL     1       2.325   5.904  17.495  0.00  0.00    +0.000 OA
BRANCH  17  19
ATOM     19  O   UNL     1       3.208   7.969  17.839  0.00  0.00    +0.000 OA
BRANCH  19  20
ATOM     20  C   UNL     1       1.894   8.540  17.724  0.00  0.00    +0.000 C 
BRANCH  20  21
ATOM     21  C   UNL     1       1.389   8.890  19.099  0.00  0.00    +0.000 A 
ATOM     22  C   UNL     1       0.632  10.052  19.297  0.00  0.00    +0.000 A 
ATOM     23  C   UNL     1       0.160  10.378  20.569  0.00  0.00    +0.000 A 
ATOM     24  C   UNL     1       0.437   9.547  21.661  0.00  0.00    +0.000 A 
ATOM     25  C   UNL     1       1.173   8.373  21.468  0.00  0.00    +0.000 A 
ATOM     26  C   UNL     1       1.656   8.055  20.194  0.00  0.00    +0.000 A 
BRANCH  24  27
ATOM     27  C   UNL     1      -0.119   9.940  22.984  0.00  0.00    +0.000 C 
ATOM     28  O   UNL     1       0.405   9.619  24.037  0.00  0.00    +0.000 OA
BRANCH  27  29
ATOM     29  O   UNL     1      -1.269  10.640  22.924  0.00  0.00    +0.000 OA
ATOM     30  H   UNL     1      -1.231  11.473  22.421  0.00  0.00    +0.000 HD
ENDBRANCH  27  29
ENDBRANCH  24  27
ENDBRANCH  20  21
ENDBRANCH  19  20
ENDBRANCH  17  19
ENDBRANCH   2  17
BRANCH   1  31
ATOM     31  C   UNL     1       3.636   4.671  20.141  0.00  0.00    +0.000 C 
BRANCH  31  33
ATOM     32  C   UNL     1       2.081   2.698  20.359  0.00  0.00    +0.000 C 
ATOM     33  C   UNL     1       3.339   3.235  19.695  0.00  0.00    +0.000 C 
ENDBRANCH  31  33
ENDBRANCH   1  31
TORSDOF 9
ENDMDL
MODEL 4
REMARK VINA RESULT:      -8.1      1.474      1.893
REMARK  Name = 
REMARK  11 active torsions:
REMARK  status: ('A' for Active; 'I' for Inactive)
REMARK    1  A    between atoms: C_1  and  C_2
REMARK    2  A    between atoms: C_2  and  C_3
REMARK    3  A    between atoms: C_3  and  C_4
REMARK    4  A    between atoms: C_5  and  C_6
REMARK    5  A    between atoms: C_6  and  O_8
REMARK    6  A    between atoms: O_8  and  C_9
REMARK    7  A    between atoms: C_9  and  C_10
REMARK    8  A    between atoms: C_13  and  C_14
REMARK    9  A    between atoms: C_14  and  O_16
REMARK   10  A    between atoms: C_19  and  C_20
REMARK   11  A    between atoms: C_24  and  C_25
REMARK                            x       y       z     vdW  Elec       q    Type
REMARK                         _______ _______ _______ _____ _____    ______ ____
ROOT
ATOM      1  C   UNL     1       2.757   3.583  18.757  0.00  0.00    +0.000 C 
ATOM      2  C   UNL     1       3.341   4.795  18.902  0.00  0.00    +0.000 C 
ATOM      3  C   UNL     1       4.791   4.884  19.329  0.00  0.00    +0.000 C 
ATOM      4  N   UNL     1       5.186   3.698  20.063  0.00  0.00    +0.000 N 
ATOM      5  C   UNL     1       4.651   2.471  19.824  0.00  0.00    +0.000 C 
ATOM      6  O   UNL     1       5.185   1.442  20.217  0.00  0.00    +0.000 OA
ATOM      7  N   UNL     1       3.467   2.463  19.147  0.00  0.00    +0.000 N 
ATOM      8  H   UNL     1       6.093   3.674  20.503  0.00  0.00    +0.000 HD
ATOM      9  H   UNL     1       3.072   1.539  19.011  0.00  0.00    +0.000 HD
ENDROOT
BRANCH   3  10
ATOM     10  C   UNL     1       5.712   5.100  18.130  0.00  0.00    +0.000 A 
ATOM     11  C   UNL     1       6.652   6.139  18.130  0.00  0.00    +0.000 A 
ATOM     12  C   UNL     1       7.370   6.440  16.971  0.00  0.00    +0.000 A 
ATOM     13  C   UNL     1       7.160   5.708  15.801  0.00  0.00    +0.000 A 
ATOM     14  C   UNL     1       6.258   4.644  15.787  0.00  0.00    +0.000 A 
ATOM     15  C   UNL     1       5.976   3.859  14.541  0.00  0.00    +0.000 C 
ATOM     16  C   UNL     1       5.567   4.329  16.962  0.00  0.00    +0.000 A 
ENDBRANCH   3  10
BRANCH   2  17
ATOM     17  C   UNL     1       2.631   6.055  18.553  0.00  0.00    +0.000 C 
ATOM     18  O   UNL     1       2.786   6.661  17.502  0.00  0.00    +0.000 OA
BRANCH  17  19
ATOM     19  O   UNL     1       1.783   6.445  19.530  0.00  0.00    +0.000 OA
BRANCH  19  20
ATOM     20  C   UNL     1       2.156   7.639  20.237  0.00  0.00    +0.000 C 
BRANCH  20  21
ATOM     21  C   UNL     1       1.233   8.758  19.832  0.00  0.00    +0.000 A 
ATOM     22  C   UNL     1       0.248   9.214  20.717  0.00  0.00    +0.000 A 
ATOM     23  C   UNL     1      -0.608  10.252  20.347  0.00  0.00    +0.000 A 
ATOM     24  C   UNL     1      -0.491  10.850  19.086  0.00  0.00    +0.000 A 
ATOM     25  C   UNL     1       0.506  10.416  18.205  0.00  0.00    +0.000 A 
ATOM     26  C   UNL     1       1.354   9.366  18.574  0.00  0.00    +0.000 A 
BRANCH  24  27
ATOM     27  C   UNL     1      -1.417  11.969  18.765  0.00  0.00    +0.000 C 
ATOM     28  O   UNL     1      -2.230  12.398  19.566  0.00  0.00    +0.000 OA
BRANCH  27  29
ATOM     29  O   UNL     1      -1.313  12.439  17.506  0.00  0.00    +0.000 OA
ATOM     30  H   UNL     1      -0.928  13.329  17.418  0.00  0.00    +0.000 HD
ENDBRANCH  27  29
ENDBRANCH  24  27
ENDBRANCH  20  21
ENDBRANCH  19  20
ENDBRANCH  17  19
ENDBRANCH   2  17
BRANCH   1  31
ATOM     31  C   UNL     1       1.405   3.285  18.149  0.00  0.00    +0.000 C 
BRANCH  31  33
ATOM     32  C   UNL     1       0.862   3.139  20.607  0.00  0.00    +0.000 C 
ATOM     33  C   UNL     1       0.435   2.740  19.204  0.00  0.00    +0.000 C 
ENDBRANCH  31  33
ENDBRANCH   1  31
TORSDOF 9
ENDMDL
MODEL 5
REMARK VINA RESULT:      -8.0      2.181      4.490
REMARK  Name = 
REMARK  11 active torsions:
REMARK  status: ('A' for Active; 'I' for Inactive)
REMARK    1  A    between atoms: C_1  and  C_2
REMARK    2  A    between atoms: C_2  and  C_3
REMARK    3  A    between atoms: C_3  and  C_4
REMARK    4  A    between atoms: C_5  and  C_6
REMARK    5  A    between atoms: C_6  and  O_8
REMARK    6  A    between atoms: O_8  and  C_9
REMARK    7  A    between atoms: C_9  and  C_10
REMARK    8  A    between atoms: C_13  and  C_14
REMARK    9  A    between atoms: C_14  and  O_16
REMARK   10  A    between atoms: C_19  and  C_20
REMARK   11  A    between atoms: C_24  and  C_25
REMARK                            x       y       z     vdW  Elec       q    Type
REMARK                         _______ _______ _______ _____ _____    ______ ____
ROOT
ATOM      1  C   UNL     1       6.680   6.738  17.392  0.00  0.00    +0.000 C 
ATOM      2  C   UNL     1       5.563   6.193  16.858  0.00  0.00    +0.000 C 
ATOM      3  C   UNL     1       5.369   4.692  16.891  0.00  0.00    +0.000 C 
ATOM      4  N   UNL     1       6.646   4.010  16.979  0.00  0.00    +0.000 N 
ATOM      5  C   UNL     1       7.724   4.542  17.612  0.00  0.00    +0.000 C 
ATOM      6  O   UNL     1       8.685   3.859  17.946  0.00  0.00    +0.000 OA
ATOM      7  N   UNL     1       7.682   5.889  17.824  0.00  0.00    +0.000 N 
ATOM      8  H   UNL     1       6.670   3.004  16.895  0.00  0.00    +0.000 HD
ATOM      9  H   UNL     1       8.511   6.267  18.267  0.00  0.00    +0.000 HD
ENDROOT
BRANCH   3  10
ATOM     10  C   UNL     1       4.461   4.272  18.045  0.00  0.00    +0.000 A 
ATOM     11  C   UNL     1       4.788   4.602  19.367  0.00  0.00    +0.000 A 
ATOM     12  C   UNL     1       4.052   4.072  20.428  0.00  0.00    +0.000 A 
ATOM     13  C   UNL     1       2.981   3.210  20.184  0.00  0.00    +0.000 A 
ATOM     14  C   UNL     1       2.612   2.898  18.875  0.00  0.00    +0.000 A 
ATOM     15  C   UNL     1       1.495   1.946  18.572  0.00  0.00    +0.000 C 
ATOM     16  C   UNL     1       3.335   3.459  17.818  0.00  0.00    +0.000 A 
ENDBRANCH   3  10
BRANCH   2  17
ATOM     17  C   UNL     1       4.458   7.033  16.324  0.00  0.00    +0.000 C 
ATOM     18  O   UNL     1       4.438   7.503  15.195  0.00  0.00    +0.000 OA
BRANCH  17  19
ATOM     19  O   UNL     1       3.471   7.208  17.230  0.00  0.00    +0.000 OA
BRANCH  19  20
ATOM     20  C   UNL     1       2.849   8.503  17.232  0.00  0.00    +0.000 C 
BRANCH  20  21
ATOM     21  C   UNL     1       2.121   8.696  18.537  0.00  0.00    +0.000 A 
ATOM     22  C   UNL     1       2.174   7.705  19.525  0.00  0.00    +0.000 A 
ATOM     23  C   UNL     1       1.504   7.881  20.736  0.00  0.00    +0.000 A 
ATOM     24  C   UNL     1       0.771   9.049  20.977  0.00  0.00    +0.000 A 
ATOM     25  C   UNL     1       0.731  10.054  20.003  0.00  0.00    +0.000 A 
ATOM     26  C   UNL     1       1.394   9.869  18.785  0.00  0.00    +0.000 A 
BRANCH  24  27
ATOM     27  C   UNL     1       0.102   9.184  22.299  0.00  0.00    +0.000 C 
ATOM     28  O   UNL     1       0.429  10.027  23.116  0.00  0.00    +0.000 OA
BRANCH  27  29
ATOM     29  O   UNL     1      -0.864   8.273  22.534  0.00  0.00    +0.000 OA
ATOM     30  H   UNL     1      -1.341   8.372  23.377  0.00  0.00    +0.000 HD
ENDBRANCH  27  29
ENDBRANCH  24  27
ENDBRANCH  20  21
ENDBRANCH  19  20
ENDBRANCH  17  19
ENDBRANCH   2  17
BRANCH   1  31
ATOM     31  C   UNL     1       6.956   8.205  17.638  0.00  0.00    +0.000 C 
BRANCH  31  33
ATOM     32  C   UNL     1       8.728   9.886  18.265  0.00  0.00    +0.000 C 
ATOM     33  C   UNL     1       8.362   8.411  18.212  0.00  0.00    +0.000 C 
ENDBRANCH  31  33
ENDBRANCH   1  31
TORSDOF 9
ENDMDL
MODEL 6
REMARK VINA RESULT:      -8.0      0.915      1.203
REMARK  Name = 
REMARK  11 active torsions:
REMARK  status: ('A' for Active; 'I' for Inactive)
REMARK    1  A    between atoms: C_1  and  C_2
REMARK    2  A    between atoms: C_2  and  C_3
REMARK    3  A    between atoms: C_3  and  C_4
REMARK    4  A    between atoms: C_5  and  C_6
REMARK    5  A    between atoms: C_6  and  O_8
REMARK    6  A    between atoms: O_8  and  C_9
REMARK    7  A    between atoms: C_9  and  C_10
REMARK    8  A    between atoms: C_13  and  C_14
REMARK    9  A    between atoms: C_14  and  O_16
REMARK   10  A    between atoms: C_19  and  C_20
REMARK   11  A    between atoms: C_24  and  C_25
REMARK                            x       y       z     vdW  Elec       q    Type
REMARK                         _______ _______ _______ _____ _____    ______ ____
ROOT
ATOM      1  C   UNL     1       2.762   3.874  18.824  0.00  0.00    +0.000 C 
ATOM      2  C   UNL     1       3.454   5.023  18.998  0.00  0.00    +0.000 C 
ATOM      3  C   UNL     1       4.929   4.969  19.336  0.00  0.00    +0.000 C 
ATOM      4  N   UNL     1       5.265   3.712  19.976  0.00  0.00    +0.000 N 
ATOM      5  C   UNL     1       4.616   2.550  19.704  0.00  0.00    +0.000 C 
ATOM      6  O   UNL     1       5.083   1.459  20.004  0.00  0.00    +0.000 OA
ATOM      7  N   UNL     1       3.397   2.678  19.105  0.00  0.00    +0.000 N 
ATOM      8  H   UNL     1       6.192   3.589  20.356  0.00  0.00    +0.000 HD
ATOM      9  H   UNL     1       2.918   1.799  18.943  0.00  0.00    +0.000 HD
ENDROOT
BRANCH   3  10
ATOM     10  C   UNL     1       5.793   5.183  18.095  0.00  0.00    +0.000 A 
ATOM     11  C   UNL     1       6.733   6.220  18.049  0.00  0.00    +0.000 A 
ATOM     12  C   UNL     1       7.396   6.519  16.857  0.00  0.00    +0.000 A 
ATOM     13  C   UNL     1       7.129   5.786  15.698  0.00  0.00    +0.000 A 
ATOM     14  C   UNL     1       6.226   4.722  15.729  0.00  0.00    +0.000 A 
ATOM     15  C   UNL     1       5.885   3.937  14.499  0.00  0.00    +0.000 C 
ATOM     16  C   UNL     1       5.591   4.410  16.935  0.00  0.00    +0.000 A 
ENDBRANCH   3  10
BRANCH   2  17
ATOM     17  C   UNL     1       2.833   6.355  18.766  0.00  0.00    +0.000 C 
ATOM     18  O   UNL     1       2.437   6.746  17.677  0.00  0.00    +0.000 OA
BRANCH  17  19
ATOM     19  O   UNL     1       2.746   7.079  19.904  0.00  0.00    +0.000 OA
BRANCH  19  20
ATOM     20  C   UNL     1       1.520   6.937  20.639  0.00  0.00    +0.000 C 
BRANCH  20  21
ATOM     21  C   UNL     1       0.952   8.306  20.913  0.00  0.00    +0.000 A 
ATOM     22  C   UNL     1       0.392   8.598  22.163  0.00  0.00    +0.000 A 
ATOM     23  C   UNL     1      -0.132   9.865  22.422  0.00  0.00    +0.000 A 
ATOM     24  C   UNL     1      -0.104  10.858  21.436  0.00  0.00    +0.000 A 
ATOM     25  C   UNL     1       0.474  10.581  20.191  0.00  0.00    +0.000 A 
ATOM     26  C   UNL     1       0.988   9.306  19.930  0.00  0.00    +0.000 A 
BRANCH  24  27
ATOM     27  C   UNL     1      -0.656  12.194  21.786  0.00  0.00    +0.000 C 
ATOM     28  O   UNL     1      -1.109  12.957  20.950  0.00  0.00    +0.000 OA
BRANCH  27  29
ATOM     29  O   UNL     1      -0.575  12.509  23.095  0.00  0.00    +0.000 OA
ATOM     30  H   UNL     1      -0.036  11.909  23.641  0.00  0.00    +0.000 HD
ENDBRANCH  27  29
ENDBRANCH  24  27
ENDBRANCH  20  21
ENDBRANCH  19  20
ENDBRANCH  17  19
ENDBRANCH   2  17
BRANCH   1  31
ATOM     31  C   UNL     1       1.356   3.723  18.287  0.00  0.00    +0.000 C 
BRANCH  31  33
ATOM     32  C   UNL     1       0.729   3.155  20.663  0.00  0.00    +0.000 C 
ATOM     33  C   UNL     1       0.515   2.819  19.196  0.00  0.00    +0.000 C 
ENDBRANCH  31  33
ENDBRANCH   1  31
TORSDOF 9
ENDMDL
MODEL 7
REMARK VINA RESULT:      -7.9      2.869      7.588
REMARK  Name = 
REMARK  11 active torsions:
REMARK  status: ('A' for Active; 'I' for Inactive)
REMARK    1  A    between atoms: C_1  and  C_2
REMARK    2  A    between atoms: C_2  and  C_3
REMARK    3  A    between atoms: C_3  and  C_4
REMARK    4  A    between atoms: C_5  and  C_6
REMARK    5  A    between atoms: C_6  and  O_8
REMARK    6  A    between atoms: O_8  and  C_9
REMARK    7  A    between atoms: C_9  and  C_10
REMARK    8  A    between atoms: C_13  and  C_14
REMARK    9  A    between atoms: C_14  and  O_16
REMARK   10  A    between atoms: C_19  and  C_20
REMARK   11  A    between atoms: C_24  and  C_25
REMARK                            x       y       z     vdW  Elec       q    Type
REMARK                         _______ _______ _______ _____ _____    ______ ____
ROOT
ATOM      1  C   UNL     1       3.539   3.400  19.461  0.00  0.00    +0.000 C 
ATOM      2  C   UNL     1       4.042   4.501  18.857  0.00  0.00    +0.000 C 
ATOM      3  C   UNL     1       3.146   5.356  17.987  0.00  0.00    +0.000 C 
ATOM      4  N   UNL     1       2.037   4.579  17.468  0.00  0.00    +0.000 N 
ATOM      5  C   UNL     1       1.486   3.538  18.146  0.00  0.00    +0.000 C 
ATOM      6  O   UNL     1       0.384   3.087  17.860  0.00  0.00    +0.000 OA
ATOM      7  N   UNL     1       2.251   3.009  19.144  0.00  0.00    +0.000 N 
ATOM      8  H   UNL     1       1.425   4.996  16.783  0.00  0.00    +0.000 HD
ATOM      9  H   UNL     1       1.832   2.213  19.611  0.00  0.00    +0.000 HD
ENDROOT
BRANCH   3  10
ATOM     10  C   UNL     1       2.632   6.577  18.747  0.00  0.00    +0.000 A 
ATOM     11  C   UNL     1       2.214   6.464  20.079  0.00  0.00    +0.000 A 
ATOM     12  C   UNL     1       1.586   7.538  20.714  0.00  0.00    +0.000 A 
ATOM     13  C   UNL     1       1.369   8.735  20.028  0.00  0.00    +0.000 A 
ATOM     14  C   UNL     1       1.811   8.884  18.713  0.00  0.00    +0.000 A 
ATOM     15  C   UNL     1       1.562  10.138  17.931  0.00  0.00    +0.000 C 
ATOM     16  C   UNL     1       2.468   7.815  18.096  0.00  0.00    +0.000 A 
ENDBRANCH   3  10
BRANCH   2  17
ATOM     17  C   UNL     1       5.434   4.963  19.103  0.00  0.00    +0.000 C 
ATOM     18  O   UNL     1       5.734   5.838  19.904  0.00  0.00    +0.000 OA
BRANCH  17  19
ATOM     19  O   UNL     1       6.331   4.294  18.348  0.00  0.00    +0.000 OA
BRANCH  19  20
ATOM     20  C   UNL     1       7.036   5.082  17.374  0.00  0.00    +0.000 C 
BRANCH  20  21
ATOM     21  C   UNL     1       6.689   4.584  15.995  0.00  0.00    +0.000 A 
ATOM     22  C   UNL     1       5.630   3.686  15.818  0.00  0.00    +0.000 A 
ATOM     23  C   UNL     1       5.303   3.225  14.542  0.00  0.00    +0.000 A 
ATOM     24  C   UNL     1       6.030   3.655  13.426  0.00  0.00    +0.000 A 
ATOM     25  C   UNL     1       7.076   4.570  13.592  0.00  0.00    +0.000 A 
ATOM     26  C   UNL     1       7.409   5.021  14.874  0.00  0.00    +0.000 A 
BRANCH  24  27
ATOM     27  C   UNL     1       5.613   3.145  12.092  0.00  0.00    +0.000 C 
ATOM     28  O   UNL     1       4.586   3.506  11.543  0.00  0.00    +0.000 OA
BRANCH  27  29
ATOM     29  O   UNL     1       6.439   2.221  11.561  0.00  0.00    +0.000 OA
ATOM     30  H   UNL     1       6.062   1.681  10.843  0.00  0.00    +0.000 HD
ENDBRANCH  27  29
ENDBRANCH  24  27
ENDBRANCH  20  21
ENDBRANCH  19  20
ENDBRANCH  17  19
ENDBRANCH   2  17
BRANCH   1  31
ATOM     31  C   UNL     1       4.207   2.547  20.517  0.00  0.00    +0.000 C 
BRANCH  31  33
ATOM     32  C   UNL     1       2.280   3.175  22.017  0.00  0.00    +0.000 C 
ATOM     33  C   UNL     1       3.188   2.050  21.548  0.00  0.00    +0.000 C 
ENDBRANCH  31  33
ENDBRANCH   1  31
TORSDOF 9
ENDMDL
MODEL 8
REMARK VINA RESULT:      -7.9      2.094      4.563
REMARK  Name = 
REMARK  11 active torsions:
REMARK  status: ('A' for Active; 'I' for Inactive)
REMARK    1  A    between atoms: C_1  and  C_2
REMARK    2  A    between atoms: C_2  and  C_3
REMARK    3  A    between atoms: C_3  and  C_4
REMARK    4  A    between atoms: C_5  and  C_6
REMARK    5  A    between atoms: C_6  and  O_8
REMARK    6  A    between atoms: O_8  and  C_9
REMARK    7  A    between atoms: C_9  and  C_10
REMARK    8  A    between atoms: C_13  and  C_14
REMARK    9  A    between atoms: C_14  and  O_16
REMARK   10  A    between atoms: C_19  and  C_20
REMARK   11  A    between atoms: C_24  and  C_25
REMARK                            x       y       z     vdW  Elec       q    Type
REMARK                         _______ _______ _______ _____ _____    ______ ____
ROOT
ATOM      1  C   UNL     1       6.611   6.709  17.544  0.00  0.00    +0.000 C 
ATOM      2  C   UNL     1       5.483   6.191  17.005  0.00  0.00    +0.000 C 
ATOM      3  C   UNL     1       5.321   4.690  16.898  0.00  0.00    +0.000 C 
ATOM      4  N   UNL     1       6.613   4.034  16.865  0.00  0.00    +0.000 N 
ATOM      5  C   UNL     1       7.708   4.528  17.502  0.00  0.00    +0.000 C 
ATOM      6  O   UNL     1       8.695   3.839  17.726  0.00  0.00    +0.000 OA
ATOM      7  N   UNL     1       7.648   5.846  17.847  0.00  0.00    +0.000 N 
ATOM      8  H   UNL     1       6.654   3.042  16.682  0.00  0.00    +0.000 HD
ATOM      9  H   UNL     1       8.488   6.199  18.290  0.00  0.00    +0.000 HD
ENDROOT
BRANCH   3  10
ATOM     10  C   UNL     1       4.473   4.138  18.043  0.00  0.00    +0.000 A 
ATOM     11  C   UNL     1       5.069   3.753  19.251  0.00  0.00    +0.000 A 
ATOM     12  C   UNL     1       4.319   3.091  20.226  0.00  0.00    +0.000 A 
ATOM     13  C   UNL     1       2.969   2.808  20.009  0.00  0.00    +0.000 A 
ATOM     14  C   UNL     1       2.345   3.218  18.830  0.00  0.00    +0.000 A 
ATOM     15  C   UNL     1       0.909   2.899  18.542  0.00  0.00    +0.000 C 
ATOM     16  C   UNL     1       3.095   3.908  17.872  0.00  0.00    +0.000 A 
ENDBRANCH   3  10
BRANCH   2  17
ATOM     17  C   UNL     1       4.338   7.053  16.604  0.00  0.00    +0.000 C 
ATOM     18  O   UNL     1       4.152   7.458  15.465  0.00  0.00    +0.000 OA
BRANCH  17  19
ATOM     19  O   UNL     1       3.521   7.327  17.644  0.00  0.00    +0.000 OA
BRANCH  19  20
ATOM     20  C   UNL     1       2.525   8.335  17.405  0.00  0.00    +0.000 C 
BRANCH  20  21
ATOM     21  C   UNL     1       1.864   8.691  18.711  0.00  0.00    +0.000 A 
ATOM     22  C   UNL     1       1.145   9.886  18.833  0.00  0.00    +0.000 A 
ATOM     23  C   UNL     1       0.528  10.218  20.040  0.00  0.00    +0.000 A 
ATOM     24  C   UNL     1       0.622   9.359  21.142  0.00  0.00    +0.000 A 
ATOM     25  C   UNL     1       1.320   8.152  21.021  0.00  0.00    +0.000 A 
ATOM     26  C   UNL     1       1.947   7.828  19.814  0.00  0.00    +0.000 A 
BRANCH  24  27
ATOM     27  C   UNL     1      -0.081   9.761  22.391  0.00  0.00    +0.000 C 
ATOM     28  O   UNL     1      -0.713   8.971  23.071  0.00  0.00    +0.000 OA
BRANCH  27  29
ATOM     29  O   UNL     1       0.003  11.074  22.684  0.00  0.00    +0.000 OA
ATOM     30  H   UNL     1       0.478  11.622  22.034  0.00  0.00    +0.000 HD
ENDBRANCH  27  29
ENDBRANCH  24  27
ENDBRANCH  20  21
ENDBRANCH  19  20
ENDBRANCH  17  19
ENDBRANCH   2  17
BRANCH   1  31
ATOM     31  C   UNL     1       6.868   8.151  17.921  0.00  0.00    +0.000 C 
BRANCH  31  33
ATOM     32  C   UNL     1       8.679   9.885  18.191  0.00  0.00    +0.000 C 
ATOM     33  C   UNL     1       8.362   8.399  18.160  0.00  0.00    +0.000 C 
ENDBRANCH  31  33
ENDBRANCH   1  31
TORSDOF 9
ENDMDL
MODEL 9
REMARK VINA RESULT:      -7.9      2.348      7.048
REMARK  Name = 
REMARK  11 active torsions:
REMARK  status: ('A' for Active; 'I' for Inactive)
REMARK    1  A    between atoms: C_1  and  C_2
REMARK    2  A    between atoms: C_2  and  C_3
REMARK    3  A    between atoms: C_3  and  C_4
REMARK    4  A    between atoms: C_5  and  C_6
REMARK    5  A    between atoms: C_6  and  O_8
REMARK    6  A    between atoms: O_8  and  C_9
REMARK    7  A    between atoms: C_9  and  C_10
REMARK    8  A    between atoms: C_13  and  C_14
REMARK    9  A    between atoms: C_14  and  O_16
REMARK   10  A    between atoms: C_19  and  C_20
REMARK   11  A    between atoms: C_24  and  C_25
REMARK                            x       y       z     vdW  Elec       q    Type
REMARK                         _______ _______ _______ _____ _____    ______ ____
ROOT
ATOM      1  C   UNL     1       1.084   8.890  18.912  0.00  0.00    +0.000 C 
ATOM      2  C   UNL     1       2.197   8.120  18.893  0.00  0.00    +0.000 C 
ATOM      3  C   UNL     1       2.512   7.224  20.071  0.00  0.00    +0.000 C 
ATOM      4  N   UNL     1       1.893   7.726  21.281  0.00  0.00    +0.000 N 
ATOM      5  C   UNL     1       0.719   8.411  21.279  0.00  0.00    +0.000 C 
ATOM      6  O   UNL     1       0.055   8.567  22.296  0.00  0.00    +0.000 OA
ATOM      7  N   UNL     1       0.344   8.940  20.079  0.00  0.00    +0.000 N 
ATOM      8  H   UNL     1       2.114   7.288  22.163  0.00  0.00    +0.000 HD
ATOM      9  H   UNL     1      -0.517   9.474  20.110  0.00  0.00    +0.000 HD
ENDROOT
BRANCH   3  10
ATOM     10  C   UNL     1       2.075   5.784  19.808  0.00  0.00    +0.000 A 
ATOM     11  C   UNL     1       1.542   5.415  18.566  0.00  0.00    +0.000 A 
ATOM     12  C   UNL     1       0.987   4.147  18.386  0.00  0.00    +0.000 A 
ATOM     13  C   UNL     1       0.957   3.233  19.441  0.00  0.00    +0.000 A 
ATOM     14  C   UNL     1       1.517   3.563  20.676  0.00  0.00    +0.000 A 
ATOM     15  C   UNL     1       1.469   2.625  21.844  0.00  0.00    +0.000 C 
ATOM     16  C   UNL     1       2.100   4.824  20.837  0.00  0.00    +0.000 A 
ENDBRANCH   3  10
BRANCH   2  17
ATOM     17  C   UNL     1       3.078   8.047  17.696  0.00  0.00    +0.000 C 
ATOM     18  O   UNL     1       2.676   8.121  16.543  0.00  0.00    +0.000 OA
BRANCH  17  19
ATOM     19  O   UNL     1       4.378   7.900  18.033  0.00  0.00    +0.000 OA
BRANCH  19  20
ATOM     20  C   UNL     1       5.138   7.004  17.205  0.00  0.00    +0.000 C 
BRANCH  20  21
ATOM     21  C   UNL     1       4.999   5.604  17.741  0.00  0.00    +0.000 A 
ATOM     22  C   UNL     1       5.455   5.294  19.029  0.00  0.00    +0.000 A 
ATOM     23  C   UNL     1       5.324   3.999  19.531  0.00  0.00    +0.000 A 
ATOM     24  C   UNL     1       4.737   2.994  18.752  0.00  0.00    +0.000 A 
ATOM     25  C   UNL     1       4.259   3.300  17.473  0.00  0.00    +0.000 A 
ATOM     26  C   UNL     1       4.402   4.597  16.968  0.00  0.00    +0.000 A 
BRANCH  24  27
ATOM     27  C   UNL     1       4.606   1.641  19.357  0.00  0.00    +0.000 C 
ATOM     28  O   UNL     1       4.857   1.419  20.530  0.00  0.00    +0.000 OA
BRANCH  27  29
ATOM     29  O   UNL     1       4.229   0.675  18.496  0.00  0.00    +0.000 OA
ATOM     30  H   UNL     1       3.835  -0.120  18.898  0.00  0.00    +0.000 HD
ENDBRANCH  27  29
ENDBRANCH  24  27
ENDBRANCH  20  21
ENDBRANCH  19  20
ENDBRANCH  17  19
ENDBRANCH   2  17
BRANCH   1  31
ATOM     31  C   UNL     1       0.497   9.682  17.766  0.00  0.00    +0.000 C 
BRANCH  31  33
ATOM     32  C   UNL     1      -1.923  10.034  17.153  0.00  0.00    +0.000 C 
ATOM     33  C   UNL     1      -0.832  10.330  18.169  0.00  0.00    +0.000 C 
ENDBRANCH  31  33
ENDBRANCH   1  31
TORSDOF 9
ENDMDL
