MODEL 1
REMARK VINA RESULT:      -6.7      0.000      0.000
REMARK  Name = 
REMARK  8 active torsions:
REMARK  status: ('A' for Active; 'I' for Inactive)
REMARK    1  A    between atoms: C_1  and  O_2
REMARK    2  A    between atoms: O_2  and  C_3
REMARK    3  A    between atoms: C_13  and  C_14
REMARK    4  A    between atoms: C_14  and  C_15
REMARK    5  A    between atoms: C_15  and  C_16
REMARK    6  A    between atoms: N_25  and  C_26
REMARK    7  A    between atoms: C_26  and  C_27
REMARK    8  A    between atoms: C_26  and  C_28
REMARK                            x       y       z     vdW  Elec       q    Type
REMARK                         _______ _______ _______ _____ _____    ______ ____
ROOT
ATOM      1  C   UNL     1      -3.973  14.627  22.025  0.00  0.00    +0.000 C 
ATOM      2  C   UNL     1      -4.141  13.191  22.527  0.00  0.00    +0.000 C 
ATOM      3  C   UNL     1      -3.166  12.291  21.703  0.00  0.00    +0.000 C 
ATOM      4  C   UNL     1      -1.675  12.474  22.218  0.00  0.00    +0.000 C 
ATOM      5  C   UNL     1      -1.646  13.936  22.833  0.00  0.00    +0.000 C 
ATOM      6  C   UNL     1      -2.468  14.917  21.938  0.00  0.00    +0.000 C 
ATOM      7  C   UNL     1      -1.460  11.189  23.125  0.00  0.00    +0.000 C 
ATOM      8  C   UNL     1      -0.775  10.194  22.177  0.00  0.00    +0.000 A 
ATOM      9  C   UNL     1      -0.635   8.818  22.263  0.00  0.00    +0.000 A 
ATOM     10  C   UNL     1       0.278   8.153  21.406  0.00  0.00    +0.000 A 
ATOM     11  C   UNL     1       1.079   8.877  20.499  0.00  0.00    +0.000 A 
ATOM     12  C   UNL     1       0.864  10.246  20.378  0.00  0.00    +0.000 A 
ATOM     13  C   UNL     1      -0.107  10.880  21.163  0.00  0.00    +0.000 A 
ATOM     14  C   UNL     1      -0.400  12.336  21.255  0.00  0.00    +0.000 C 
ATOM     15  N   UNL     1       0.778  12.963  21.927  0.00  0.00    +0.000 NA
ATOM     16  C   UNL     1       1.116  13.958  21.187  0.00  0.00    +0.000 C 
ATOM     17  N   UNL     1       2.095  14.783  21.622  0.00  0.00    +0.000 N 
ATOM     18  N   UNL     1       0.408  14.120  20.036  0.00  0.00    +0.000 N 
ATOM     19  C   UNL     1      -0.481  13.083  19.937  0.00  0.00    +0.000 C 
ATOM     20  O   UNL     1      -1.217  12.831  18.992  0.00  0.00    +0.000 OA
ATOM     21  H   UNL     1       2.322  14.568  22.579  0.00  0.00    +0.000 HD
ATOM     22  H   UNL     1       1.963  15.766  21.487  0.00  0.00    +0.000 HD
ENDROOT
BRANCH   1  24
ATOM     23  C   UNL     1      -4.023  16.921  22.693  0.00  0.00    +0.000 C 
ATOM     24  O   UNL     1      -4.571  15.620  22.857  0.00  0.00    +0.000 OA
ENDBRANCH   1  24
BRANCH  18  25
ATOM     25  C   UNL     1       0.506  15.150  18.996  0.00  0.00    +0.000 C 
ATOM     26  C   UNL     1      -0.241  16.432  19.386  0.00  0.00    +0.000 C 
BRANCH  25  27
ATOM     27  C   UNL     1       1.937  15.362  18.529  0.00  0.00    +0.000 A 
ATOM     28  C   UNL     1       2.710  14.248  18.156  0.00  0.00    +0.000 A 
ATOM     29  C   UNL     1       4.057  14.394  17.815  0.00  0.00    +0.000 A 
ATOM     30  C   UNL     1       4.648  15.655  17.834  0.00  0.00    +0.000 A 
ATOM     31  C   UNL     1       3.886  16.772  18.162  0.00  0.00    +0.000 A 
ATOM     32  C   UNL     1       2.542  16.628  18.504  0.00  0.00    +0.000 A 
ENDBRANCH  25  27
ENDBRANCH  18  25
BRANCH  11  33
ATOM     33  C   UNL     1       2.227   8.227  19.747  0.00  0.00    +0.000 C 
BRANCH  33  34
ATOM     34  C   UNL     1       1.881   7.503  18.445  0.00  0.00    +0.000 C 
BRANCH  34  35
ATOM     35  C   UNL     1       2.583   6.189  18.268  0.00  0.00    +0.000 C 
ATOM     36  C   UNL     1       2.340   5.127  19.310  0.00  0.00    +0.000 C 
ATOM     37  C   UNL     1       1.827   4.933  17.913  0.00  0.00    +0.000 C 
ENDBRANCH  34  35
ENDBRANCH  33  34
ENDBRANCH  11  33
TORSDOF 6
ENDMDL
MODEL 2
REMARK VINA RESULT:      -6.7      3.577      5.167
REMARK  Name = 
REMARK  8 active torsions:
REMARK  status: ('A' for Active; 'I' for Inactive)
REMARK    1  A    between atoms: C_1  and  O_2
REMARK    2  A    between atoms: O_2  and  C_3
REMARK    3  A    between atoms: C_13  and  C_14
REMARK    4  A    between atoms: C_14  and  C_15
REMARK    5  A    between atoms: C_15  and  C_16
REMARK    6  A    between atoms: N_25  and  C_26
REMARK    7  A    between atoms: C_26  and  C_27
REMARK    8  A    between atoms: C_26  and  C_28
REMARK                            x       y       z     vdW  Elec       q    Type
REMARK                         _______ _______ _______ _____ _____    ______ ____
ROOT
ATOM      1  C   UNL     1      -5.110  17.027  24.300  0.00  0.00    +0.000 C 
ATOM      2  C   UNL     1      -6.428  16.384  23.862  0.00  0.00    +0.000 C 
ATOM      3  C   UNL     1      -6.159  15.638  22.516  0.00  0.00    +0.000 C 
ATOM      4  C   UNL     1      -5.390  14.276  22.783  0.00  0.00    +0.000 C 
ATOM      5  C   UNL     1      -4.599  14.526  24.135  0.00  0.00    +0.000 C 
ATOM      6  C   UNL     1      -4.006  15.971  24.157  0.00  0.00    +0.000 C 
ATOM      7  C   UNL     1      -6.550  13.196  22.689  0.00  0.00    +0.000 C 
ATOM      8  C   UNL     1      -6.463  12.704  21.238  0.00  0.00    +0.000 A 
ATOM      9  C   UNL     1      -7.389  12.028  20.458  0.00  0.00    +0.000 A 
ATOM     10  C   UNL     1      -6.976  11.437  19.237  0.00  0.00    +0.000 A 
ATOM     11  C   UNL     1      -5.628  11.487  18.827  0.00  0.00    +0.000 A 
ATOM     12  C   UNL     1      -4.736  12.236  19.587  0.00  0.00    +0.000 A 
ATOM     13  C   UNL     1      -5.174  12.896  20.742  0.00  0.00    +0.000 A 
ATOM     14  C   UNL     1      -4.354  13.643  21.734  0.00  0.00    +0.000 C 
ATOM     15  N   UNL     1      -3.516  12.627  22.442  0.00  0.00    +0.000 NA
ATOM     16  C   UNL     1      -2.312  13.076  22.401  0.00  0.00    +0.000 C 
ATOM     17  N   UNL     1      -1.351  12.404  23.074  0.00  0.00    +0.000 N 
ATOM     18  N   UNL     1      -2.124  14.234  21.713  0.00  0.00    +0.000 N 
ATOM     19  C   UNL     1      -3.324  14.598  21.162  0.00  0.00    +0.000 C 
ATOM     20  O   UNL     1      -3.529  15.528  20.392  0.00  0.00    +0.000 OA
ATOM     21  H   UNL     1      -1.771  11.700  23.659  0.00  0.00    +0.000 HD
ATOM     22  H   UNL     1      -0.677  12.947  23.579  0.00  0.00    +0.000 HD
ENDROOT
BRANCH   1  24
ATOM     23  C   UNL     1      -4.261  18.631  25.856  0.00  0.00    +0.000 C 
ATOM     24  O   UNL     1      -5.100  17.503  25.646  0.00  0.00    +0.000 OA
ENDBRANCH   1  24
BRANCH  18  25
ATOM     25  C   UNL     1      -0.908  15.026  21.498  0.00  0.00    +0.000 C 
ATOM     26  C   UNL     1      -0.359  15.602  22.809  0.00  0.00    +0.000 C 
BRANCH  25  27
ATOM     27  C   UNL     1       0.115  14.292  20.646  0.00  0.00    +0.000 A 
ATOM     28  C   UNL     1       1.435  14.166  21.113  0.00  0.00    +0.000 A 
ATOM     29  C   UNL     1       2.423  13.585  20.316  0.00  0.00    +0.000 A 
ATOM     30  C   UNL     1       2.106  13.114  19.045  0.00  0.00    +0.000 A 
ATOM     31  C   UNL     1       0.795  13.195  18.584  0.00  0.00    +0.000 A 
ATOM     32  C   UNL     1      -0.192  13.776  19.378  0.00  0.00    +0.000 A 
ENDBRANCH  25  27
ENDBRANCH  18  25
BRANCH  11  33
ATOM     33  C   UNL     1      -5.114  10.664  17.659  0.00  0.00    +0.000 C 
BRANCH  33  34
ATOM     34  C   UNL     1      -4.546  11.435  16.466  0.00  0.00    +0.000 C 
BRANCH  34  35
ATOM     35  C   UNL     1      -3.148  11.043  16.091  0.00  0.00    +0.000 C 
ATOM     36  C   UNL     1      -2.711   9.636  16.415  0.00  0.00    +0.000 C 
ATOM     37  C   UNL     1      -2.877  10.056  14.983  0.00  0.00    +0.000 C 
ENDBRANCH  34  35
ENDBRANCH  33  34
ENDBRANCH  11  33
TORSDOF 6
ENDMDL
MODEL 3
REMARK VINA RESULT:      -6.6      2.999      6.029
REMARK  Name = 
REMARK  8 active torsions:
REMARK  status: ('A' for Active; 'I' for Inactive)
REMARK    1  A    between atoms: C_1  and  O_2
REMARK    2  A    between atoms: O_2  and  C_3
REMARK    3  A    between atoms: C_13  and  C_14
REMARK    4  A    between atoms: C_14  and  C_15
REMARK    5  A    between atoms: C_15  and  C_16
REMARK    6  A    between atoms: N_25  and  C_26
REMARK    7  A    between atoms: C_26  and  C_27
REMARK    8  A    between atoms: C_26  and  C_28
REMARK                            x       y       z     vdW  Elec       q    Type
REMARK                         _______ _______ _______ _____ _____    ______ ____
ROOT
ATOM      1  C   UNL     1      -1.228  16.834  24.063  0.00  0.00    +0.000 C 
ATOM      2  C   UNL     1      -2.717  16.931  24.404  0.00  0.00    +0.000 C 
ATOM      3  C   UNL     1      -3.497  16.110  23.328  0.00  0.00    +0.000 C 
ATOM      4  C   UNL     1      -3.363  14.555  23.614  0.00  0.00    +0.000 C 
ATOM      5  C   UNL     1      -1.988  14.413  24.393  0.00  0.00    +0.000 C 
ATOM      6  C   UNL     1      -0.913  15.360  23.772  0.00  0.00    +0.000 C 
ATOM      7  C   UNL     1      -4.748  14.207  24.308  0.00  0.00    +0.000 C 
ATOM      8  C   UNL     1      -5.610  13.694  23.146  0.00  0.00    +0.000 A 
ATOM      9  C   UNL     1      -6.985  13.554  23.037  0.00  0.00    +0.000 A 
ATOM     10  C   UNL     1      -7.527  12.797  21.967  0.00  0.00    +0.000 A 
ATOM     11  C   UNL     1      -6.688  12.147  21.040  0.00  0.00    +0.000 A 
ATOM     12  C   UNL     1      -5.317  12.365  21.127  0.00  0.00    +0.000 A 
ATOM     13  C   UNL     1      -4.796  13.192  22.130  0.00  0.00    +0.000 A 
ATOM     14  C   UNL     1      -3.366  13.452  22.449  0.00  0.00    +0.000 C 
ATOM     15  N   UNL     1      -2.815  12.175  22.995  0.00  0.00    +0.000 NA
ATOM     16  C   UNL     1      -1.731  11.953  22.339  0.00  0.00    +0.000 C 
ATOM     17  N   UNL     1      -0.956  10.909  22.710  0.00  0.00    +0.000 N 
ATOM     18  N   UNL     1      -1.436  12.835  21.347  0.00  0.00    +0.000 N 
ATOM     19  C   UNL     1      -2.462  13.738  21.265  0.00  0.00    +0.000 C 
ATOM     20  O   UNL     1      -2.603  14.619  20.426  0.00  0.00    +0.000 OA
ATOM     21  H   UNL     1      -1.285  10.532  23.584  0.00  0.00    +0.000 HD
ATOM     22  H   UNL     1       0.035  11.052  22.722  0.00  0.00    +0.000 HD
ENDROOT
BRANCH   1  24
ATOM     23  C   UNL     1      -1.014  17.911  26.186  0.00  0.00    +0.000 C 
ATOM     24  O   UNL     1      -0.352  17.281  25.098  0.00  0.00    +0.000 OA
ENDBRANCH   1  24
BRANCH  18  25
ATOM     25  C   UNL     1      -0.284  12.897  20.441  0.00  0.00    +0.000 C 
ATOM     26  C   UNL     1       1.001  13.303  21.173  0.00  0.00    +0.000 C 
BRANCH  25  27
ATOM     27  C   UNL     1      -0.161  11.650  19.579  0.00  0.00    +0.000 A 
ATOM     28  C   UNL     1       1.040  10.919  19.597  0.00  0.00    +0.000 A 
ATOM     29  C   UNL     1       1.225   9.827  18.746  0.00  0.00    +0.000 A 
ATOM     30  C   UNL     1       0.210   9.444  17.874  0.00  0.00    +0.000 A 
ATOM     31  C   UNL     1      -1.000  10.132  17.873  0.00  0.00    +0.000 A 
ATOM     32  C   UNL     1      -1.185  11.224  18.721  0.00  0.00    +0.000 A 
ENDBRANCH  25  27
ENDBRANCH  18  25
BRANCH  11  33
ATOM     33  C   UNL     1      -7.227  11.140  20.039  0.00  0.00    +0.000 C 
BRANCH  33  34
ATOM     34  C   UNL     1      -6.907  11.393  18.564  0.00  0.00    +0.000 C 
BRANCH  34  35
ATOM     35  C   UNL     1      -5.459  11.674  18.291  0.00  0.00    +0.000 C 
ATOM     36  C   UNL     1      -4.681  10.630  17.529  0.00  0.00    +0.000 C 
ATOM     37  C   UNL     1      -4.963  11.962  16.896  0.00  0.00    +0.000 C 
ENDBRANCH  34  35
ENDBRANCH  33  34
ENDBRANCH  11  33
TORSDOF 6
ENDMDL
MODEL 4
REMARK VINA RESULT:      -6.6      1.935      5.839
REMARK  Name = 
REMARK  8 active torsions:
REMARK  status: ('A' for Active; 'I' for Inactive)
REMARK    1  A    between atoms: C_1  and  O_2
REMARK    2  A    between atoms: O_2  and  C_3
REMARK    3  A    between atoms: C_13  and  C_14
REMARK    4  A    between atoms: C_14  and  C_15
REMARK    5  A    between atoms: C_15  and  C_16
REMARK    6  A    between atoms: N_25  and  C_26
REMARK    7  A    between atoms: C_26  and  C_27
REMARK    8  A    between atoms: C_26  and  C_28
REMARK                            x       y       z     vdW  Elec       q    Type
REMARK                         _______ _______ _______ _____ _____    ______ ____
ROOT
ATOM      1  C   UNL     1      -4.627  13.228  22.496  0.00  0.00    +0.000 C 
ATOM      2  C   UNL     1      -3.929  14.378  23.226  0.00  0.00    +0.000 C 
ATOM      3  C   UNL     1      -2.390  14.124  23.133  0.00  0.00    +0.000 C 
ATOM      4  C   UNL     1      -1.855  14.496  21.685  0.00  0.00    +0.000 C 
ATOM      5  C   UNL     1      -3.111  14.300  20.736  0.00  0.00    +0.000 C 
ATOM      6  C   UNL     1      -3.912  13.025  21.154  0.00  0.00    +0.000 C 
ATOM      7  C   UNL     1      -1.203  15.926  21.912  0.00  0.00    +0.000 C 
ATOM      8  C   UNL     1       0.282  15.608  22.138  0.00  0.00    +0.000 A 
ATOM      9  C   UNL     1       1.290  16.371  22.706  0.00  0.00    +0.000 A 
ATOM     10  C   UNL     1       2.642  15.971  22.551  0.00  0.00    +0.000 A 
ATOM     11  C   UNL     1       2.978  14.833  21.790  0.00  0.00    +0.000 A 
ATOM     12  C   UNL     1       1.946  14.043  21.295  0.00  0.00    +0.000 A 
ATOM     13  C   UNL     1       0.611  14.395  21.534  0.00  0.00    +0.000 A 
ATOM     14  C   UNL     1      -0.615  13.745  20.997  0.00  0.00    +0.000 C 
ATOM     15  N   UNL     1      -0.638  14.029  19.530  0.00  0.00    +0.000 NA
ATOM     16  C   UNL     1      -0.831  12.894  18.957  0.00  0.00    +0.000 C 
ATOM     17  N   UNL     1      -1.011  12.871  17.618  0.00  0.00    +0.000 N 
ATOM     18  N   UNL     1      -0.887  11.808  19.775  0.00  0.00    +0.000 N 
ATOM     19  C   UNL     1      -0.645  12.229  21.055  0.00  0.00    +0.000 C 
ATOM     20  O   UNL     1      -0.513  11.527  22.049  0.00  0.00    +0.000 OA
ATOM     21  H   UNL     1      -1.121  13.810  17.271  0.00  0.00    +0.000 HD
ATOM     22  H   UNL     1      -1.721  12.262  17.258  0.00  0.00    +0.000 HD
ENDROOT
BRANCH   1  24
ATOM     23  C   UNL     1      -6.617  12.440  21.433  0.00  0.00    +0.000 C 
ATOM     24  O   UNL     1      -6.013  13.446  22.235  0.00  0.00    +0.000 OA
ENDBRANCH   1  24
BRANCH  18  25
ATOM     25  C   UNL     1      -1.124  10.394  19.463  0.00  0.00    +0.000 C 
ATOM     26  C   UNL     1      -2.166  10.217  18.353  0.00  0.00    +0.000 C 
BRANCH  25  27
ATOM     27  C   UNL     1       0.172   9.627  19.250  0.00  0.00    +0.000 A 
ATOM     28  C   UNL     1       0.785   9.652  17.985  0.00  0.00    +0.000 A 
ATOM     29  C   UNL     1       1.921   8.882  17.726  0.00  0.00    +0.000 A 
ATOM     30  C   UNL     1       2.465   8.084  18.728  0.00  0.00    +0.000 A 
ATOM     31  C   UNL     1       1.894   8.079  19.996  0.00  0.00    +0.000 A 
ATOM     32  C   UNL     1       0.759   8.846  20.257  0.00  0.00    +0.000 A 
ENDBRANCH  25  27
ENDBRANCH  18  25
BRANCH  11  33
ATOM     33  C   UNL     1       4.414  14.519  21.407  0.00  0.00    +0.000 C 
BRANCH  33  34
ATOM     34  C   UNL     1       4.932  15.133  20.105  0.00  0.00    +0.000 C 
BRANCH  34  35
ATOM     35  C   UNL     1       4.109  14.794  18.897  0.00  0.00    +0.000 C 
ATOM     36  C   UNL     1       3.281  15.898  18.290  0.00  0.00    +0.000 C 
ATOM     37  C   UNL     1       4.452  15.340  17.533  0.00  0.00    +0.000 C 
ENDBRANCH  34  35
ENDBRANCH  33  34
ENDBRANCH  11  33
TORSDOF 6
ENDMDL
MODEL 5
REMARK VINA RESULT:      -6.6      3.051      6.451
REMARK  Name = 
REMARK  8 active torsions:
REMARK  status: ('A' for Active; 'I' for Inactive)
REMARK    1  A    between atoms: C_1  and  O_2
REMARK    2  A    between atoms: O_2  and  C_3
REMARK    3  A    between atoms: C_13  and  C_14
REMARK    4  A    between atoms: C_14  and  C_15
REMARK    5  A    between atoms: C_15  and  C_16
REMARK    6  A    between atoms: N_25  and  C_26
REMARK    7  A    between atoms: C_26  and  C_27
REMARK    8  A    between atoms: C_26  and  C_28
REMARK                            x       y       z     vdW  Elec       q    Type
REMARK                         _______ _______ _______ _____ _____    ______ ____
ROOT
ATOM      1  C   UNL     1      -0.466  17.310  23.687  0.00  0.00    +0.000 C 
ATOM      2  C   UNL     1      -1.868  17.484  24.276  0.00  0.00    +0.000 C 
ATOM      3  C   UNL     1      -2.852  16.648  23.397  0.00  0.00    +0.000 C 
ATOM      4  C   UNL     1      -2.720  15.103  23.736  0.00  0.00    +0.000 C 
ATOM      5  C   UNL     1      -1.235  14.940  24.269  0.00  0.00    +0.000 C 
ATOM      6  C   UNL     1      -0.255  15.813  23.422  0.00  0.00    +0.000 C 
ATOM      7  C   UNL     1      -3.972  14.845  24.677  0.00  0.00    +0.000 C 
ATOM      8  C   UNL     1      -5.041  14.316  23.711  0.00  0.00    +0.000 A 
ATOM      9  C   UNL     1      -6.418  14.228  23.851  0.00  0.00    +0.000 A 
ATOM     10  C   UNL     1      -7.165  13.447  22.933  0.00  0.00    +0.000 A 
ATOM     11  C   UNL     1      -6.524  12.721  21.909  0.00  0.00    +0.000 A 
ATOM     12  C   UNL     1      -5.153  12.886  21.744  0.00  0.00    +0.000 A 
ATOM     13  C   UNL     1      -4.437  13.735  22.597  0.00  0.00    +0.000 A 
ATOM     14  C   UNL     1      -2.965  13.950  22.647  0.00  0.00    +0.000 C 
ATOM     15  N   UNL     1      -2.368  12.678  23.154  0.00  0.00    +0.000 NA
ATOM     16  C   UNL     1      -1.425  12.381  22.332  0.00  0.00    +0.000 C 
ATOM     17  N   UNL     1      -0.632  11.324  22.615  0.00  0.00    +0.000 N 
ATOM     18  N   UNL     1      -1.281  13.205  21.259  0.00  0.00    +0.000 N 
ATOM     19  C   UNL     1      -2.275  14.145  21.310  0.00  0.00    +0.000 C 
ATOM     20  O   UNL     1      -2.532  14.992  20.465  0.00  0.00    +0.000 OA
ATOM     21  H   UNL     1      -0.813  11.001  23.552  0.00  0.00    +0.000 HD
ATOM     22  H   UNL     1       0.351  11.426  22.446  0.00  0.00    +0.000 HD
ENDROOT
BRANCH   1  24
ATOM     23  C   UNL     1       1.886  17.350  24.112  0.00  0.00    +0.000 C 
ATOM     24  O   UNL     1       0.592  17.767  24.528  0.00  0.00    +0.000 OA
ENDBRANCH   1  24
BRANCH  18  25
ATOM     25  C   UNL     1      -0.304  13.178  20.164  0.00  0.00    +0.000 C 
ATOM     26  C   UNL     1       1.138  13.267  20.678  0.00  0.00    +0.000 C 
BRANCH  25  27
ATOM     27  C   UNL     1      -0.565  12.042  19.188  0.00  0.00    +0.000 A 
ATOM     28  C   UNL     1      -1.755  12.039  18.439  0.00  0.00    +0.000 A 
ATOM     29  C   UNL     1      -2.074  10.964  17.606  0.00  0.00    +0.000 A 
ATOM     30  C   UNL     1      -1.205   9.882  17.503  0.00  0.00    +0.000 A 
ATOM     31  C   UNL     1      -0.004   9.887  18.207  0.00  0.00    +0.000 A 
ATOM     32  C   UNL     1       0.315  10.959  19.040  0.00  0.00    +0.000 A 
ENDBRANCH  25  27
ENDBRANCH  18  25
BRANCH  11  33
ATOM     33  C   UNL     1      -7.264  11.694  21.070  0.00  0.00    +0.000 C 
BRANCH  33  34
ATOM     34  C   UNL     1      -7.655  12.111  19.651  0.00  0.00    +0.000 C 
BRANCH  34  35
ATOM     35  C   UNL     1      -6.749  11.575  18.582  0.00  0.00    +0.000 C 
ATOM     36  C   UNL     1      -6.782  12.259  17.238  0.00  0.00    +0.000 C 
ATOM     37  C   UNL     1      -5.554  12.358  18.098  0.00  0.00    +0.000 C 
ENDBRANCH  34  35
ENDBRANCH  33  34
ENDBRANCH  11  33
TORSDOF 6
ENDMDL
MODEL 6
REMARK VINA RESULT:      -6.5      1.827      6.221
REMARK  Name = 
REMARK  8 active torsions:
REMARK  status: ('A' for Active; 'I' for Inactive)
REMARK    1  A    between atoms: C_1  and  O_2
REMARK    2  A    between atoms: O_2  and  C_3
REMARK    3  A    between atoms: C_13  and  C_14
REMARK    4  A    between atoms: C_14  and  C_15
REMARK    5  A    between atoms: C_15  and  C_16
REMARK    6  A    between atoms: N_25  and  C_26
REMARK    7  A    between atoms: C_26  and  C_27
REMARK    8  A    between atoms: C_26  and  C_28
REMARK                            x       y       z     vdW  Elec       q    Type
REMARK                         _______ _______ _______ _____ _____    ______ ____
ROOT
ATOM      1  C   UNL     1      -2.870  12.724  23.704  0.00  0.00    +0.000 C 
ATOM      2  C   UNL     1      -2.701  14.203  23.348  0.00  0.00    +0.000 C 
ATOM      3  C   UNL     1      -1.366  14.341  22.549  0.00  0.00    +0.000 C 
ATOM      4  C   UNL     1      -1.559  13.831  21.058  0.00  0.00    +0.000 C 
ATOM      5  C   UNL     1      -2.738  12.775  21.150  0.00  0.00    +0.000 C 
ATOM      6  C   UNL     1      -2.587  11.904  22.438  0.00  0.00    +0.000 C 
ATOM      7  C   UNL     1      -1.721  15.186  20.246  0.00  0.00    +0.000 C 
ATOM      8  C   UNL     1      -0.302  15.466  19.732  0.00  0.00    +0.000 A 
ATOM      9  C   UNL     1       0.271  16.636  19.258  0.00  0.00    +0.000 A 
ATOM     10  C   UNL     1       1.515  16.581  18.580  0.00  0.00    +0.000 A 
ATOM     11  C   UNL     1       2.157  15.348  18.342  0.00  0.00    +0.000 A 
ATOM     12  C   UNL     1       1.601  14.199  18.894  0.00  0.00    +0.000 A 
ATOM     13  C   UNL     1       0.420  14.276  19.643  0.00  0.00    +0.000 A 
ATOM     14  C   UNL     1      -0.376  13.154  20.211  0.00  0.00    +0.000 C 
ATOM     15  N   UNL     1      -0.975  12.429  19.049  0.00  0.00    +0.000 NA
ATOM     16  C   UNL     1      -0.703  11.186  19.234  0.00  0.00    +0.000 C 
ATOM     17  N   UNL     1      -1.228  10.278  18.383  0.00  0.00    +0.000 N 
ATOM     18  N   UNL     1       0.063  10.893  20.320  0.00  0.00    +0.000 N 
ATOM     19  C   UNL     1       0.412  12.072  20.923  0.00  0.00    +0.000 C 
ATOM     20  O   UNL     1       1.178  12.218  21.867  0.00  0.00    +0.000 OA
ATOM     21  H   UNL     1      -1.910  10.720  17.788  0.00  0.00    +0.000 HD
ATOM     22  H   UNL     1      -1.581   9.427  18.776  0.00  0.00    +0.000 HD
ENDROOT
BRANCH   1  24
ATOM     23  C   UNL     1      -5.189  13.295  23.818  0.00  0.00    +0.000 C 
ATOM     24  O   UNL     1      -4.169  12.373  24.181  0.00  0.00    +0.000 OA
ENDBRANCH   1  24
BRANCH  18  25
ATOM     25  C   UNL     1       0.524   9.600  20.837  0.00  0.00    +0.000 C 
ATOM     26  C   UNL     1      -0.627   8.768  21.416  0.00  0.00    +0.000 C 
BRANCH  25  27
ATOM     27  C   UNL     1       1.405   8.863  19.840  0.00  0.00    +0.000 A 
ATOM     28  C   UNL     1       1.709   9.472  18.610  0.00  0.00    +0.000 A 
ATOM     29  C   UNL     1       2.432   8.786  17.632  0.00  0.00    +0.000 A 
ATOM     30  C   UNL     1       2.870   7.487  17.872  0.00  0.00    +0.000 A 
ATOM     31  C   UNL     1       2.613   6.885  19.099  0.00  0.00    +0.000 A 
ATOM     32  C   UNL     1       1.889   7.567  20.076  0.00  0.00    +0.000 A 
ENDBRANCH  25  27
ENDBRANCH  18  25
BRANCH  11  33
ATOM     33  C   UNL     1       3.356  15.234  17.417  0.00  0.00    +0.000 C 
BRANCH  33  34
ATOM     34  C   UNL     1       4.656  14.710  18.032  0.00  0.00    +0.000 C 
BRANCH  34  35
ATOM     35  C   UNL     1       5.183  15.550  19.157  0.00  0.00    +0.000 C 
ATOM     36  C   UNL     1       5.030  15.010  20.557  0.00  0.00    +0.000 C 
ATOM     37  C   UNL     1       6.398  15.133  19.949  0.00  0.00    +0.000 C 
ENDBRANCH  34  35
ENDBRANCH  33  34
ENDBRANCH  11  33
TORSDOF 6
ENDMDL
MODEL 7
REMARK VINA RESULT:      -6.5      1.840      3.127
REMARK  Name = 
REMARK  8 active torsions:
REMARK  status: ('A' for Active; 'I' for Inactive)
REMARK    1  A    between atoms: C_1  and  O_2
REMARK    2  A    between atoms: O_2  and  C_3
REMARK    3  A    between atoms: C_13  and  C_14
REMARK    4  A    between atoms: C_14  and  C_15
REMARK    5  A    between atoms: C_15  and  C_16
REMARK    6  A    between atoms: N_25  and  C_26
REMARK    7  A    between atoms: C_26  and  C_27
REMARK    8  A    between atoms: C_26  and  C_28
REMARK                            x       y       z     vdW  Elec       q    Type
REMARK                         _______ _______ _______ _____ _____    ______ ____
ROOT
ATOM      1  C   UNL     1      -3.731  14.396  23.446  0.00  0.00    +0.000 C 
ATOM      2  C   UNL     1      -3.726  12.867  23.522  0.00  0.00    +0.000 C 
ATOM      3  C   UNL     1      -2.918  12.341  22.293  0.00  0.00    +0.000 C 
ATOM      4  C   UNL     1      -1.360  12.525  22.536  0.00  0.00    +0.000 C 
ATOM      5  C   UNL     1      -1.257  13.749  23.539  0.00  0.00    +0.000 C 
ATOM      6  C   UNL     1      -2.294  14.853  23.156  0.00  0.00    +0.000 C 
ATOM      7  C   UNL     1      -0.900  11.065  22.959  0.00  0.00    +0.000 C 
ATOM      8  C   UNL     1      -0.398  10.454  21.643  0.00  0.00    +0.000 A 
ATOM      9  C   UNL     1      -0.187   9.131  21.287  0.00  0.00    +0.000 A 
ATOM     10  C   UNL     1       0.544   8.832  20.109  0.00  0.00    +0.000 A 
ATOM     11  C   UNL     1       1.097   9.860  19.319  0.00  0.00    +0.000 A 
ATOM     12  C   UNL     1       0.806  11.178  19.656  0.00  0.00    +0.000 A 
ATOM     13  C   UNL     1       0.004  11.462  20.768  0.00  0.00    +0.000 A 
ATOM     14  C   UNL     1      -0.321  12.795  21.344  0.00  0.00    +0.000 C 
ATOM     15  N   UNL     1       0.949  13.325  21.928  0.00  0.00    +0.000 NA
ATOM     16  C   UNL     1       1.076  14.518  21.465  0.00  0.00    +0.000 C 
ATOM     17  N   UNL     1       2.092  15.282  21.924  0.00  0.00    +0.000 N 
ATOM     18  N   UNL     1       0.129  14.923  20.577  0.00  0.00    +0.000 N 
ATOM     19  C   UNL     1      -0.717  13.871  20.351  0.00  0.00    +0.000 C 
ATOM     20  O   UNL     1      -1.631  13.821  19.537  0.00  0.00    +0.000 OA
ATOM     21  H   UNL     1       2.531  14.832  22.711  0.00  0.00    +0.000 HD
ATOM     22  H   UNL     1       1.894  16.245  22.116  0.00  0.00    +0.000 HD
ENDROOT
BRANCH   1  24
ATOM     23  C   UNL     1      -3.443  16.224  24.960  0.00  0.00    +0.000 C 
ATOM     24  O   UNL     1      -4.173  15.048  24.636  0.00  0.00    +0.000 OA
ENDBRANCH   1  24
BRANCH  18  25
ATOM     25  C   UNL     1      -0.045  16.209  19.892  0.00  0.00    +0.000 C 
ATOM     26  C   UNL     1      -0.062  16.051  18.367  0.00  0.00    +0.000 C 
BRANCH  25  27
ATOM     27  C   UNL     1      -1.201  17.014  20.463  0.00  0.00    +0.000 A 
ATOM     28  C   UNL     1      -2.423  17.049  19.769  0.00  0.00    +0.000 A 
ATOM     29  C   UNL     1      -3.474  17.855  20.211  0.00  0.00    +0.000 A 
ATOM     30  C   UNL     1      -3.323  18.631  21.357  0.00  0.00    +0.000 A 
ATOM     31  C   UNL     1      -2.134  18.577  22.077  0.00  0.00    +0.000 A 
ATOM     32  C   UNL     1      -1.083  17.774  21.636  0.00  0.00    +0.000 A 
ENDBRANCH  25  27
ENDBRANCH  18  25
BRANCH  11  33
ATOM     33  C   UNL     1       2.080   9.570  18.199  0.00  0.00    +0.000 C 
BRANCH  33  34
ATOM     34  C   UNL     1       2.110   8.140  17.657  0.00  0.00    +0.000 C 
BRANCH  34  35
ATOM     35  C   UNL     1       3.186   7.281  18.253  0.00  0.00    +0.000 C 
ATOM     36  C   UNL     1       3.121   5.799  17.982  0.00  0.00    +0.000 C 
ATOM     37  C   UNL     1       4.232   6.618  17.391  0.00  0.00    +0.000 C 
ENDBRANCH  34  35
ENDBRANCH  33  34
ENDBRANCH  11  33
TORSDOF 6
ENDMDL
MODEL 8
REMARK VINA RESULT:      -6.5      1.960      2.743
REMARK  Name = 
REMARK  8 active torsions:
REMARK  status: ('A' for Active; 'I' for Inactive)
REMARK    1  A    between atoms: C_1  and  O_2
REMARK    2  A    between atoms: O_2  and  C_3
REMARK    3  A    between atoms: C_13  and  C_14
REMARK    4  A    between atoms: C_14  and  C_15
REMARK    5  A    between atoms: C_15  and  C_16
REMARK    6  A    between atoms: N_25  and  C_26
REMARK    7  A    between atoms: C_26  and  C_27
REMARK    8  A    between atoms: C_26  and  C_28
REMARK                            x       y       z     vdW  Elec       q    Type
REMARK                         _______ _______ _______ _____ _____    ______ ____
ROOT
ATOM      1  C   UNL     1      -1.336  17.228  21.790  0.00  0.00    +0.000 C 
ATOM      2  C   UNL     1      -2.198  15.967  21.684  0.00  0.00    +0.000 C 
ATOM      3  C   UNL     1      -1.497  15.006  20.672  0.00  0.00    +0.000 C 
ATOM      4  C   UNL     1      -0.250  14.299  21.354  0.00  0.00    +0.000 C 
ATOM      5  C   UNL     1       0.212  15.313  22.483  0.00  0.00    +0.000 C 
ATOM      6  C   UNL     1       0.122  16.783  21.961  0.00  0.00    +0.000 C 
ATOM      7  C   UNL     1      -0.819  12.861  21.715  0.00  0.00    +0.000 C 
ATOM      8  C   UNL     1      -0.379  11.995  20.526  0.00  0.00    +0.000 A 
ATOM      9  C   UNL     1      -0.839  10.762  20.089  0.00  0.00    +0.000 A 
ATOM     10  C   UNL     1      -0.088  10.035  19.132  0.00  0.00    +0.000 A 
ATOM     11  C   UNL     1       1.143  10.526  18.651  0.00  0.00    +0.000 A 
ATOM     12  C   UNL     1       1.543  11.798  19.045  0.00  0.00    +0.000 A 
ATOM     13  C   UNL     1       0.747  12.550  19.919  0.00  0.00    +0.000 A 
ATOM     14  C   UNL     1       1.060  13.868  20.535  0.00  0.00    +0.000 C 
ATOM     15  N   UNL     1       2.173  13.629  21.503  0.00  0.00    +0.000 NA
ATOM     16  C   UNL     1       3.066  14.515  21.237  0.00  0.00    +0.000 C 
ATOM     17  N   UNL     1       4.146  14.605  22.044  0.00  0.00    +0.000 N 
ATOM     18  N   UNL     1       2.809  15.327  20.175  0.00  0.00    +0.000 N 
ATOM     19  C   UNL     1       1.634  14.918  19.604  0.00  0.00    +0.000 C 
ATOM     20  O   UNL     1       1.132  15.340  18.570  0.00  0.00    +0.000 OA
ATOM     21  H   UNL     1       4.010  14.035  22.862  0.00  0.00    +0.000 HD
ATOM     22  H   UNL     1       4.466  15.524  22.285  0.00  0.00    +0.000 HD
ENDROOT
BRANCH   1  24
ATOM     23  C   UNL     1      -2.578  17.513  23.812  0.00  0.00    +0.000 C 
ATOM     24  O   UNL     1      -1.671  18.087  22.879  0.00  0.00    +0.000 OA
ENDBRANCH   1  24
BRANCH  18  25
ATOM     25  C   UNL     1       3.584  16.445  19.625  0.00  0.00    +0.000 C 
ATOM     26  C   UNL     1       3.616  17.646  20.578  0.00  0.00    +0.000 C 
BRANCH  25  27
ATOM     27  C   UNL     1       4.944  16.004  19.107  0.00  0.00    +0.000 A 
ATOM     28  C   UNL     1       5.012  15.003  18.122  0.00  0.00    +0.000 A 
ATOM     29  C   UNL     1       6.244  14.504  17.695  0.00  0.00    +0.000 A 
ATOM     30  C   UNL     1       7.425  15.004  18.237  0.00  0.00    +0.000 A 
ATOM     31  C   UNL     1       7.375  16.022  19.183  0.00  0.00    +0.000 A 
ATOM     32  C   UNL     1       6.146  16.521  19.613  0.00  0.00    +0.000 A 
ENDBRANCH  25  27
ENDBRANCH  18  25
BRANCH  11  33
ATOM     33  C   UNL     1       2.079   9.668  17.818  0.00  0.00    +0.000 C 
BRANCH  33  34
ATOM     34  C   UNL     1       1.823   8.160  17.822  0.00  0.00    +0.000 C 
BRANCH  34  35
ATOM     35  C   UNL     1       3.014   7.337  18.216  0.00  0.00    +0.000 C 
ATOM     36  C   UNL     1       2.827   6.333  19.326  0.00  0.00    +0.000 C 
ATOM     37  C   UNL     1       3.081   5.859  17.924  0.00  0.00    +0.000 C 
ENDBRANCH  34  35
ENDBRANCH  33  34
ENDBRANCH  11  33
TORSDOF 6
ENDMDL
MODEL 9
REMARK VINA RESULT:      -6.5      2.079      6.269
REMARK  Name = 
REMARK  8 active torsions:
REMARK  status: ('A' for Active; 'I' for Inactive)
REMARK    1  A    between atoms: C_1  and  O_2
REMARK    2  A    between atoms: O_2  and  C_3
REMARK    3  A    between atoms: C_13  and  C_14
REMARK    4  A    between atoms: C_14  and  C_15
REMARK    5  A    between atoms: C_15  and  C_16
REMARK    6  A    between atoms: N_25  and  C_26
REMARK    7  A    between atoms: C_26  and  C_27
REMARK    8  A    between atoms: C_26  and  C_28
REMARK                            x       y       z     vdW  Elec       q    Type
REMARK                         _______ _______ _______ _____ _____    ______ ____
ROOT
ATOM      1  C   UNL     1      -2.119  14.526  23.089  0.00  0.00    +0.000 C 
ATOM      2  C   UNL     1      -1.117  15.683  23.123  0.00  0.00    +0.000 C 
ATOM      3  C   UNL     1       0.192  15.189  22.429  0.00  0.00    +0.000 C 
ATOM      4  C   UNL     1       0.010  15.172  20.852  0.00  0.00    +0.000 C 
ATOM      5  C   UNL     1      -1.549  14.976  20.635  0.00  0.00    +0.000 C 
ATOM      6  C   UNL     1      -2.115  13.948  21.667  0.00  0.00    +0.000 C 
ATOM      7  C   UNL     1       0.748  16.504  20.403  0.00  0.00    +0.000 C 
ATOM      8  C   UNL     1       2.155  16.021  20.024  0.00  0.00    +0.000 A 
ATOM      9  C   UNL     1       3.341  16.725  19.879  0.00  0.00    +0.000 A 
ATOM     10  C   UNL     1       4.450  16.103  19.252  0.00  0.00    +0.000 A 
ATOM     11  C   UNL     1       4.351  14.797  18.732  0.00  0.00    +0.000 A 
ATOM     12  C   UNL     1       3.177  14.086  18.958  0.00  0.00    +0.000 A 
ATOM     13  C   UNL     1       2.120  14.675  19.662  0.00  0.00    +0.000 A 
ATOM     14  C   UNL     1       0.760  14.120  19.901  0.00  0.00    +0.000 C 
ATOM     15  N   UNL     1       0.072  14.097  18.575  0.00  0.00    +0.000 NA
ATOM     16  C   UNL     1      -0.409  12.911  18.450  0.00  0.00    +0.000 C 
ATOM     17  N   UNL     1      -1.189  12.642  17.380  0.00  0.00    +0.000 N 
ATOM     18  N   UNL     1      -0.122  12.037  19.452  0.00  0.00    +0.000 N 
ATOM     19  C   UNL     1       0.702  12.670  20.343  0.00  0.00    +0.000 C 
ATOM     20  O   UNL     1       1.251  12.174  21.319  0.00  0.00    +0.000 OA
ATOM     21  H   UNL     1      -1.410  13.496  16.894  0.00  0.00    +0.000 HD
ATOM     22  H   UNL     1      -2.008  12.085  17.534  0.00  0.00    +0.000 HD
ENDROOT
BRANCH   1  24
ATOM     23  C   UNL     1      -3.621  16.262  23.755  0.00  0.00    +0.000 C 
ATOM     24  O   UNL     1      -3.459  14.890  23.418  0.00  0.00    +0.000 OA
ENDBRANCH   1  24
BRANCH  18  25
ATOM     25  C   UNL     1      -0.531  10.640  19.641  0.00  0.00    +0.000 C 
ATOM     26  C   UNL     1      -1.918  10.362  19.049  0.00  0.00    +0.000 C 
BRANCH  25  27
ATOM     27  C   UNL     1       0.552   9.661  19.216  0.00  0.00    +0.000 A 
ATOM     28  C   UNL     1       1.011   8.703  20.137  0.00  0.00    +0.000 A 
ATOM     29  C   UNL     1       2.071   7.852  19.815  0.00  0.00    +0.000 A 
ATOM     30  C   UNL     1       2.681   7.940  18.567  0.00  0.00    +0.000 A 
ATOM     31  C   UNL     1       2.212   8.856  17.630  0.00  0.00    +0.000 A 
ATOM     32  C   UNL     1       1.155   9.707  17.950  0.00  0.00    +0.000 A 
ENDBRANCH  25  27
ENDBRANCH  18  25
BRANCH  11  33
ATOM     33  C   UNL     1       5.433  14.201  17.849  0.00  0.00    +0.000 C 
BRANCH  33  34
ATOM     34  C   UNL     1       6.784  14.918  17.830  0.00  0.00    +0.000 C 
BRANCH  34  35
ATOM     35  C   UNL     1       7.805  14.327  18.758  0.00  0.00    +0.000 C 
ATOM     36  C   UNL     1       9.254  14.647  18.490  0.00  0.00    +0.000 C 
ATOM     37  C   UNL     1       8.585  15.187  19.721  0.00  0.00    +0.000 C 
ENDBRANCH  34  35
ENDBRANCH  33  34
ENDBRANCH  11  33
TORSDOF 6
ENDMDL
