MODEL 1
REMARK VINA RESULT:      -8.0      0.000      0.000
REMARK  Name = 
REMARK  6 active torsions:
REMARK  status: ('A' for Active; 'I' for Inactive)
REMARK    1  A    between atoms: C_1  and  C_2
REMARK    2  A    between atoms: C_2  and  C_15
REMARK    3  A    between atoms: N_3  and  N_4
REMARK    4  A    between atoms: N_4  and  S_5
REMARK    5  A    between atoms: S_5  and  C_8
REMARK    6  A    between atoms: C_18  and  C_19
REMARK                            x       y       z     vdW  Elec       q    Type
REMARK                         _______ _______ _______ _____ _____    ______ ____
ROOT
ATOM      1  N   UNL     1       4.820   3.484  17.585  0.00  0.00    +0.000 N 
ATOM      2  H   UNL     1       5.450   3.638  18.379  0.00  0.00    +0.000 HD
ENDROOT
BRANCH   1   5
ATOM      3  C   UNL     1       6.639   4.664  14.548  0.00  0.00    +0.000 C 
ATOM      4  C   UNL     1       6.199   4.518  15.990  0.00  0.00    +0.000 C 
ATOM      5  N   UNL     1       5.258   3.647  16.229  0.00  0.00    +0.000 NA
BRANCH   4   6
ATOM      6  C   UNL     1       6.878   5.358  16.968  0.00  0.00    +0.000 A 
ATOM      7  C   UNL     1       7.468   5.068  18.188  0.00  0.00    +0.000 A 
ATOM      8  C   UNL     1       7.966   6.286  18.713  0.00  0.00    +0.000 A 
ATOM      9  C   UNL     1       7.661   7.257  17.788  0.00  0.00    +0.000 A 
ATOM     10  C   UNL     1       7.896   8.713  17.718  0.00  0.00    +0.000 C 
ATOM     11  O   UNL     1       7.004   6.705  16.734  0.00  0.00    +0.000 OA
ENDBRANCH   4   6
ENDBRANCH   1   5
BRANCH   1  12
ATOM     12  S   UNL     1       3.216   3.151  17.976  0.00  0.00    +0.000 S 
ATOM     13  O   UNL     1       2.477   3.148  16.727  0.00  0.00    +0.000 OA
ATOM     14  O   UNL     1       3.159   2.020  18.879  0.00  0.00    +0.000 OA
BRANCH  12  15
ATOM     15  C   UNL     1       2.733   4.607  18.877  0.00  0.00    +0.000 A 
ATOM     16  C   UNL     1       2.962   5.879  18.338  0.00  0.00    +0.000 A 
ATOM     17  C   UNL     1       2.515   7.008  19.030  0.00  0.00    +0.000 A 
ATOM     18  C   UNL     1       1.837   6.858  20.241  0.00  0.00    +0.000 A 
ATOM     19 BR   UNL     1       1.222   8.386  21.168  0.00  0.00    +0.000 Br
ATOM     20  C   UNL     1       1.599   5.589  20.770  0.00  0.00    +0.000 A 
ATOM     21  C   UNL     1       2.045   4.459  20.086  0.00  0.00    +0.000 A 
ENDBRANCH  12  15
ENDBRANCH   1  12
TORSDOF 4
ENDMDL
MODEL 2
REMARK VINA RESULT:      -7.8      1.555      2.674
REMARK  Name = 
REMARK  6 active torsions:
REMARK  status: ('A' for Active; 'I' for Inactive)
REMARK    1  A    between atoms: C_1  and  C_2
REMARK    2  A    between atoms: C_2  and  C_15
REMARK    3  A    between atoms: N_3  and  N_4
REMARK    4  A    between atoms: N_4  and  S_5
REMARK    5  A    between atoms: S_5  and  C_8
REMARK    6  A    between atoms: C_18  and  C_19
REMARK                            x       y       z     vdW  Elec       q    Type
REMARK                         _______ _______ _______ _____ _____    ______ ____
ROOT
ATOM      1  N   UNL     1       4.349   2.722  18.225  0.00  0.00    +0.000 N 
ATOM      2  H   UNL     1       4.751   1.963  17.665  0.00  0.00    +0.000 HD
ENDROOT
BRANCH   1   5
ATOM      3  C   UNL     1       6.631   5.441  19.376  0.00  0.00    +0.000 C 
ATOM      4  C   UNL     1       5.780   4.567  18.479  0.00  0.00    +0.000 C 
ATOM      5  N   UNL     1       5.164   3.568  19.048  0.00  0.00    +0.000 NA
BRANCH   4   6
ATOM      6  C   UNL     1       5.726   4.934  17.070  0.00  0.00    +0.000 A 
ATOM      7  C   UNL     1       5.415   6.126  16.435  0.00  0.00    +0.000 A 
ATOM      8  C   UNL     1       5.517   5.897  15.040  0.00  0.00    +0.000 A 
ATOM      9  C   UNL     1       5.889   4.581  14.892  0.00  0.00    +0.000 A 
ATOM     10  C   UNL     1       6.164   3.721  13.724  0.00  0.00    +0.000 C 
ATOM     11  O   UNL     1       6.016   3.995  16.112  0.00  0.00    +0.000 OA
ENDBRANCH   4   6
ENDBRANCH   1   5
BRANCH   1  12
ATOM     12  S   UNL     1       2.669   2.831  18.214  0.00  0.00    +0.000 S 
ATOM     13  O   UNL     1       2.272   2.963  16.824  0.00  0.00    +0.000 OA
ATOM     14  O   UNL     1       2.106   1.795  19.054  0.00  0.00    +0.000 OA
BRANCH  12  15
ATOM     15  C   UNL     1       2.383   4.401  19.000  0.00  0.00    +0.000 A 
ATOM     16  C   UNL     1       2.417   5.583  18.250  0.00  0.00    +0.000 A 
ATOM     17  C   UNL     1       2.124   6.800  18.872  0.00  0.00    +0.000 A 
ATOM     18  C   UNL     1       1.790   6.825  20.227  0.00  0.00    +0.000 A 
ATOM     19 BR   UNL     1       1.381   8.471  21.063  0.00  0.00    +0.000 Br
ATOM     20  C   UNL     1       1.744   5.645  20.970  0.00  0.00    +0.000 A 
ATOM     21  C   UNL     1       2.039   4.428  20.355  0.00  0.00    +0.000 A 
ENDBRANCH  12  15
ENDBRANCH   1  12
TORSDOF 4
ENDMDL
MODEL 3
REMARK VINA RESULT:      -7.7      1.512      2.925
REMARK  Name = 
REMARK  6 active torsions:
REMARK  status: ('A' for Active; 'I' for Inactive)
REMARK    1  A    between atoms: C_1  and  C_2
REMARK    2  A    between atoms: C_2  and  C_15
REMARK    3  A    between atoms: N_3  and  N_4
REMARK    4  A    between atoms: N_4  and  S_5
REMARK    5  A    between atoms: S_5  and  C_8
REMARK    6  A    between atoms: C_18  and  C_19
REMARK                            x       y       z     vdW  Elec       q    Type
REMARK                         _______ _______ _______ _____ _____    ______ ____
ROOT
ATOM      1  N   UNL     1       4.869   3.160  18.604  0.00  0.00    +0.000 N 
ATOM      2  H   UNL     1       5.047   2.588  17.773  0.00  0.00    +0.000 HD
ENDROOT
BRANCH   1   5
ATOM      3  C   UNL     1       7.508   5.756  19.079  0.00  0.00    +0.000 C 
ATOM      4  C   UNL     1       6.439   4.898  18.434  0.00  0.00    +0.000 C 
ATOM      5  N   UNL     1       5.885   3.987  19.186  0.00  0.00    +0.000 NA
BRANCH   4   6
ATOM      6  C   UNL     1       6.128   5.182  17.039  0.00  0.00    +0.000 A 
ATOM      7  C   UNL     1       5.627   6.313  16.414  0.00  0.00    +0.000 A 
ATOM      8  C   UNL     1       5.518   6.015  15.033  0.00  0.00    +0.000 A 
ATOM      9  C   UNL     1       5.961   4.721  14.882  0.00  0.00    +0.000 A 
ATOM     10  C   UNL     1       6.107   3.819  13.723  0.00  0.00    +0.000 C 
ATOM     11  O   UNL     1       6.330   4.214  16.088  0.00  0.00    +0.000 OA
ENDBRANCH   4   6
ENDBRANCH   1   5
BRANCH   1  12
ATOM     12  S   UNL     1       3.352   2.972  19.311  0.00  0.00    +0.000 S 
ATOM     13  O   UNL     1       2.540   2.236  18.360  0.00  0.00    +0.000 OA
ATOM     14  O   UNL     1       3.502   2.513  20.675  0.00  0.00    +0.000 OA
BRANCH  12  15
ATOM     15  C   UNL     1       2.740   4.642  19.351  0.00  0.00    +0.000 A 
ATOM     16  C   UNL     1       2.339   5.218  20.562  0.00  0.00    +0.000 A 
ATOM     17  C   UNL     1       1.924   6.553  20.585  0.00  0.00    +0.000 A 
ATOM     18  C   UNL     1       1.925   7.300  19.405  0.00  0.00    +0.000 A 
ATOM     19 BR   UNL     1       1.376   9.109  19.440  0.00  0.00    +0.000 Br
ATOM     20  C   UNL     1       2.336   6.729  18.201  0.00  0.00    +0.000 A 
ATOM     21  C   UNL     1       2.748   5.396  18.173  0.00  0.00    +0.000 A 
ENDBRANCH  12  15
ENDBRANCH   1  12
TORSDOF 4
ENDMDL
MODEL 4
REMARK VINA RESULT:      -7.6      3.514      6.494
REMARK  Name = 
REMARK  6 active torsions:
REMARK  status: ('A' for Active; 'I' for Inactive)
REMARK    1  A    between atoms: C_1  and  C_2
REMARK    2  A    between atoms: C_2  and  C_15
REMARK    3  A    between atoms: N_3  and  N_4
REMARK    4  A    between atoms: N_4  and  S_5
REMARK    5  A    between atoms: S_5  and  C_8
REMARK    6  A    between atoms: C_18  and  C_19
REMARK                            x       y       z     vdW  Elec       q    Type
REMARK                         _______ _______ _______ _____ _____    ______ ____
ROOT
ATOM      1  N   UNL     1       5.335   5.663  18.519  0.00  0.00    +0.000 N 
ATOM      2  H   UNL     1       4.997   4.868  19.071  0.00  0.00    +0.000 HD
ENDROOT
BRANCH   1   5
ATOM      3  C   UNL     1       2.349   7.812  17.891  0.00  0.00    +0.000 C 
ATOM      4  C   UNL     1       3.205   6.603  18.209  0.00  0.00    +0.000 C 
ATOM      5  N   UNL     1       4.497   6.788  18.220  0.00  0.00    +0.000 NA
BRANCH   4   6
ATOM      6  C   UNL     1       2.501   5.357  18.479  0.00  0.00    +0.000 A 
ATOM      7  C   UNL     1       1.891   4.438  17.640  0.00  0.00    +0.000 A 
ATOM      8  C   UNL     1       1.352   3.415  18.460  0.00  0.00    +0.000 A 
ATOM      9  C   UNL     1       1.664   3.757  19.756  0.00  0.00    +0.000 A 
ATOM     10  C   UNL     1       1.406   3.132  21.069  0.00  0.00    +0.000 C 
ATOM     11  O   UNL     1       2.355   4.927  19.774  0.00  0.00    +0.000 OA
ENDBRANCH   4   6
ENDBRANCH   1   5
BRANCH   1  12
ATOM     12  S   UNL     1       6.887   5.507  17.886  0.00  0.00    +0.000 S 
ATOM     13  O   UNL     1       7.390   6.854  17.686  0.00  0.00    +0.000 OA
ATOM     14  O   UNL     1       7.635   4.539  18.661  0.00  0.00    +0.000 OA
BRANCH  12  15
ATOM     15  C   UNL     1       6.576   4.812  16.278  0.00  0.00    +0.000 A 
ATOM     16  C   UNL     1       5.456   4.000  16.065  0.00  0.00    +0.000 A 
ATOM     17  C   UNL     1       5.191   3.518  14.780  0.00  0.00    +0.000 A 
ATOM     18  C   UNL     1       6.038   3.858  13.723  0.00  0.00    +0.000 A 
ATOM     19 BR   UNL     1       5.670   3.215  11.983  0.00  0.00    +0.000 Br
ATOM     20  C   UNL     1       7.147   4.677  13.935  0.00  0.00    +0.000 A 
ATOM     21  C   UNL     1       7.417   5.158  15.216  0.00  0.00    +0.000 A 
ENDBRANCH  12  15
ENDBRANCH   1  12
TORSDOF 4
ENDMDL
MODEL 5
REMARK VINA RESULT:      -7.6      1.959      2.278
REMARK  Name = 
REMARK  6 active torsions:
REMARK  status: ('A' for Active; 'I' for Inactive)
REMARK    1  A    between atoms: C_1  and  C_2
REMARK    2  A    between atoms: C_2  and  C_15
REMARK    3  A    between atoms: N_3  and  N_4
REMARK    4  A    between atoms: N_4  and  S_5
REMARK    5  A    between atoms: S_5  and  C_8
REMARK    6  A    between atoms: C_18  and  C_19
REMARK                            x       y       z     vdW  Elec       q    Type
REMARK                         _______ _______ _______ _____ _____    ______ ____
ROOT
ATOM      1  N   UNL     1       3.977   6.224  17.146  0.00  0.00    +0.000 N 
ATOM      2  H   UNL     1       3.894   7.200  16.845  0.00  0.00    +0.000 HD
ENDROOT
BRANCH   1   5
ATOM      3  C   UNL     1       6.580   4.080  15.549  0.00  0.00    +0.000 C 
ATOM      4  C   UNL     1       5.925   5.136  16.416  0.00  0.00    +0.000 C 
ATOM      5  N   UNL     1       4.627   5.234  16.337  0.00  0.00    +0.000 NA
BRANCH   4   6
ATOM      6  C   UNL     1       6.810   5.930  17.258  0.00  0.00    +0.000 A 
ATOM      7  C   UNL     1       7.586   5.597  18.357  0.00  0.00    +0.000 A 
ATOM      8  C   UNL     1       8.237   6.782  18.784  0.00  0.00    +0.000 A 
ATOM      9  C   UNL     1       7.831   7.776  17.924  0.00  0.00    +0.000 A 
ATOM     10  C   UNL     1       8.131   9.216  17.811  0.00  0.00    +0.000 C 
ATOM     11  O   UNL     1       6.970   7.268  17.002  0.00  0.00    +0.000 OA
ENDBRANCH   4   6
ENDBRANCH   1   5
BRANCH   1  12
ATOM     12  S   UNL     1       3.196   5.833  18.587  0.00  0.00    +0.000 S 
ATOM     13  O   UNL     1       2.184   4.847  18.256  0.00  0.00    +0.000 OA
ATOM     14  O   UNL     1       4.179   5.575  19.619  0.00  0.00    +0.000 OA
BRANCH  12  15
ATOM     15  C   UNL     1       2.354   7.347  18.988  0.00  0.00    +0.000 A 
ATOM     16  C   UNL     1       2.102   8.300  17.993  0.00  0.00    +0.000 A 
ATOM     17  C   UNL     1       1.380   9.453  18.313  0.00  0.00    +0.000 A 
ATOM     18  C   UNL     1       0.908   9.638  19.614  0.00  0.00    +0.000 A 
ATOM     19 BR   UNL     1      -0.080  11.193  20.042  0.00  0.00    +0.000 Br
ATOM     20  C   UNL     1       1.149   8.683  20.601  0.00  0.00    +0.000 A 
ATOM     21  C   UNL     1       1.872   7.532  20.288  0.00  0.00    +0.000 A 
ENDBRANCH  12  15
ENDBRANCH   1  12
TORSDOF 4
ENDMDL
MODEL 6
REMARK VINA RESULT:      -7.6      0.781      1.672
REMARK  Name = 
REMARK  6 active torsions:
REMARK  status: ('A' for Active; 'I' for Inactive)
REMARK    1  A    between atoms: C_1  and  C_2
REMARK    2  A    between atoms: C_2  and  C_15
REMARK    3  A    between atoms: N_3  and  N_4
REMARK    4  A    between atoms: N_4  and  S_5
REMARK    5  A    between atoms: S_5  and  C_8
REMARK    6  A    between atoms: C_18  and  C_19
REMARK                            x       y       z     vdW  Elec       q    Type
REMARK                         _______ _______ _______ _____ _____    ______ ____
ROOT
ATOM      1  N   UNL     1       4.684   3.357  17.696  0.00  0.00    +0.000 N 
ATOM      2  H   UNL     1       5.294   3.552  18.496  0.00  0.00    +0.000 HD
ENDROOT
BRANCH   1   5
ATOM      3  C   UNL     1       6.557   4.421  14.649  0.00  0.00    +0.000 C 
ATOM      4  C   UNL     1       6.085   4.336  16.086  0.00  0.00    +0.000 C 
ATOM      5  N   UNL     1       5.151   3.463  16.344  0.00  0.00    +0.000 NA
BRANCH   4   6
ATOM      6  C   UNL     1       6.729   5.231  17.038  0.00  0.00    +0.000 A 
ATOM      7  C   UNL     1       6.981   6.593  17.004  0.00  0.00    +0.000 A 
ATOM      8  C   UNL     1       7.649   6.927  18.208  0.00  0.00    +0.000 A 
ATOM      9  C   UNL     1       7.769   5.755  18.919  0.00  0.00    +0.000 A 
ATOM     10  C   UNL     1       8.352   5.409  20.230  0.00  0.00    +0.000 C 
ATOM     11  O   UNL     1       7.217   4.729  18.219  0.00  0.00    +0.000 OA
ENDBRANCH   4   6
ENDBRANCH   1   5
BRANCH   1  12
ATOM     12  S   UNL     1       3.075   3.027  18.066  0.00  0.00    +0.000 S 
ATOM     13  O   UNL     1       2.366   2.952  16.803  0.00  0.00    +0.000 OA
ATOM     14  O   UNL     1       3.007   1.943  19.024  0.00  0.00    +0.000 OA
BRANCH  12  15
ATOM     15  C   UNL     1       2.555   4.521  18.879  0.00  0.00    +0.000 A 
ATOM     16  C   UNL     1       1.792   4.458  20.052  0.00  0.00    +0.000 A 
ATOM     17  C   UNL     1       1.450   5.641  20.713  0.00  0.00    +0.000 A 
ATOM     18  C   UNL     1       1.880   6.869  20.207  0.00  0.00    +0.000 A 
ATOM     19 BR   UNL     1       1.427   8.467  21.110  0.00  0.00    +0.000 Br
ATOM     20  C   UNL     1       2.651   6.930  19.046  0.00  0.00    +0.000 A 
ATOM     21  C   UNL     1       2.992   5.752  18.380  0.00  0.00    +0.000 A 
ENDBRANCH  12  15
ENDBRANCH   1  12
TORSDOF 4
ENDMDL
MODEL 7
REMARK VINA RESULT:      -7.6      3.519      6.391
REMARK  Name = 
REMARK  6 active torsions:
REMARK  status: ('A' for Active; 'I' for Inactive)
REMARK    1  A    between atoms: C_1  and  C_2
REMARK    2  A    between atoms: C_2  and  C_15
REMARK    3  A    between atoms: N_3  and  N_4
REMARK    4  A    between atoms: N_4  and  S_5
REMARK    5  A    between atoms: S_5  and  C_8
REMARK    6  A    between atoms: C_18  and  C_19
REMARK                            x       y       z     vdW  Elec       q    Type
REMARK                         _______ _______ _______ _____ _____    ______ ____
ROOT
ATOM      1  N   UNL     1       5.495   5.684  18.537  0.00  0.00    +0.000 N 
ATOM      2  H   UNL     1       5.198   4.909  19.139  0.00  0.00    +0.000 HD
ENDROOT
BRANCH   1   5
ATOM      3  C   UNL     1       2.452   7.766  17.963  0.00  0.00    +0.000 C 
ATOM      4  C   UNL     1       3.340   6.581  18.284  0.00  0.00    +0.000 C 
ATOM      5  N   UNL     1       4.628   6.786  18.237  0.00  0.00    +0.000 NA
BRANCH   4   6
ATOM      6  C   UNL     1       2.667   5.334  18.621  0.00  0.00    +0.000 A 
ATOM      7  C   UNL     1       1.896   4.465  17.866  0.00  0.00    +0.000 A 
ATOM      8  C   UNL     1       1.491   3.411  18.723  0.00  0.00    +0.000 A 
ATOM      9  C   UNL     1       2.038   3.686  19.955  0.00  0.00    +0.000 A 
ATOM     10  C   UNL     1       2.006   3.002  21.264  0.00  0.00    +0.000 C 
ATOM     11  O   UNL     1       2.748   4.844  19.900  0.00  0.00    +0.000 OA
ENDBRANCH   4   6
ENDBRANCH   1   5
BRANCH   1  12
ATOM     12  S   UNL     1       7.014   5.520  17.828  0.00  0.00    +0.000 S 
ATOM     13  O   UNL     1       7.554   6.859  17.689  0.00  0.00    +0.000 OA
ATOM     14  O   UNL     1       7.760   4.482  18.509  0.00  0.00    +0.000 OA
BRANCH  12  15
ATOM     15  C   UNL     1       6.613   4.936  16.196  0.00  0.00    +0.000 A 
ATOM     16  C   UNL     1       7.441   5.247  15.112  0.00  0.00    +0.000 A 
ATOM     17  C   UNL     1       7.146   4.724  13.850  0.00  0.00    +0.000 A 
ATOM     18  C   UNL     1       6.039   3.890  13.685  0.00  0.00    +0.000 A 
ATOM     19 BR   UNL     1       5.649   3.172  11.980  0.00  0.00    +0.000 Br
ATOM     20  C   UNL     1       5.221   3.570  14.769  0.00  0.00    +0.000 A 
ATOM     21  C   UNL     1       5.509   4.092  16.030  0.00  0.00    +0.000 A 
ENDBRANCH  12  15
ENDBRANCH   1  12
TORSDOF 4
ENDMDL
MODEL 8
REMARK VINA RESULT:      -7.6      1.367      2.741
REMARK  Name = 
REMARK  6 active torsions:
REMARK  status: ('A' for Active; 'I' for Inactive)
REMARK    1  A    between atoms: C_1  and  C_2
REMARK    2  A    between atoms: C_2  and  C_15
REMARK    3  A    between atoms: N_3  and  N_4
REMARK    4  A    between atoms: N_4  and  S_5
REMARK    5  A    between atoms: S_5  and  C_8
REMARK    6  A    between atoms: C_18  and  C_19
REMARK                            x       y       z     vdW  Elec       q    Type
REMARK                         _______ _______ _______ _____ _____    ______ ____
ROOT
ATOM      1  N   UNL     1       5.653   3.540  18.543  0.00  0.00    +0.000 N 
ATOM      2  H   UNL     1       6.143   2.699  18.222  0.00  0.00    +0.000 HD
ENDROOT
BRANCH   1   5
ATOM      3  C   UNL     1       7.514   6.709  17.894  0.00  0.00    +0.000 C 
ATOM      4  C   UNL     1       6.802   5.391  17.667  0.00  0.00    +0.000 C 
ATOM      5  N   UNL     1       6.333   4.790  18.725  0.00  0.00    +0.000 NA
BRANCH   4   6
ATOM      6  C   UNL     1       6.706   4.930  16.288  0.00  0.00    +0.000 A 
ATOM      7  C   UNL     1       5.923   3.955  15.690  0.00  0.00    +0.000 A 
ATOM      8  C   UNL     1       6.260   3.933  14.314  0.00  0.00    +0.000 A 
ATOM      9  C   UNL     1       7.226   4.896  14.139  0.00  0.00    +0.000 A 
ATOM     10  C   UNL     1       7.989   5.379  12.970  0.00  0.00    +0.000 C 
ATOM     11  O   UNL     1       7.500   5.501  15.325  0.00  0.00    +0.000 OA
ENDBRANCH   4   6
ENDBRANCH   1   5
BRANCH   1  12
ATOM     12  S   UNL     1       4.034   3.331  18.959  0.00  0.00    +0.000 S 
ATOM     13  O   UNL     1       3.420   2.589  17.873  0.00  0.00    +0.000 OA
ATOM     14  O   UNL     1       3.938   2.866  20.327  0.00  0.00    +0.000 OA
BRANCH  12  15
ATOM     15  C   UNL     1       3.404   4.993  18.891  0.00  0.00    +0.000 A 
ATOM     16  C   UNL     1       3.363   5.683  17.673  0.00  0.00    +0.000 A 
ATOM     17  C   UNL     1       2.803   6.963  17.627  0.00  0.00    +0.000 A 
ATOM     18  C   UNL     1       2.281   7.534  18.790  0.00  0.00    +0.000 A 
ATOM     19 BR   UNL     1       1.512   9.260  18.723  0.00  0.00    +0.000 Br
ATOM     20  C   UNL     1       2.312   6.841  19.999  0.00  0.00    +0.000 A 
ATOM     21  C   UNL     1       2.872   5.564  20.051  0.00  0.00    +0.000 A 
ENDBRANCH  12  15
ENDBRANCH   1  12
TORSDOF 4
ENDMDL
MODEL 9
REMARK VINA RESULT:      -7.5      1.370      2.867
REMARK  Name = 
REMARK  6 active torsions:
REMARK  status: ('A' for Active; 'I' for Inactive)
REMARK    1  A    between atoms: C_1  and  C_2
REMARK    2  A    between atoms: C_2  and  C_15
REMARK    3  A    between atoms: N_3  and  N_4
REMARK    4  A    between atoms: N_4  and  S_5
REMARK    5  A    between atoms: S_5  and  C_8
REMARK    6  A    between atoms: C_18  and  C_19
REMARK                            x       y       z     vdW  Elec       q    Type
REMARK                         _______ _______ _______ _____ _____    ______ ____
ROOT
ATOM      1  N   UNL     1       5.329   3.313  18.592  0.00  0.00    +0.000 N 
ATOM      2  H   UNL     1       5.705   2.513  18.072  0.00  0.00    +0.000 HD
ENDROOT
BRANCH   1   5
ATOM      3  C   UNL     1       7.522   6.312  18.248  0.00  0.00    +0.000 C 
ATOM      4  C   UNL     1       6.686   5.099  17.897  0.00  0.00    +0.000 C 
ATOM      5  N   UNL     1       6.127   4.465  18.892  0.00  0.00    +0.000 NA
BRANCH   4   6
ATOM      6  C   UNL     1       6.581   4.765  16.483  0.00  0.00    +0.000 A 
ATOM      7  C   UNL     1       5.744   3.900  15.795  0.00  0.00    +0.000 A 
ATOM      8  C   UNL     1       6.101   3.972  14.426  0.00  0.00    +0.000 A 
ATOM      9  C   UNL     1       7.133   4.879  14.344  0.00  0.00    +0.000 A 
ATOM     10  C   UNL     1       7.945   5.407  13.230  0.00  0.00    +0.000 C 
ATOM     11  O   UNL     1       7.427   5.360  15.581  0.00  0.00    +0.000 OA
ENDBRANCH   4   6
ENDBRANCH   1   5
BRANCH   1  12
ATOM     12  S   UNL     1       3.758   3.134  19.174  0.00  0.00    +0.000 S 
ATOM     13  O   UNL     1       3.054   2.303  18.215  0.00  0.00    +0.000 OA
ATOM     14  O   UNL     1       3.795   2.784  20.578  0.00  0.00    +0.000 OA
BRANCH  12  15
ATOM     15  C   UNL     1       3.107   4.783  19.029  0.00  0.00    +0.000 A 
ATOM     16  C   UNL     1       2.723   5.493  20.172  0.00  0.00    +0.000 A 
ATOM     17  C   UNL     1       2.277   6.811  20.045  0.00  0.00    +0.000 A 
ATOM     18  C   UNL     1       2.228   7.409  18.784  0.00  0.00    +0.000 A 
ATOM     19 BR   UNL     1       1.636   9.197  18.615  0.00  0.00    +0.000 Br
ATOM     20  C   UNL     1       2.622   6.704  17.647  0.00  0.00    +0.000 A 
ATOM     21  C   UNL     1       3.065   5.387  17.768  0.00  0.00    +0.000 A 
ENDBRANCH  12  15
ENDBRANCH   1  12
TORSDOF 4
ENDMDL
