MODEL 1
REMARK VINA RESULT:      -7.4      0.000      0.000
REMARK  Name = 
REMARK  10 active torsions:
REMARK  status: ('A' for Active; 'I' for Inactive)
REMARK    1  A    between atoms: C_1  and  O_2
REMARK    2  A    between atoms: O_2  and  C_3
REMARK    3  A    between atoms: C_7  and  O_8
REMARK    4  A    between atoms: O_8  and  C_9
REMARK    5  A    between atoms: C_10  and  O_11
REMARK    6  A    between atoms: O_11  and  C_12
REMARK    7  A    between atoms: C_12  and  C_13
REMARK    8  A    between atoms: C_13  and  C_14
REMARK    9  A    between atoms: C_14  and  C_15
REMARK   10  A    between atoms: C_15  and  N_16
REMARK                            x       y       z     vdW  Elec       q    Type
REMARK                         _______ _______ _______ _____ _____    ______ ____
ROOT
ATOM      1  C   UNL     1       1.842   3.978  21.433  0.00  0.00    +0.000 C 
ENDROOT
BRANCH   1   2
ATOM      2  C   UNL     1       1.573   4.999  20.320  0.00  0.00    +0.000 C 
BRANCH   2   3
ATOM      3  O   UNL     1       2.412   6.141  20.485  0.00  0.00    +0.000 OA
BRANCH   3   9
ATOM      4  C   UNL     1       2.520   7.593  18.463  0.00  0.00    +0.000 A 
ATOM      5  C   UNL     1       2.067   8.760  17.823  0.00  0.00    +0.000 A 
ATOM      6  C   UNL     1       1.321   9.704  18.509  0.00  0.00    +0.000 A 
ATOM      7  C   UNL     1       0.991   9.465  19.835  0.00  0.00    +0.000 A 
ATOM      8  C   UNL     1       1.364   8.275  20.481  0.00  0.00    +0.000 A 
ATOM      9  C   UNL     1       2.121   7.297  19.793  0.00  0.00    +0.000 A 
BRANCH   4  11
ATOM     10  C   UNL     1       4.330   7.316  16.953  0.00  0.00    +0.000 C 
ATOM     11  O   UNL     1       3.309   6.720  17.758  0.00  0.00    +0.000 OA
ENDBRANCH   4  11
BRANCH   8  12
ATOM     12  O   UNL     1       0.904   8.267  21.775  0.00  0.00    +0.000 OA
ATOM     13  C   UNL     1      -0.418   8.693  22.063  0.00  0.00    +0.000 C 
ENDBRANCH   8  12
ENDBRANCH   3   9
ENDBRANCH   2   3
ENDBRANCH   1   2
BRANCH   1  14
ATOM     14  C   UNL     1       2.700   2.789  20.965  0.00  0.00    +0.000 C 
BRANCH  14  15
ATOM     15  C   UNL     1       2.630   2.574  19.447  0.00  0.00    +0.000 C 
BRANCH  15  16
ATOM     16  N   UNL     1       3.788   3.099  18.734  0.00  0.00    +0.000 N 
ATOM     17  C   UNL     1       4.894   3.506  19.446  0.00  0.00    +0.000 A 
ATOM     18  N   UNL     1       5.890   4.169  18.962  0.00  0.00    +0.000 NA
ATOM     19  C   UNL     1       5.931   4.336  17.574  0.00  0.00    +0.000 A 
ATOM     20  C   UNL     1       7.097   4.831  16.988  0.00  0.00    +0.000 A 
ATOM     21  C   UNL     1       7.291   4.722  15.609  0.00  0.00    +0.000 A 
ATOM     22  C   UNL     1       6.300   4.159  14.802  0.00  0.00    +0.000 A 
ATOM     23  C   UNL     1       5.079   3.782  15.358  0.00  0.00    +0.000 A 
ATOM     24  C   UNL     1       4.903   3.883  16.741  0.00  0.00    +0.000 A 
ATOM     25  C   UNL     1       3.665   3.417  17.386  0.00  0.00    +0.000 A 
ATOM     26  O   UNL     1       2.615   3.349  16.750  0.00  0.00    +0.000 OA
ENDBRANCH  15  16
ENDBRANCH  14  15
ENDBRANCH   1  14
TORSDOF 8
ENDMDL
MODEL 2
REMARK VINA RESULT:      -7.1      6.434      7.770
REMARK  Name = 
REMARK  10 active torsions:
REMARK  status: ('A' for Active; 'I' for Inactive)
REMARK    1  A    between atoms: C_1  and  O_2
REMARK    2  A    between atoms: O_2  and  C_3
REMARK    3  A    between atoms: C_7  and  O_8
REMARK    4  A    between atoms: O_8  and  C_9
REMARK    5  A    between atoms: C_10  and  O_11
REMARK    6  A    between atoms: O_11  and  C_12
REMARK    7  A    between atoms: C_12  and  C_13
REMARK    8  A    between atoms: C_13  and  C_14
REMARK    9  A    between atoms: C_14  and  C_15
REMARK   10  A    between atoms: C_15  and  N_16
REMARK                            x       y       z     vdW  Elec       q    Type
REMARK                         _______ _______ _______ _____ _____    ______ ____
ROOT
ATOM      1  C   UNL     1       8.590   9.227  18.803  0.00  0.00    +0.000 C 
ENDROOT
BRANCH   1   2
ATOM      2  C   UNL     1       9.203  10.543  18.310  0.00  0.00    +0.000 C 
BRANCH   2   3
ATOM      3  O   UNL     1      10.377  10.852  19.058  0.00  0.00    +0.000 OA
BRANCH   3   9
ATOM      4  C   UNL     1      11.269  13.175  19.188  0.00  0.00    +0.000 A 
ATOM      5  C   UNL     1      11.214  14.427  19.828  0.00  0.00    +0.000 A 
ATOM      6  C   UNL     1      10.494  14.596  20.998  0.00  0.00    +0.000 A 
ATOM      7  C   UNL     1       9.791  13.518  21.516  0.00  0.00    +0.000 A 
ATOM      8  C   UNL     1       9.763  12.276  20.860  0.00  0.00    +0.000 A 
ATOM      9  C   UNL     1      10.489  12.087  19.660  0.00  0.00    +0.000 A 
BRANCH   4  11
ATOM     10  C   UNL     1      11.518  13.624  16.871  0.00  0.00    +0.000 C 
ATOM     11  O   UNL     1      12.048  13.044  18.066  0.00  0.00    +0.000 OA
ENDBRANCH   4  11
BRANCH   8  12
ATOM     12  O   UNL     1       8.985  11.384  21.556  0.00  0.00    +0.000 OA
ATOM     13  C   UNL     1       8.238  11.816  22.682  0.00  0.00    +0.000 C 
ENDBRANCH   8  12
ENDBRANCH   3   9
ENDBRANCH   2   3
ENDBRANCH   1   2
BRANCH   1  14
ATOM     14  C   UNL     1       7.920   8.415  17.680  0.00  0.00    +0.000 C 
BRANCH  14  15
ATOM     15  C   UNL     1       7.849   6.917  17.998  0.00  0.00    +0.000 C 
BRANCH  15  16
ATOM     16  N   UNL     1       6.493   6.382  17.969  0.00  0.00    +0.000 N 
ATOM     17  C   UNL     1       5.543   6.991  17.181  0.00  0.00    +0.000 A 
ATOM     18  N   UNL     1       4.275   6.749  17.218  0.00  0.00    +0.000 NA
ATOM     19  C   UNL     1       3.856   5.664  17.995  0.00  0.00    +0.000 A 
ATOM     20  C   UNL     1       2.539   5.219  17.877  0.00  0.00    +0.000 A 
ATOM     21  C   UNL     1       2.170   3.972  18.389  0.00  0.00    +0.000 A 
ATOM     22  C   UNL     1       3.106   3.183  19.060  0.00  0.00    +0.000 A 
ATOM     23  C   UNL     1       4.389   3.673  19.298  0.00  0.00    +0.000 A 
ATOM     24  C   UNL     1       4.750   4.916  18.769  0.00  0.00    +0.000 A 
ATOM     25  C   UNL     1       6.117   5.438  18.919  0.00  0.00    +0.000 A 
ATOM     26  O   UNL     1       6.835   5.058  19.841  0.00  0.00    +0.000 OA
ENDBRANCH  15  16
ENDBRANCH  14  15
ENDBRANCH   1  14
TORSDOF 8
ENDMDL
MODEL 3
REMARK VINA RESULT:      -6.9      0.799      2.674
REMARK  Name = 
REMARK  10 active torsions:
REMARK  status: ('A' for Active; 'I' for Inactive)
REMARK    1  A    between atoms: C_1  and  O_2
REMARK    2  A    between atoms: O_2  and  C_3
REMARK    3  A    between atoms: C_7  and  O_8
REMARK    4  A    between atoms: O_8  and  C_9
REMARK    5  A    between atoms: C_10  and  O_11
REMARK    6  A    between atoms: O_11  and  C_12
REMARK    7  A    between atoms: C_12  and  C_13
REMARK    8  A    between atoms: C_13  and  C_14
REMARK    9  A    between atoms: C_14  and  C_15
REMARK   10  A    between atoms: C_15  and  N_16
REMARK                            x       y       z     vdW  Elec       q    Type
REMARK                         _______ _______ _______ _____ _____    ______ ____
ROOT
ATOM      1  C   UNL     1       2.128   4.541  20.664  0.00  0.00    +0.000 C 
ENDROOT
BRANCH   1   2
ATOM      2  C   UNL     1       1.310   5.835  20.733  0.00  0.00    +0.000 C 
BRANCH   2   3
ATOM      3  O   UNL     1       2.170   6.969  20.632  0.00  0.00    +0.000 OA
BRANCH   3   9
ATOM      4  C   UNL     1       1.053   9.173  20.951  0.00  0.00    +0.000 A 
ATOM      5  C   UNL     1       0.675  10.400  20.375  0.00  0.00    +0.000 A 
ATOM      6  C   UNL     1       0.779  10.606  19.010  0.00  0.00    +0.000 A 
ATOM      7  C   UNL     1       1.299   9.595  18.216  0.00  0.00    +0.000 A 
ATOM      8  C   UNL     1       1.756   8.387  18.770  0.00  0.00    +0.000 A 
ATOM      9  C   UNL     1       1.663   8.162  20.164  0.00  0.00    +0.000 A 
BRANCH   4  11
ATOM     10  C   UNL     1      -0.366   9.479  22.829  0.00  0.00    +0.000 C 
ATOM     11  O   UNL     1       0.872   8.997  22.301  0.00  0.00    +0.000 OA
ENDBRANCH   4  11
BRANCH   8  12
ATOM     12  O   UNL     1       2.242   7.562  17.786  0.00  0.00    +0.000 OA
ATOM     13  C   UNL     1       3.631   7.283  17.711  0.00  0.00    +0.000 C 
ENDBRANCH   8  12
ENDBRANCH   3   9
ENDBRANCH   2   3
ENDBRANCH   1   2
BRANCH   1  14
ATOM     14  C   UNL     1       1.391   3.400  19.938  0.00  0.00    +0.000 C 
BRANCH  14  15
ATOM     15  C   UNL     1       2.352   2.355  19.357  0.00  0.00    +0.000 C 
BRANCH  15  16
ATOM     16  N   UNL     1       3.545   2.935  18.755  0.00  0.00    +0.000 N 
ATOM     17  C   UNL     1       4.628   3.235  19.552  0.00  0.00    +0.000 A 
ATOM     18  N   UNL     1       5.653   3.929  19.187  0.00  0.00    +0.000 NA
ATOM     19  C   UNL     1       5.753   4.254  17.830  0.00  0.00    +0.000 A 
ATOM     20  C   UNL     1       6.950   4.790  17.351  0.00  0.00    +0.000 A 
ATOM     21  C   UNL     1       7.197   4.838  15.978  0.00  0.00    +0.000 A 
ATOM     22  C   UNL     1       6.231   4.392  15.073  0.00  0.00    +0.000 A 
ATOM     23  C   UNL     1       4.983   3.978  15.534  0.00  0.00    +0.000 A 
ATOM     24  C   UNL     1       4.752   3.922  16.911  0.00  0.00    +0.000 A 
ATOM     25  C   UNL     1       3.482   3.410  17.449  0.00  0.00    +0.000 A 
ATOM     26  O   UNL     1       2.458   3.438  16.771  0.00  0.00    +0.000 OA
ENDBRANCH  15  16
ENDBRANCH  14  15
ENDBRANCH   1  14
TORSDOF 8
ENDMDL
MODEL 4
REMARK VINA RESULT:      -6.7      6.336      9.190
REMARK  Name = 
REMARK  10 active torsions:
REMARK  status: ('A' for Active; 'I' for Inactive)
REMARK    1  A    between atoms: C_1  and  O_2
REMARK    2  A    between atoms: O_2  and  C_3
REMARK    3  A    between atoms: C_7  and  O_8
REMARK    4  A    between atoms: O_8  and  C_9
REMARK    5  A    between atoms: C_10  and  O_11
REMARK    6  A    between atoms: O_11  and  C_12
REMARK    7  A    between atoms: C_12  and  C_13
REMARK    8  A    between atoms: C_13  and  C_14
REMARK    9  A    between atoms: C_14  and  C_15
REMARK   10  A    between atoms: C_15  and  N_16
REMARK                            x       y       z     vdW  Elec       q    Type
REMARK                         _______ _______ _______ _____ _____    ______ ____
ROOT
ATOM      1  C   UNL     1       7.824   7.838  17.307  0.00  0.00    +0.000 C 
ENDROOT
BRANCH   1   2
ATOM      2  C   UNL     1       7.761   6.766  18.401  0.00  0.00    +0.000 C 
BRANCH   2   3
ATOM      3  O   UNL     1       7.886   5.466  17.826  0.00  0.00    +0.000 OA
BRANCH   3   9
ATOM      4  C   UNL     1       5.668   4.331  17.857  0.00  0.00    +0.000 A 
ATOM      5  C   UNL     1       4.564   3.878  17.113  0.00  0.00    +0.000 A 
ATOM      6  C   UNL     1       4.597   3.862  15.729  0.00  0.00    +0.000 A 
ATOM      7  C   UNL     1       5.727   4.336  15.078  0.00  0.00    +0.000 A 
ATOM      8  C   UNL     1       6.816   4.865  15.790  0.00  0.00    +0.000 A 
ATOM      9  C   UNL     1       6.796   4.895  17.205  0.00  0.00    +0.000 A 
BRANCH   4  11
ATOM     10  C   UNL     1       4.618   3.391  19.766  0.00  0.00    +0.000 C 
ATOM     11  O   UNL     1       5.610   4.268  19.227  0.00  0.00    +0.000 OA
ENDBRANCH   4  11
BRANCH   8  12
ATOM     12  O   UNL     1       7.796   5.285  14.925  0.00  0.00    +0.000 OA
ATOM     13  C   UNL     1       7.596   5.193  13.524  0.00  0.00    +0.000 C 
ENDBRANCH   8  12
ENDBRANCH   3   9
ENDBRANCH   2   3
ENDBRANCH   1   2
BRANCH   1  14
ATOM     14  C   UNL     1       7.912   9.269  17.870  0.00  0.00    +0.000 C 
BRANCH  14  15
ATOM     15  C   UNL     1       8.950   9.397  18.992  0.00  0.00    +0.000 C 
BRANCH  15  16
ATOM     16  N   UNL     1       9.562  10.718  19.066  0.00  0.00    +0.000 N 
ATOM     17  C   UNL     1      10.260  11.202  17.982  0.00  0.00    +0.000 A 
ATOM     18  N   UNL     1      11.011  12.252  17.986  0.00  0.00    +0.000 NA
ATOM     19  C   UNL     1      10.976  13.055  19.130  0.00  0.00    +0.000 A 
ATOM     20  C   UNL     1      11.579  14.314  19.089  0.00  0.00    +0.000 A 
ATOM     21  C   UNL     1      11.306  15.256  20.084  0.00  0.00    +0.000 A 
ATOM     22  C   UNL     1      10.463  14.930  21.149  0.00  0.00    +0.000 A 
ATOM     23  C   UNL     1       9.962  13.636  21.270  0.00  0.00    +0.000 A 
ATOM     24  C   UNL     1      10.231  12.706  20.262  0.00  0.00    +0.000 A 
ATOM     25  C   UNL     1       9.653  11.354  20.300  0.00  0.00    +0.000 A 
ATOM     26  O   UNL     1       9.307  10.850  21.366  0.00  0.00    +0.000 OA
ENDBRANCH  15  16
ENDBRANCH  14  15
ENDBRANCH   1  14
TORSDOF 8
ENDMDL
MODEL 5
REMARK VINA RESULT:      -6.7      6.912      9.390
REMARK  Name = 
REMARK  10 active torsions:
REMARK  status: ('A' for Active; 'I' for Inactive)
REMARK    1  A    between atoms: C_1  and  O_2
REMARK    2  A    between atoms: O_2  and  C_3
REMARK    3  A    between atoms: C_7  and  O_8
REMARK    4  A    between atoms: O_8  and  C_9
REMARK    5  A    between atoms: C_10  and  O_11
REMARK    6  A    between atoms: O_11  and  C_12
REMARK    7  A    between atoms: C_12  and  C_13
REMARK    8  A    between atoms: C_13  and  C_14
REMARK    9  A    between atoms: C_14  and  C_15
REMARK   10  A    between atoms: C_15  and  N_16
REMARK                            x       y       z     vdW  Elec       q    Type
REMARK                         _______ _______ _______ _____ _____    ______ ____
ROOT
ATOM      1  C   UNL     1       8.430   8.599  18.413  0.00  0.00    +0.000 C 
ENDROOT
BRANCH   1   2
ATOM      2  C   UNL     1       7.443   7.835  17.522  0.00  0.00    +0.000 C 
BRANCH   2   3
ATOM      3  O   UNL     1       7.622   6.429  17.679  0.00  0.00    +0.000 OA
BRANCH   3   9
ATOM      4  C   UNL     1       6.773   5.042  15.791  0.00  0.00    +0.000 A 
ATOM      5  C   UNL     1       5.845   4.077  15.359  0.00  0.00    +0.000 A 
ATOM      6  C   UNL     1       4.783   3.702  16.165  0.00  0.00    +0.000 A 
ATOM      7  C   UNL     1       4.665   4.265  17.427  0.00  0.00    +0.000 A 
ATOM      8  C   UNL     1       5.617   5.174  17.917  0.00  0.00    +0.000 A 
ATOM      9  C   UNL     1       6.712   5.565  17.110  0.00  0.00    +0.000 A 
BRANCH   4  11
ATOM     10  C   UNL     1       7.528   5.174  13.545  0.00  0.00    +0.000 C 
ATOM     11  O   UNL     1       7.771   5.426  14.931  0.00  0.00    +0.000 OA
ENDBRANCH   4  11
BRANCH   8  12
ATOM     12  O   UNL     1       5.290   5.569  19.191  0.00  0.00    +0.000 OA
ATOM     13  C   UNL     1       3.981   5.352  19.691  0.00  0.00    +0.000 C 
ENDBRANCH   8  12
ENDBRANCH   3   9
ENDBRANCH   2   3
ENDBRANCH   1   2
BRANCH   1  14
ATOM     14  C   UNL     1       8.637  10.059  17.969  0.00  0.00    +0.000 C 
BRANCH  14  15
ATOM     15  C   UNL     1       9.389  10.891  19.016  0.00  0.00    +0.000 C 
BRANCH  15  16
ATOM     16  N   UNL     1       9.955  12.122  18.480  0.00  0.00    +0.000 N 
ATOM     17  C   UNL     1      11.095  12.063  17.711  0.00  0.00    +0.000 A 
ATOM     18  N   UNL     1      11.805  13.080  17.350  0.00  0.00    +0.000 NA
ATOM     19  C   UNL     1      11.281  14.349  17.613  0.00  0.00    +0.000 A 
ATOM     20  C   UNL     1      11.890  15.464  17.034  0.00  0.00    +0.000 A 
ATOM     21  C   UNL     1      11.229  16.694  17.017  0.00  0.00    +0.000 A 
ATOM     22  C   UNL     1       9.976  16.829  17.618  0.00  0.00    +0.000 A 
ATOM     23  C   UNL     1       9.418  15.757  18.313  0.00  0.00    +0.000 A 
ATOM     24  C   UNL     1      10.082  14.527  18.312  0.00  0.00    +0.000 A 
ATOM     25  C   UNL     1       9.492  13.344  18.957  0.00  0.00    +0.000 A 
ATOM     26  O   UNL     1       8.670  13.469  19.862  0.00  0.00    +0.000 OA
ENDBRANCH  15  16
ENDBRANCH  14  15
ENDBRANCH   1  14
TORSDOF 8
ENDMDL
MODEL 6
REMARK VINA RESULT:      -6.6      3.305      8.647
REMARK  Name = 
REMARK  10 active torsions:
REMARK  status: ('A' for Active; 'I' for Inactive)
REMARK    1  A    between atoms: C_1  and  O_2
REMARK    2  A    between atoms: O_2  and  C_3
REMARK    3  A    between atoms: C_7  and  O_8
REMARK    4  A    between atoms: O_8  and  C_9
REMARK    5  A    between atoms: C_10  and  O_11
REMARK    6  A    between atoms: O_11  and  C_12
REMARK    7  A    between atoms: C_12  and  C_13
REMARK    8  A    between atoms: C_13  and  C_14
REMARK    9  A    between atoms: C_14  and  C_15
REMARK   10  A    between atoms: C_15  and  N_16
REMARK                            x       y       z     vdW  Elec       q    Type
REMARK                         _______ _______ _______ _____ _____    ______ ____
ROOT
ATOM      1  C   UNL     1       2.840   7.962  17.840  0.00  0.00    +0.000 C 
ENDROOT
BRANCH   1   2
ATOM      2  C   UNL     1       2.825   6.711  18.727  0.00  0.00    +0.000 C 
BRANCH   2   3
ATOM      3  O   UNL     1       2.105   5.660  18.085  0.00  0.00    +0.000 OA
BRANCH   3   9
ATOM      4  C   UNL     1       2.066   3.390  19.111  0.00  0.00    +0.000 A 
ATOM      5  C   UNL     1       2.529   2.063  19.059  0.00  0.00    +0.000 A 
ATOM      6  C   UNL     1       3.556   1.702  18.204  0.00  0.00    +0.000 A 
ATOM      7  C   UNL     1       4.102   2.662  17.365  0.00  0.00    +0.000 A 
ATOM      8  C   UNL     1       3.609   3.978  17.338  0.00  0.00    +0.000 A 
ATOM      9  C   UNL     1       2.556   4.363  18.202  0.00  0.00    +0.000 A 
BRANCH   4  11
ATOM     10  C   UNL     1       1.184   3.058  21.290  0.00  0.00    +0.000 C 
ATOM     11  O   UNL     1       1.089   3.710  20.021  0.00  0.00    +0.000 OA
ENDBRANCH   4  11
BRANCH   8  12
ATOM     12  O   UNL     1       4.296   4.728  16.415  0.00  0.00    +0.000 OA
ATOM     13  C   UNL     1       5.592   5.218  16.717  0.00  0.00    +0.000 C 
ENDBRANCH   8  12
ENDBRANCH   3   9
ENDBRANCH   2   3
ENDBRANCH   1   2
BRANCH   1  14
ATOM     14  C   UNL     1       1.770   8.994  18.236  0.00  0.00    +0.000 C 
BRANCH  14  15
ATOM     15  C   UNL     1       1.385   8.905  19.718  0.00  0.00    +0.000 C 
BRANCH  15  16
ATOM     16  N   UNL     1       0.335   9.840  20.102  0.00  0.00    +0.000 N 
ATOM     17  C   UNL     1      -0.405  10.465  19.123  0.00  0.00    +0.000 A 
ATOM     18  N   UNL     1      -1.213  11.453  19.316  0.00  0.00    +0.000 NA
ATOM     19  C   UNL     1      -1.490  11.801  20.642  0.00  0.00    +0.000 A 
ATOM     20  C   UNL     1      -2.531  12.694  20.902  0.00  0.00    +0.000 A 
ATOM     21  C   UNL     1      -3.036  12.826  22.197  0.00  0.00    +0.000 A 
ATOM     22  C   UNL     1      -2.473  12.100  23.249  0.00  0.00    +0.000 A 
ATOM     23  C   UNL     1      -1.349  11.306  23.025  0.00  0.00    +0.000 A 
ATOM     24  C   UNL     1      -0.862  11.171  21.722  0.00  0.00    +0.000 A 
ATOM     25  C   UNL     1       0.267  10.277  21.421  0.00  0.00    +0.000 A 
ATOM     26  O   UNL     1       1.079   9.979  22.292  0.00  0.00    +0.000 OA
ENDBRANCH  15  16
ENDBRANCH  14  15
ENDBRANCH   1  14
TORSDOF 8
ENDMDL
MODEL 7
REMARK VINA RESULT:      -6.6      1.320      3.224
REMARK  Name = 
REMARK  10 active torsions:
REMARK  status: ('A' for Active; 'I' for Inactive)
REMARK    1  A    between atoms: C_1  and  O_2
REMARK    2  A    between atoms: O_2  and  C_3
REMARK    3  A    between atoms: C_7  and  O_8
REMARK    4  A    between atoms: O_8  and  C_9
REMARK    5  A    between atoms: C_10  and  O_11
REMARK    6  A    between atoms: O_11  and  C_12
REMARK    7  A    between atoms: C_12  and  C_13
REMARK    8  A    between atoms: C_13  and  C_14
REMARK    9  A    between atoms: C_14  and  C_15
REMARK   10  A    between atoms: C_15  and  N_16
REMARK                            x       y       z     vdW  Elec       q    Type
REMARK                         _______ _______ _______ _____ _____    ______ ____
ROOT
ATOM      1  C   UNL     1       1.818   3.978  20.656  0.00  0.00    +0.000 C 
ENDROOT
BRANCH   1   2
ATOM      2  C   UNL     1       1.181   5.373  20.691  0.00  0.00    +0.000 C 
BRANCH   2   3
ATOM      3  O   UNL     1       2.182   6.377  20.541  0.00  0.00    +0.000 OA
BRANCH   3   9
ATOM      4  C   UNL     1       1.116   8.622  20.723  0.00  0.00    +0.000 A 
ATOM      5  C   UNL     1       0.915   9.885  20.136  0.00  0.00    +0.000 A 
ATOM      6  C   UNL     1       1.305  10.132  18.831  0.00  0.00    +0.000 A 
ATOM      7  C   UNL     1       1.934   9.124  18.115  0.00  0.00    +0.000 A 
ATOM      8  C   UNL     1       2.218   7.877  18.697  0.00  0.00    +0.000 A 
ATOM      9  C   UNL     1       1.832   7.609  20.032  0.00  0.00    +0.000 A 
BRANCH   4  11
ATOM     10  C   UNL     1      -0.242   9.397  22.508  0.00  0.00    +0.000 C 
ATOM     11  O   UNL     1       0.656   8.408  21.998  0.00  0.00    +0.000 OA
ENDBRANCH   4  11
BRANCH   8  12
ATOM     12  O   UNL     1       2.860   7.063  17.797  0.00  0.00    +0.000 OA
ATOM     13  C   UNL     1       3.881   7.587  16.964  0.00  0.00    +0.000 C 
ENDBRANCH   8  12
ENDBRANCH   3   9
ENDBRANCH   2   3
ENDBRANCH   1   2
BRANCH   1  14
ATOM     14  C   UNL     1       1.549   3.226  19.340  0.00  0.00    +0.000 C 
BRANCH  14  15
ATOM     15  C   UNL     1       2.783   2.470  18.832  0.00  0.00    +0.000 C 
BRANCH  15  16
ATOM     16  N   UNL     1       3.802   3.341  18.260  0.00  0.00    +0.000 N 
ATOM     17  C   UNL     1       3.767   3.630  16.914  0.00  0.00    +0.000 A 
ATOM     18  N   UNL     1       4.710   4.212  16.252  0.00  0.00    +0.000 NA
ATOM     19  C   UNL     1       5.772   4.745  16.989  0.00  0.00    +0.000 A 
ATOM     20  C   UNL     1       6.685   5.584  16.347  0.00  0.00    +0.000 A 
ATOM     21  C   UNL     1       7.562   6.371  17.097  0.00  0.00    +0.000 A 
ATOM     22  C   UNL     1       7.563   6.289  18.492  0.00  0.00    +0.000 A 
ATOM     23  C   UNL     1       6.750   5.360  19.136  0.00  0.00    +0.000 A 
ATOM     24  C   UNL     1       5.866   4.588  18.376  0.00  0.00    +0.000 A 
ATOM     25  C   UNL     1       4.926   3.655  19.017  0.00  0.00    +0.000 A 
ATOM     26  O   UNL     1       5.163   3.194  20.131  0.00  0.00    +0.000 OA
ENDBRANCH  15  16
ENDBRANCH  14  15
ENDBRANCH   1  14
TORSDOF 8
ENDMDL
MODEL 8
REMARK VINA RESULT:      -6.6      7.088      9.920
REMARK  Name = 
REMARK  10 active torsions:
REMARK  status: ('A' for Active; 'I' for Inactive)
REMARK    1  A    between atoms: C_1  and  O_2
REMARK    2  A    between atoms: O_2  and  C_3
REMARK    3  A    between atoms: C_7  and  O_8
REMARK    4  A    between atoms: O_8  and  C_9
REMARK    5  A    between atoms: C_10  and  O_11
REMARK    6  A    between atoms: O_11  and  C_12
REMARK    7  A    between atoms: C_12  and  C_13
REMARK    8  A    between atoms: C_13  and  C_14
REMARK    9  A    between atoms: C_14  and  C_15
REMARK   10  A    between atoms: C_15  and  N_16
REMARK                            x       y       z     vdW  Elec       q    Type
REMARK                         _______ _______ _______ _____ _____    ______ ____
ROOT
ATOM      1  C   UNL     1       8.347   8.462  18.349  0.00  0.00    +0.000 C 
ENDROOT
BRANCH   1   2
ATOM      2  C   UNL     1       7.380   7.874  17.315  0.00  0.00    +0.000 C 
BRANCH   2   3
ATOM      3  O   UNL     1       7.840   6.597  16.877  0.00  0.00    +0.000 OA
BRANCH   3   9
ATOM      4  C   UNL     1       5.958   5.057  17.422  0.00  0.00    +0.000 A 
ATOM      5  C   UNL     1       4.996   4.152  16.939  0.00  0.00    +0.000 A 
ATOM      6  C   UNL     1       5.037   3.702  15.630  0.00  0.00    +0.000 A 
ATOM      7  C   UNL     1       6.023   4.188  14.783  0.00  0.00    +0.000 A 
ATOM      8  C   UNL     1       6.952   5.150  15.213  0.00  0.00    +0.000 A 
ATOM      9  C   UNL     1       6.921   5.625  16.546  0.00  0.00    +0.000 A 
BRANCH   4  11
ATOM     10  C   UNL     1       4.615   5.415  19.345  0.00  0.00    +0.000 C 
ATOM     11  O   UNL     1       5.912   5.424  18.744  0.00  0.00    +0.000 OA
ENDBRANCH   4  11
BRANCH   8  12
ATOM     12  O   UNL     1       7.805   5.483  14.191  0.00  0.00    +0.000 OA
ATOM     13  C   UNL     1       7.584   4.977  12.884  0.00  0.00    +0.000 C 
ENDBRANCH   8  12
ENDBRANCH   3   9
ENDBRANCH   2   3
ENDBRANCH   1   2
BRANCH   1  14
ATOM     14  C   UNL     1       8.509   9.987  18.224  0.00  0.00    +0.000 C 
BRANCH  14  15
ATOM     15  C   UNL     1       9.634  10.534  19.112  0.00  0.00    +0.000 C 
BRANCH  15  16
ATOM     16  N   UNL     1       9.900  11.952  18.903  0.00  0.00    +0.000 N 
ATOM     17  C   UNL     1       9.010  12.707  18.172  0.00  0.00    +0.000 A 
ATOM     18  N   UNL     1       9.222  13.907  17.746  0.00  0.00    +0.000 NA
ATOM     19  C   UNL     1      10.373  14.553  18.209  0.00  0.00    +0.000 A 
ATOM     20  C   UNL     1      10.521  15.920  17.970  0.00  0.00    +0.000 A 
ATOM     21  C   UNL     1      11.483  16.654  18.668  0.00  0.00    +0.000 A 
ATOM     22  C   UNL     1      12.333  16.017  19.576  0.00  0.00    +0.000 A 
ATOM     23  C   UNL     1      12.282  14.633  19.724  0.00  0.00    +0.000 A 
ATOM     24  C   UNL     1      11.306  13.911  19.030  0.00  0.00    +0.000 A 
ATOM     25  C   UNL     1      11.156  12.459  19.220  0.00  0.00    +0.000 A 
ATOM     26  O   UNL     1      12.101  11.778  19.610  0.00  0.00    +0.000 OA
ENDBRANCH  15  16
ENDBRANCH  14  15
ENDBRANCH   1  14
TORSDOF 8
ENDMDL
MODEL 9
REMARK VINA RESULT:      -6.5      0.909      1.081
REMARK  Name = 
REMARK  10 active torsions:
REMARK  status: ('A' for Active; 'I' for Inactive)
REMARK    1  A    between atoms: C_1  and  O_2
REMARK    2  A    between atoms: O_2  and  C_3
REMARK    3  A    between atoms: C_7  and  O_8
REMARK    4  A    between atoms: O_8  and  C_9
REMARK    5  A    between atoms: C_10  and  O_11
REMARK    6  A    between atoms: O_11  and  C_12
REMARK    7  A    between atoms: C_12  and  C_13
REMARK    8  A    between atoms: C_13  and  C_14
REMARK    9  A    between atoms: C_14  and  C_15
REMARK   10  A    between atoms: C_15  and  N_16
REMARK                            x       y       z     vdW  Elec       q    Type
REMARK                         _______ _______ _______ _____ _____    ______ ____
ROOT
ATOM      1  C   UNL     1       2.012   4.776  20.794  0.00  0.00    +0.000 C 
ENDROOT
BRANCH   1   2
ATOM      2  C   UNL     1       1.090   6.002  20.803  0.00  0.00    +0.000 C 
BRANCH   2   3
ATOM      3  O   UNL     1       1.863   7.201  20.796  0.00  0.00    +0.000 OA
BRANCH   3   9
ATOM      4  C   UNL     1       1.823   8.812  18.897  0.00  0.00    +0.000 A 
ATOM      5  C   UNL     1       1.169   9.895  18.281  0.00  0.00    +0.000 A 
ATOM      6  C   UNL     1       0.154  10.576  18.931  0.00  0.00    +0.000 A 
ATOM      7  C   UNL     1      -0.240  10.151  20.191  0.00  0.00    +0.000 A 
ATOM      8  C   UNL     1       0.340   9.026  20.802  0.00  0.00    +0.000 A 
ATOM      9  C   UNL     1       1.375   8.315  20.149  0.00  0.00    +0.000 A 
BRANCH   4  11
ATOM     10  C   UNL     1       2.571   6.949  17.632  0.00  0.00    +0.000 C 
ATOM     11  O   UNL     1       2.865   8.211  18.236  0.00  0.00    +0.000 OA
ENDBRANCH   4  11
BRANCH   8  12
ATOM     12  O   UNL     1      -0.232   8.798  22.029  0.00  0.00    +0.000 OA
ATOM     13  C   UNL     1      -0.453   9.875  22.924  0.00  0.00    +0.000 C 
ENDBRANCH   8  12
ENDBRANCH   3   9
ENDBRANCH   2   3
ENDBRANCH   1   2
BRANCH   1  14
ATOM     14  C   UNL     1       1.591   3.713  19.763  0.00  0.00    +0.000 C 
BRANCH  14  15
ATOM     15  C   UNL     1       2.694   2.681  19.497  0.00  0.00    +0.000 C 
BRANCH  15  16
ATOM     16  N   UNL     1       3.815   3.215  18.734  0.00  0.00    +0.000 N 
ATOM     17  C   UNL     1       4.944   3.640  19.398  0.00  0.00    +0.000 A 
ATOM     18  N   UNL     1       5.912   4.312  18.870  0.00  0.00    +0.000 NA
ATOM     19  C   UNL     1       5.895   4.469  17.481  0.00  0.00    +0.000 A 
ATOM     20  C   UNL     1       7.030   4.974  16.845  0.00  0.00    +0.000 A 
ATOM     21  C   UNL     1       7.169   4.858  15.460  0.00  0.00    +0.000 A 
ATOM     22  C   UNL     1       6.153   4.278  14.697  0.00  0.00    +0.000 A 
ATOM     23  C   UNL     1       4.960   3.891  15.304  0.00  0.00    +0.000 A 
ATOM     24  C   UNL     1       4.839   3.999  16.693  0.00  0.00    +0.000 A 
ATOM     25  C   UNL     1       3.634   3.524  17.390  0.00  0.00    +0.000 A 
ATOM     26  O   UNL     1       2.560   3.439  16.799  0.00  0.00    +0.000 OA
ENDBRANCH  15  16
ENDBRANCH  14  15
ENDBRANCH   1  14
TORSDOF 8
ENDMDL
