MODEL 1
REMARK VINA RESULT:      -9.2      0.000      0.000
REMARK  Name = 
REMARK  3 active torsions:
REMARK  status: ('A' for Active; 'I' for Inactive)
REMARK    1  A    between atoms: C_5  and  C_6
REMARK    2  A    between atoms: C_12  and  C_13
REMARK    3  A    between atoms: C_16  and  C_17
REMARK                            x       y       z     vdW  Elec       q    Type
REMARK                         _______ _______ _______ _____ _____    ______ ____
ROOT
ATOM      1  C   UNL     1       0.668  10.264  20.131  0.00  0.00    +0.000 A 
ATOM      2  C   UNL     1       1.057  11.079  19.057  0.00  0.00    +0.000 A 
ATOM      3  C   UNL     1       1.854  10.584  18.047  0.00  0.00    +0.000 A 
ATOM      4  C   UNL     1       2.179   9.244  18.153  0.00  0.00    +0.000 A 
ATOM      5  N   UNL     1       2.888   8.455  17.303  0.00  0.00    +0.000 N 
ATOM      6  N   UNL     1       2.973   7.181  17.671  0.00  0.00    +0.000 NA
ATOM      7  C   UNL     1       2.415   7.161  18.896  0.00  0.00    +0.000 A 
ATOM      8  C   UNL     1       1.805   8.436  19.229  0.00  0.00    +0.000 A 
ATOM      9  N   UNL     1       1.042   8.943  20.262  0.00  0.00    +0.000 NA
ATOM     10  H   UNL     1       3.328   8.731  16.433  0.00  0.00    +0.000 HD
ENDROOT
BRANCH   7  11
ATOM     11  C   UNL     1       2.682   5.888  19.636  0.00  0.00    +0.000 A 
ATOM     12  C   UNL     1       3.879   5.294  19.949  0.00  0.00    +0.000 A 
ATOM     13  C   UNL     1       3.735   3.975  19.379  0.00  0.00    +0.000 A 
ATOM     14  C   UNL     1       4.353   3.287  18.298  0.00  0.00    +0.000 A 
ATOM     15  C   UNL     1       3.800   2.029  17.970  0.00  0.00    +0.000 A 
ATOM     16  C   UNL     1       2.565   1.673  18.501  0.00  0.00    +0.000 A 
ATOM     17  N   UNL     1       1.774   2.501  19.217  0.00  0.00    +0.000 NA
ATOM     18  C   UNL     1       2.388   3.657  19.533  0.00  0.00    +0.000 A 
ATOM     19  N   UNL     1       1.743   4.865  19.715  0.00  0.00    +0.000 N 
ATOM     20  H   UNL     1       0.785   4.989  19.431  0.00  0.00    +0.000 HD
BRANCH  14  21
ATOM     21  C   UNL     1       5.133   4.091  17.338  0.00  0.00    +0.000 A 
ATOM     22  C   UNL     1       4.685   4.337  16.032  0.00  0.00    +0.000 A 
ATOM     23  C   UNL     1       5.572   4.743  15.038  0.00  0.00    +0.000 A 
ATOM     24  C   UNL     1       6.887   4.981  15.388  0.00  0.00    +0.000 A 
ATOM     25  N   UNL     1       7.360   4.847  16.643  0.00  0.00    +0.000 NA
ATOM     26  C   UNL     1       6.482   4.390  17.572  0.00  0.00    +0.000 A 
ENDBRANCH  14  21
ENDBRANCH   7  11
BRANCH   1  31
ATOM     27  C   UNL     1      -2.082  12.362  21.755  0.00  0.00    +0.000 A 
ATOM     28  C   UNL     1      -2.071  11.804  23.016  0.00  0.00    +0.000 A 
ATOM     29  N   UNL     1      -1.212  10.831  23.388  0.00  0.00    +0.000 NA
ATOM     30  C   UNL     1      -0.325  10.388  22.453  0.00  0.00    +0.000 A 
ATOM     31  C   UNL     1      -0.236  10.865  21.149  0.00  0.00    +0.000 A 
ATOM     32  C   UNL     1      -1.158  11.888  20.826  0.00  0.00    +0.000 A 
ENDBRANCH   1  31
TORSDOF 3
ENDMDL
MODEL 2
REMARK VINA RESULT:      -8.5      0.867      1.326
REMARK  Name = 
REMARK  3 active torsions:
REMARK  status: ('A' for Active; 'I' for Inactive)
REMARK    1  A    between atoms: C_5  and  C_6
REMARK    2  A    between atoms: C_12  and  C_13
REMARK    3  A    between atoms: C_16  and  C_17
REMARK                            x       y       z     vdW  Elec       q    Type
REMARK                         _______ _______ _______ _____ _____    ______ ____
ROOT
ATOM      1  C   UNL     1       0.494  10.264  19.999  0.00  0.00    +0.000 A 
ATOM      2  C   UNL     1       1.043  11.076  18.995  0.00  0.00    +0.000 A 
ATOM      3  C   UNL     1       1.955  10.568  18.094  0.00  0.00    +0.000 A 
ATOM      4  C   UNL     1       2.228   9.218  18.228  0.00  0.00    +0.000 A 
ATOM      5  N   UNL     1       3.024   8.416  17.472  0.00  0.00    +0.000 N 
ATOM      6  N   UNL     1       3.026   7.139  17.835  0.00  0.00    +0.000 NA
ATOM      7  C   UNL     1       2.310   7.124  18.975  0.00  0.00    +0.000 A 
ATOM      8  C   UNL     1       1.694   8.414  19.237  0.00  0.00    +0.000 A 
ATOM      9  N   UNL     1       0.814   8.933  20.165  0.00  0.00    +0.000 NA
ATOM     10  H   UNL     1       3.582   8.687  16.671  0.00  0.00    +0.000 HD
ENDROOT
BRANCH   7  11
ATOM     11  C   UNL     1       2.444   5.840  19.731  0.00  0.00    +0.000 A 
ATOM     12  C   UNL     1       3.576   5.195  20.164  0.00  0.00    +0.000 A 
ATOM     13  C   UNL     1       3.437   3.885  19.573  0.00  0.00    +0.000 A 
ATOM     14  C   UNL     1       4.137   3.174  18.559  0.00  0.00    +0.000 A 
ATOM     15  C   UNL     1       3.569   1.941  18.166  0.00  0.00    +0.000 A 
ATOM     16  C   UNL     1       2.272   1.636  18.562  0.00  0.00    +0.000 A 
ATOM     17  N   UNL     1       1.444   2.496  19.196  0.00  0.00    +0.000 NA
ATOM     18  C   UNL     1       2.069   3.624  19.582  0.00  0.00    +0.000 A 
ATOM     19  N   UNL     1       1.460   4.857  19.703  0.00  0.00    +0.000 N 
ATOM     20  H   UNL     1       0.544   5.023  19.321  0.00  0.00    +0.000 HD
BRANCH  14  21
ATOM     21  C   UNL     1       5.047   3.946  17.692  0.00  0.00    +0.000 A 
ATOM     22  C   UNL     1       6.216   4.546  18.183  0.00  0.00    +0.000 A 
ATOM     23  C   UNL     1       6.842   5.571  17.477  0.00  0.00    +0.000 A 
ATOM     24  C   UNL     1       6.335   5.921  16.241  0.00  0.00    +0.000 A 
ATOM     25  N   UNL     1       5.268   5.324  15.676  0.00  0.00    +0.000 NA
ATOM     26  C   UNL     1       4.647   4.373  16.420  0.00  0.00    +0.000 A 
ENDBRANCH  14  21
ENDBRANCH   7  11
BRANCH   1  31
ATOM     27  C   UNL     1      -1.425  11.306  23.135  0.00  0.00    +0.000 A 
ATOM     28  C   UNL     1      -2.283  12.228  22.574  0.00  0.00    +0.000 A 
ATOM     29  N   UNL     1      -2.312  12.505  21.253  0.00  0.00    +0.000 NA
ATOM     30  C   UNL     1      -1.437  11.832  20.454  0.00  0.00    +0.000 A 
ATOM     31  C   UNL     1      -0.522  10.882  20.895  0.00  0.00    +0.000 A 
ATOM     32  C   UNL     1      -0.548  10.632  22.287  0.00  0.00    +0.000 A 
ENDBRANCH   1  31
TORSDOF 3
ENDMDL
MODEL 3
REMARK VINA RESULT:      -8.2      1.821      8.920
REMARK  Name = 
REMARK  3 active torsions:
REMARK  status: ('A' for Active; 'I' for Inactive)
REMARK    1  A    between atoms: C_5  and  C_6
REMARK    2  A    between atoms: C_12  and  C_13
REMARK    3  A    between atoms: C_16  and  C_17
REMARK                            x       y       z     vdW  Elec       q    Type
REMARK                         _______ _______ _______ _____ _____    ______ ____
ROOT
ATOM      1  C   UNL     1       4.913   5.576  17.305  0.00  0.00    +0.000 A 
ATOM      2  C   UNL     1       5.127   4.867  18.496  0.00  0.00    +0.000 A 
ATOM      3  C   UNL     1       4.413   5.169  19.636  0.00  0.00    +0.000 A 
ATOM      4  C   UNL     1       3.458   6.160  19.491  0.00  0.00    +0.000 A 
ATOM      5  N   UNL     1       2.563   6.640  20.395  0.00  0.00    +0.000 N 
ATOM      6  N   UNL     1       1.736   7.563  19.917  0.00  0.00    +0.000 NA
ATOM      7  C   UNL     1       2.204   7.807  18.679  0.00  0.00    +0.000 A 
ATOM      8  C   UNL     1       3.256   6.876  18.309  0.00  0.00    +0.000 A 
ATOM      9  N   UNL     1       4.001   6.603  17.180  0.00  0.00    +0.000 NA
ATOM     10  H   UNL     1       2.456   6.355  21.361  0.00  0.00    +0.000 HD
ENDROOT
BRANCH   7  11
ATOM     11  C   UNL     1       1.616   9.040  18.067  0.00  0.00    +0.000 A 
ATOM     12  C   UNL     1       1.599  10.328  18.543  0.00  0.00    +0.000 A 
ATOM     13  C   UNL     1       0.190  10.644  18.542  0.00  0.00    +0.000 A 
ATOM     14  C   UNL     1      -0.773  10.885  19.560  0.00  0.00    +0.000 A 
ATOM     15  C   UNL     1      -2.112  11.014  19.125  0.00  0.00    +0.000 A 
ATOM     16  C   UNL     1      -2.442  10.633  17.829  0.00  0.00    +0.000 A 
ATOM     17  N   UNL     1      -1.597  10.016  16.975  0.00  0.00    +0.000 NA
ATOM     18  C   UNL     1      -0.333   9.976  17.438  0.00  0.00    +0.000 A 
ATOM     19  N   UNL     1       0.582   8.987  17.139  0.00  0.00    +0.000 N 
ATOM     20  H   UNL     1       0.293   8.127  16.703  0.00  0.00    +0.000 HD
BRANCH  14  21
ATOM     21  C   UNL     1      -0.416  10.503  20.940  0.00  0.00    +0.000 A 
ATOM     22  C   UNL     1      -0.303   9.163  21.338  0.00  0.00    +0.000 A 
ATOM     23  C   UNL     1      -0.357   8.811  22.684  0.00  0.00    +0.000 A 
ATOM     24  C   UNL     1      -0.435   9.821  23.623  0.00  0.00    +0.000 A 
ATOM     25  N   UNL     1      -0.460  11.131  23.309  0.00  0.00    +0.000 NA
ATOM     26  C   UNL     1      -0.469  11.433  21.986  0.00  0.00    +0.000 A 
ENDBRANCH  14  21
ENDBRANCH   7  11
BRANCH   1  31
ATOM     27  C   UNL     1       5.835   3.987  13.953  0.00  0.00    +0.000 A 
ATOM     28  C   UNL     1       7.079   4.553  13.775  0.00  0.00    +0.000 A 
ATOM     29  N   UNL     1       7.655   5.377  14.677  0.00  0.00    +0.000 NA
ATOM     30  C   UNL     1       6.951   5.652  15.811  0.00  0.00    +0.000 A 
ATOM     31  C   UNL     1       5.690   5.148  16.109  0.00  0.00    +0.000 A 
ATOM     32  C   UNL     1       5.146   4.286  15.128  0.00  0.00    +0.000 A 
ENDBRANCH   1  31
TORSDOF 3
ENDMDL
MODEL 4
REMARK VINA RESULT:      -8.1      1.969      4.070
REMARK  Name = 
REMARK  3 active torsions:
REMARK  status: ('A' for Active; 'I' for Inactive)
REMARK    1  A    between atoms: C_5  and  C_6
REMARK    2  A    between atoms: C_12  and  C_13
REMARK    3  A    between atoms: C_16  and  C_17
REMARK                            x       y       z     vdW  Elec       q    Type
REMARK                         _______ _______ _______ _____ _____    ______ ____
ROOT
ATOM      1  C   UNL     1       0.380  10.902  20.323  0.00  0.00    +0.000 A 
ATOM      2  C   UNL     1      -0.094  10.554  21.597  0.00  0.00    +0.000 A 
ATOM      3  C   UNL     1       0.128   9.294  22.113  0.00  0.00    +0.000 A 
ATOM      4  C   UNL     1       0.881   8.452  21.314  0.00  0.00    +0.000 A 
ATOM      5  N   UNL     1       1.317   7.188  21.559  0.00  0.00    +0.000 N 
ATOM      6  N   UNL     1       2.077   6.670  20.600  0.00  0.00    +0.000 NA
ATOM      7  C   UNL     1       2.020   7.583  19.613  0.00  0.00    +0.000 A 
ATOM      8  C   UNL     1       1.339   8.793  20.040  0.00  0.00    +0.000 A 
ATOM      9  N   UNL     1       1.081  10.040  19.506  0.00  0.00    +0.000 NA
ATOM     10  H   UNL     1       1.141   6.627  22.384  0.00  0.00    +0.000 HD
ENDROOT
BRANCH   7  11
ATOM     11  C   UNL     1       2.548   7.068  18.311  0.00  0.00    +0.000 A 
ATOM     12  C   UNL     1       2.114   6.013  17.548  0.00  0.00    +0.000 A 
ATOM     13  C   UNL     1       3.305   5.209  17.415  0.00  0.00    +0.000 A 
ATOM     14  C   UNL     1       3.700   3.930  17.897  0.00  0.00    +0.000 A 
ATOM     15  C   UNL     1       5.044   3.567  17.656  0.00  0.00    +0.000 A 
ATOM     16  C   UNL     1       5.944   4.542  17.238  0.00  0.00    +0.000 A 
ATOM     17  N   UNL     1       5.663   5.861  17.166  0.00  0.00    +0.000 NA
ATOM     18  C   UNL     1       4.356   6.122  17.358  0.00  0.00    +0.000 A 
ATOM     19  N   UNL     1       3.859   7.289  17.903  0.00  0.00    +0.000 N 
ATOM     20  H   UNL     1       4.466   7.942  18.370  0.00  0.00    +0.000 HD
BRANCH  14  21
ATOM     21  C   UNL     1       2.894   3.332  18.978  0.00  0.00    +0.000 A 
ATOM     22  C   UNL     1       1.498   3.224  18.896  0.00  0.00    +0.000 A 
ATOM     23  C   UNL     1       0.729   3.033  20.041  0.00  0.00    +0.000 A 
ATOM     24  C   UNL     1       1.379   2.864  21.248  0.00  0.00    +0.000 A 
ATOM     25  N   UNL     1       2.720   2.871  21.379  0.00  0.00    +0.000 NA
ATOM     26  C   UNL     1       3.434   3.122  20.253  0.00  0.00    +0.000 A 
ENDBRANCH  14  21
ENDBRANCH   7  11
BRANCH   1  31
ATOM     27  C   UNL     1      -1.047  14.437  20.049  0.00  0.00    +0.000 A 
ATOM     28  C   UNL     1      -0.135  14.976  19.167  0.00  0.00    +0.000 A 
ATOM     29  N   UNL     1       0.880  14.269  18.626  0.00  0.00    +0.000 NA
ATOM     30  C   UNL     1       0.993  12.960  18.988  0.00  0.00    +0.000 A 
ATOM     31  C   UNL     1       0.142  12.299  19.867  0.00  0.00    +0.000 A 
ATOM     32  C   UNL     1      -0.904  13.093  20.393  0.00  0.00    +0.000 A 
ENDBRANCH   1  31
TORSDOF 3
ENDMDL
MODEL 5
REMARK VINA RESULT:      -8.1      2.506      8.902
REMARK  Name = 
REMARK  3 active torsions:
REMARK  status: ('A' for Active; 'I' for Inactive)
REMARK    1  A    between atoms: C_5  and  C_6
REMARK    2  A    between atoms: C_12  and  C_13
REMARK    3  A    between atoms: C_16  and  C_17
REMARK                            x       y       z     vdW  Elec       q    Type
REMARK                         _______ _______ _______ _____ _____    ______ ____
ROOT
ATOM      1  C   UNL     1       2.249   6.725  19.333  0.00  0.00    +0.000 A 
ATOM      2  C   UNL     1       2.689   6.879  18.010  0.00  0.00    +0.000 A 
ATOM      3  C   UNL     1       2.588   8.096  17.369  0.00  0.00    +0.000 A 
ATOM      4  C   UNL     1       2.083   9.129  18.139  0.00  0.00    +0.000 A 
ATOM      5  N   UNL     1       1.915  10.441  17.824  0.00  0.00    +0.000 N 
ATOM      6  N   UNL     1       1.455  11.193  18.817  0.00  0.00    +0.000 NA
ATOM      7  C   UNL     1       1.168  10.307  19.789  0.00  0.00    +0.000 A 
ATOM      8  C   UNL     1       1.630   8.972  19.450  0.00  0.00    +0.000 A 
ATOM      9  N   UNL     1       1.693   7.744  20.077  0.00  0.00    +0.000 NA
ATOM     10  H   UNL     1       2.121  10.890  16.940  0.00  0.00    +0.000 HD
ENDROOT
BRANCH   7  11
ATOM     11  C   UNL     1       0.343  10.895  20.890  0.00  0.00    +0.000 A 
ATOM     12  C   UNL     1      -0.955  10.625  21.248  0.00  0.00    +0.000 A 
ATOM     13  C   UNL     1      -1.574  11.927  21.194  0.00  0.00    +0.000 A 
ATOM     14  C   UNL     1      -2.556  12.526  20.356  0.00  0.00    +0.000 A 
ATOM     15  C   UNL     1      -2.776  13.908  20.552  0.00  0.00    +0.000 A 
ATOM     16  C   UNL     1      -1.869  14.636  21.314  0.00  0.00    +0.000 A 
ATOM     17  N   UNL     1      -0.700  14.148  21.784  0.00  0.00    +0.000 NA
ATOM     18  C   UNL     1      -0.586  12.819  21.603  0.00  0.00    +0.000 A 
ATOM     19  N   UNL     1       0.609  12.149  21.427  0.00  0.00    +0.000 N 
ATOM     20  H   UNL     1       1.460  12.650  21.231  0.00  0.00    +0.000 HD
BRANCH  14  21
ATOM     21  C   UNL     1      -2.883  11.838  19.093  0.00  0.00    +0.000 A 
ATOM     22  C   UNL     1      -1.930  11.634  18.084  0.00  0.00    +0.000 A 
ATOM     23  C   UNL     1      -2.322  11.352  16.778  0.00  0.00    +0.000 A 
ATOM     24  C   UNL     1      -3.669  11.190  16.518  0.00  0.00    +0.000 A 
ATOM     25  N   UNL     1      -4.627  11.287  17.460  0.00  0.00    +0.000 NA
ATOM     26  C   UNL     1      -4.213  11.624  18.707  0.00  0.00    +0.000 A 
ENDBRANCH  14  21
ENDBRANCH   7  11
BRANCH   1  31
ATOM     27  C   UNL     1       1.614   3.518  21.313  0.00  0.00    +0.000 A 
ATOM     28  C   UNL     1       2.733   2.804  20.943  0.00  0.00    +0.000 A 
ATOM     29  N   UNL     1       3.695   3.299  20.135  0.00  0.00    +0.000 NA
ATOM     30  C   UNL     1       3.527   4.569  19.669  0.00  0.00    +0.000 A 
ATOM     31  C   UNL     1       2.445   5.391  19.965  0.00  0.00    +0.000 A 
ATOM     32  C   UNL     1       1.477   4.815  20.822  0.00  0.00    +0.000 A 
ENDBRANCH   1  31
TORSDOF 3
ENDMDL
MODEL 6
REMARK VINA RESULT:      -7.9      2.397      8.755
REMARK  Name = 
REMARK  3 active torsions:
REMARK  status: ('A' for Active; 'I' for Inactive)
REMARK    1  A    between atoms: C_5  and  C_6
REMARK    2  A    between atoms: C_12  and  C_13
REMARK    3  A    between atoms: C_16  and  C_17
REMARK                            x       y       z     vdW  Elec       q    Type
REMARK                         _______ _______ _______ _____ _____    ______ ____
ROOT
ATOM      1  C   UNL     1       2.579   6.418  19.288  0.00  0.00    +0.000 A 
ATOM      2  C   UNL     1       3.427   6.665  18.198  0.00  0.00    +0.000 A 
ATOM      3  C   UNL     1       3.377   7.866  17.522  0.00  0.00    +0.000 A 
ATOM      4  C   UNL     1       2.487   8.794  18.032  0.00  0.00    +0.000 A 
ATOM      5  N   UNL     1       2.247  10.073  17.635  0.00  0.00    +0.000 N 
ATOM      6  N   UNL     1       1.361  10.725  18.379  0.00  0.00    +0.000 NA
ATOM      7  C   UNL     1       0.887   9.785  19.218  0.00  0.00    +0.000 A 
ATOM      8  C   UNL     1       1.631   8.543  19.106  0.00  0.00    +0.000 A 
ATOM      9  N   UNL     1       1.652   7.325  19.756  0.00  0.00    +0.000 NA
ATOM     10  H   UNL     1       2.681  10.567  16.864  0.00  0.00    +0.000 HD
ENDROOT
BRANCH   7  11
ATOM     11  C   UNL     1      -0.349  10.219  19.940  0.00  0.00    +0.000 A 
ATOM     12  C   UNL     1      -1.271  11.177  19.596  0.00  0.00    +0.000 A 
ATOM     13  C   UNL     1      -1.277  12.038  20.755  0.00  0.00    +0.000 A 
ATOM     14  C   UNL     1      -0.859  13.375  21.001  0.00  0.00    +0.000 A 
ATOM     15  C   UNL     1      -0.902  13.798  22.349  0.00  0.00    +0.000 A 
ATOM     16  C   UNL     1      -1.069  12.849  23.351  0.00  0.00    +0.000 A 
ATOM     17  N   UNL     1      -1.061  11.513  23.147  0.00  0.00    +0.000 NA
ATOM     18  C   UNL     1      -1.069  11.190  21.840  0.00  0.00    +0.000 A 
ATOM     19  N   UNL     1      -0.507  10.045  21.310  0.00  0.00    +0.000 N 
ATOM     20  H   UNL     1       0.115   9.473  21.856  0.00  0.00    +0.000 HD
BRANCH  14  21
ATOM     21  C   UNL     1       0.009  14.013  19.993  0.00  0.00    +0.000 A 
ATOM     22  C   UNL     1       1.383  13.742  19.911  0.00  0.00    +0.000 A 
ATOM     23  C   UNL     1       2.243  14.612  19.245  0.00  0.00    +0.000 A 
ATOM     24  C   UNL     1       1.699  15.700  18.592  0.00  0.00    +0.000 A 
ATOM     25  N   UNL     1       0.379  15.967  18.559  0.00  0.00    +0.000 NA
ATOM     26  C   UNL     1      -0.421  15.134  19.271  0.00  0.00    +0.000 A 
ENDBRANCH  14  21
ENDBRANCH   7  11
BRANCH   1  31
ATOM     27  C   UNL     1       1.932   3.431  21.583  0.00  0.00    +0.000 A 
ATOM     28  C   UNL     1       2.919   2.583  21.126  0.00  0.00    +0.000 A 
ATOM     29  N   UNL     1       3.800   2.923  20.161  0.00  0.00    +0.000 NA
ATOM     30  C   UNL     1       3.687   4.170  19.622  0.00  0.00    +0.000 A 
ATOM     31  C   UNL     1       2.737   5.116  19.992  0.00  0.00    +0.000 A 
ATOM     32  C   UNL     1       1.850   4.700  21.012  0.00  0.00    +0.000 A 
ENDBRANCH   1  31
TORSDOF 3
ENDMDL
MODEL 7
REMARK VINA RESULT:      -7.8      6.342     10.543
REMARK  Name = 
REMARK  3 active torsions:
REMARK  status: ('A' for Active; 'I' for Inactive)
REMARK    1  A    between atoms: C_5  and  C_6
REMARK    2  A    between atoms: C_12  and  C_13
REMARK    3  A    between atoms: C_16  and  C_17
REMARK                            x       y       z     vdW  Elec       q    Type
REMARK                         _______ _______ _______ _____ _____    ______ ____
ROOT
ATOM      1  C   UNL     1      -2.345  11.641  18.293  0.00  0.00    +0.000 A 
ATOM      2  C   UNL     1      -2.688  10.800  17.224  0.00  0.00    +0.000 A 
ATOM      3  C   UNL     1      -4.009  10.534  16.930  0.00  0.00    +0.000 A 
ATOM      4  C   UNL     1      -4.934  11.190  17.722  0.00  0.00    +0.000 A 
ATOM      5  N   UNL     1      -6.292  11.186  17.651  0.00  0.00    +0.000 N 
ATOM      6  N   UNL     1      -6.894  11.978  18.532  0.00  0.00    +0.000 NA
ATOM      7  C   UNL     1      -5.889  12.413  19.315  0.00  0.00    +0.000 A 
ATOM      8  C   UNL     1      -4.593  12.014  18.796  0.00  0.00    +0.000 A 
ATOM      9  N   UNL     1      -3.270  12.248  19.116  0.00  0.00    +0.000 NA
ATOM     10  H   UNL     1      -6.870  10.670  16.999  0.00  0.00    +0.000 HD
ENDROOT
BRANCH   7  11
ATOM     11  C   UNL     1      -6.372  13.071  20.570  0.00  0.00    +0.000 A 
ATOM     12  C   UNL     1      -5.841  14.134  21.258  0.00  0.00    +0.000 A 
ATOM     13  C   UNL     1      -5.660  13.591  22.584  0.00  0.00    +0.000 A 
ATOM     14  C   UNL     1      -4.525  13.272  23.379  0.00  0.00    +0.000 A 
ATOM     15  C   UNL     1      -4.791  12.601  24.594  0.00  0.00    +0.000 A 
ATOM     16  C   UNL     1      -6.054  12.059  24.805  0.00  0.00    +0.000 A 
ATOM     17  N   UNL     1      -7.029  12.007  23.872  0.00  0.00    +0.000 NA
ATOM     18  C   UNL     1      -6.722  12.709  22.765  0.00  0.00    +0.000 A 
ATOM     19  N   UNL     1      -7.172  12.409  21.494  0.00  0.00    +0.000 N 
ATOM     20  H   UNL     1      -7.608  11.524  21.294  0.00  0.00    +0.000 HD
BRANCH  14  21
ATOM     21  C   UNL     1      -3.216  13.205  22.702  0.00  0.00    +0.000 A 
ATOM     22  C   UNL     1      -2.438  12.039  22.692  0.00  0.00    +0.000 A 
ATOM     23  C   UNL     1      -1.076  12.091  22.407  0.00  0.00    +0.000 A 
ATOM     24  C   UNL     1      -0.528  13.306  22.047  0.00  0.00    +0.000 A 
ATOM     25  N   UNL     1      -1.239  14.447  21.952  0.00  0.00    +0.000 NA
ATOM     26  C   UNL     1      -2.549  14.370  22.298  0.00  0.00    +0.000 A 
ENDBRANCH  14  21
ENDBRANCH   7  11
BRANCH   1  31
ATOM     27  C   UNL     1       0.985  13.483  18.647  0.00  0.00    +0.000 A 
ATOM     28  C   UNL     1       1.760  12.450  19.130  0.00  0.00    +0.000 A 
ATOM     29  N   UNL     1       1.293  11.195  19.311  0.00  0.00    +0.000 NA
ATOM     30  C   UNL     1      -0.013  10.963  18.997  0.00  0.00    +0.000 A 
ATOM     31  C   UNL     1      -0.897  11.916  18.505  0.00  0.00    +0.000 A 
ATOM     32  C   UNL     1      -0.345  13.207  18.332  0.00  0.00    +0.000 A 
ENDBRANCH   1  31
TORSDOF 3
ENDMDL
MODEL 8
REMARK VINA RESULT:      -7.8      6.468      9.271
REMARK  Name = 
REMARK  3 active torsions:
REMARK  status: ('A' for Active; 'I' for Inactive)
REMARK    1  A    between atoms: C_5  and  C_6
REMARK    2  A    between atoms: C_12  and  C_13
REMARK    3  A    between atoms: C_16  and  C_17
REMARK                            x       y       z     vdW  Elec       q    Type
REMARK                         _______ _______ _______ _____ _____    ______ ____
ROOT
ATOM      1  C   UNL     1      -5.577  12.434  19.305  0.00  0.00    +0.000 A 
ATOM      2  C   UNL     1      -6.253  12.608  18.088  0.00  0.00    +0.000 A 
ATOM      3  C   UNL     1      -5.647  12.287  16.891  0.00  0.00    +0.000 A 
ATOM      4  C   UNL     1      -4.379  11.746  16.997  0.00  0.00    +0.000 A 
ATOM      5  N   UNL     1      -3.552  11.279  16.024  0.00  0.00    +0.000 N 
ATOM      6  N   UNL     1      -2.411  10.763  16.468  0.00  0.00    +0.000 NA
ATOM      7  C   UNL     1      -2.424  11.036  17.786  0.00  0.00    +0.000 A 
ATOM      8  C   UNL     1      -3.700  11.588  18.207  0.00  0.00    +0.000 A 
ATOM      9  N   UNL     1      -4.291  11.948  19.402  0.00  0.00    +0.000 NA
ATOM     10  H   UNL     1      -3.726  11.267  15.026  0.00  0.00    +0.000 HD
ENDROOT
BRANCH   7  11
ATOM     11  C   UNL     1      -1.094  10.824  18.438  0.00  0.00    +0.000 A 
ATOM     12  C   UNL     1      -0.801  10.348  19.692  0.00  0.00    +0.000 A 
ATOM     13  C   UNL     1       0.009  11.405  20.249  0.00  0.00    +0.000 A 
ATOM     14  C   UNL     1      -0.174  12.350  21.296  0.00  0.00    +0.000 A 
ATOM     15  C   UNL     1       0.832  13.335  21.422  0.00  0.00    +0.000 A 
ATOM     16  C   UNL     1       1.751  13.499  20.392  0.00  0.00    +0.000 A 
ATOM     17  N   UNL     1       1.683  12.869  19.199  0.00  0.00    +0.000 NA
ATOM     18  C   UNL     1       0.736  11.912  19.174  0.00  0.00    +0.000 A 
ATOM     19  N   UNL     1       0.044  11.521  18.045  0.00  0.00    +0.000 N 
ATOM     20  H   UNL     1       0.075  12.070  17.201  0.00  0.00    +0.000 HD
BRANCH  14  21
ATOM     21  C   UNL     1      -1.543  12.537  21.812  0.00  0.00    +0.000 A 
ATOM     22  C   UNL     1      -2.284  13.701  21.559  0.00  0.00    +0.000 A 
ATOM     23  C   UNL     1      -3.381  14.035  22.350  0.00  0.00    +0.000 A 
ATOM     24  C   UNL     1      -3.775  13.148  23.332  0.00  0.00    +0.000 A 
ATOM     25  N   UNL     1      -3.159  11.973  23.568  0.00  0.00    +0.000 NA
ATOM     26  C   UNL     1      -2.057  11.711  22.820  0.00  0.00    +0.000 A 
ENDBRANCH  14  21
ENDBRANCH   7  11
BRANCH   1  31
ATOM     27  C   UNL     1      -7.646  14.310  21.914  0.00  0.00    +0.000 A 
ATOM     28  C   UNL     1      -7.916  13.267  22.774  0.00  0.00    +0.000 A 
ATOM     29  N   UNL     1      -7.445  12.014  22.591  0.00  0.00    +0.000 NA
ATOM     30  C   UNL     1      -6.670  11.792  21.493  0.00  0.00    +0.000 A 
ATOM     31  C   UNL     1      -6.326  12.755  20.551  0.00  0.00    +0.000 A 
ATOM     32  C   UNL     1      -6.845  14.047  20.804  0.00  0.00    +0.000 A 
ENDBRANCH   1  31
TORSDOF 3
ENDMDL
MODEL 9
REMARK VINA RESULT:      -7.8      2.294      4.495
REMARK  Name = 
REMARK  3 active torsions:
REMARK  status: ('A' for Active; 'I' for Inactive)
REMARK    1  A    between atoms: C_5  and  C_6
REMARK    2  A    between atoms: C_12  and  C_13
REMARK    3  A    between atoms: C_16  and  C_17
REMARK                            x       y       z     vdW  Elec       q    Type
REMARK                         _______ _______ _______ _____ _____    ______ ____
ROOT
ATOM      1  C   UNL     1       0.646  11.898  19.901  0.00  0.00    +0.000 A 
ATOM      2  C   UNL     1      -0.056  11.687  21.097  0.00  0.00    +0.000 A 
ATOM      3  C   UNL     1      -0.129  10.430  21.660  0.00  0.00    +0.000 A 
ATOM      4  C   UNL     1       0.574   9.442  20.994  0.00  0.00    +0.000 A 
ATOM      5  N   UNL     1       0.747   8.133  21.320  0.00  0.00    +0.000 N 
ATOM      6  N   UNL     1       1.535   7.457  20.491  0.00  0.00    +0.000 NA
ATOM      7  C   UNL     1       1.775   8.326  19.491  0.00  0.00    +0.000 A 
ATOM      8  C   UNL     1       1.259   9.649  19.795  0.00  0.00    +0.000 A 
ATOM      9  N   UNL     1       1.297  10.898  19.209  0.00  0.00    +0.000 NA
ATOM     10  H   UNL     1       0.363   7.644  22.119  0.00  0.00    +0.000 HD
ENDROOT
BRANCH   7  11
ATOM     11  C   UNL     1       2.386   7.677  18.289  0.00  0.00    +0.000 A 
ATOM     12  C   UNL     1       1.994   6.549  17.612  0.00  0.00    +0.000 A 
ATOM     13  C   UNL     1       3.184   5.732  17.644  0.00  0.00    +0.000 A 
ATOM     14  C   UNL     1       3.532   4.509  18.282  0.00  0.00    +0.000 A 
ATOM     15  C   UNL     1       4.886   4.120  18.173  0.00  0.00    +0.000 A 
ATOM     16  C   UNL     1       5.822   5.042  17.719  0.00  0.00    +0.000 A 
ATOM     17  N   UNL     1       5.559   6.348  17.493  0.00  0.00    +0.000 NA
ATOM     18  C   UNL     1       4.245   6.631  17.566  0.00  0.00    +0.000 A 
ATOM     19  N   UNL     1       3.724   7.850  17.952  0.00  0.00    +0.000 N 
ATOM     20  H   UNL     1       4.304   8.547  18.390  0.00  0.00    +0.000 HD
BRANCH  14  21
ATOM     21  C   UNL     1       2.648   4.029  19.361  0.00  0.00    +0.000 A 
ATOM     22  C   UNL     1       2.827   4.410  20.698  0.00  0.00    +0.000 A 
ATOM     23  C   UNL     1       2.261   3.670  21.734  0.00  0.00    +0.000 A 
ATOM     24  C   UNL     1       1.447   2.603  21.408  0.00  0.00    +0.000 A 
ATOM     25  N   UNL     1       1.165   2.239  20.142  0.00  0.00    +0.000 NA
ATOM     26  C   UNL     1       1.784   2.944  19.161  0.00  0.00    +0.000 A 
ENDBRANCH  14  21
ENDBRANCH   7  11
BRANCH   1  31
ATOM     27  C   UNL     1      -0.306  15.494  19.022  0.00  0.00    +0.000 A 
ATOM     28  C   UNL     1       0.936  15.968  18.655  0.00  0.00    +0.000 A 
ATOM     29  N   UNL     1       2.046  15.200  18.633  0.00  0.00    +0.000 NA
ATOM     30  C   UNL     1       1.910  13.894  19.001  0.00  0.00    +0.000 A 
ATOM     31  C   UNL     1       0.718  13.296  19.393  0.00  0.00    +0.000 A 
ATOM     32  C   UNL     1      -0.408  14.152  19.387  0.00  0.00    +0.000 A 
ENDBRANCH   1  31
TORSDOF 3
ENDMDL
