MODEL 1
REMARK VINA RESULT:      -5.7      0.000      0.000
REMARK  Name = 
REMARK  10 active torsions:
REMARK  status: ('A' for Active; 'I' for Inactive)
REMARK    1  A    between atoms: C_1  and  C_2
REMARK    2  A    between atoms: C_2  and  O_3
REMARK    3  A    between atoms: O_3  and  C_4
REMARK    4  A    between atoms: C_4  and  C_6
REMARK    5  A    between atoms: C_7  and  N_8
REMARK    6  A    between atoms: N_8  and  C_9
REMARK    7  A    between atoms: C_9  and  C_10
REMARK    8  A    between atoms: C_10  and  N_11
REMARK    9  A    between atoms: N_17  and  C_18
REMARK   10  A    between atoms: N_26  and  C_27
REMARK                            x       y       z     vdW  Elec       q    Type
REMARK                         _______ _______ _______ _____ _____    ______ ____
ROOT
ATOM      1  C   UNL     1       5.583  14.365  22.108  0.00  0.00    +0.000 A 
ATOM      2  C   UNL     1       6.620  14.775  21.338  0.00  0.00    +0.000 A 
ATOM      3  N   UNL     1       6.367  15.261  20.008  0.00  0.00    +0.000 N 
ATOM      4  C   UNL     1       5.090  15.045  19.352  0.00  0.00    +0.000 A 
ATOM      5  S   UNL     1       4.837  15.302  17.675  0.00  0.00    +0.000 S 
ATOM      6  N   UNL     1       4.051  14.574  20.214  0.00  0.00    +0.000 N 
ATOM      7  C   UNL     1       4.206  14.384  21.581  0.00  0.00    +0.000 A 
ATOM      8  O   UNL     1       3.269  14.228  22.366  0.00  0.00    +0.000 OA
ENDROOT
BRANCH   3   9
ATOM      9  C   UNL     1       7.447  15.950  19.266  0.00  0.00    +0.000 A 
ATOM     10  C   UNL     1       8.337  15.236  18.458  0.00  0.00    +0.000 A 
ATOM     11  C   UNL     1       9.428  15.825  17.811  0.00  0.00    +0.000 A 
ATOM     12  C   UNL     1       9.594  17.197  17.867  0.00  0.00    +0.000 A 
ATOM     13  C   UNL     1       8.689  17.958  18.600  0.00  0.00    +0.000 A 
ATOM     14  C   UNL     1       7.662  17.338  19.330  0.00  0.00    +0.000 A 
ENDBRANCH   3   9
BRANCH   6  15
ATOM     15  C   UNL     1       2.700  14.378  19.712  0.00  0.00    +0.000 A 
ATOM     16  C   UNL     1       1.781  15.440  19.671  0.00  0.00    +0.000 A 
ATOM     17  C   UNL     1       0.490  15.258  19.165  0.00  0.00    +0.000 A 
ATOM     18  C   UNL     1       0.098  14.008  18.699  0.00  0.00    +0.000 A 
ATOM     19  C   UNL     1       0.982  12.933  18.763  0.00  0.00    +0.000 A 
ATOM     20  C   UNL     1       2.262  13.116  19.291  0.00  0.00    +0.000 A 
ENDBRANCH   6  15
BRANCH   1  21
ATOM     21  C   UNL     1       5.697  13.933  23.537  0.00  0.00    +0.000 C 
ATOM     22  O   UNL     1       5.958  14.686  24.462  0.00  0.00    +0.000 OA
BRANCH  21  23
ATOM     23  O   UNL     1       5.576  12.578  23.635  0.00  0.00    +0.000 OA
BRANCH  23  25
ATOM     24  C   UNL     1       7.667  11.553  24.612  0.00  0.00    +0.000 C 
ATOM     25  C   UNL     1       6.199  11.921  24.757  0.00  0.00    +0.000 C 
ENDBRANCH  23  25
ENDBRANCH  21  23
ENDBRANCH   1  21
BRANCH   2  26
ATOM     26  N   UNL     1       7.941  14.818  21.849  0.00  0.00    +0.000 N 
ATOM     27  H   UNL     1       7.936  15.363  22.713  0.00  0.00    +0.000 HD
BRANCH  26  28
ATOM     28  C   UNL     1       8.836  13.648  21.988  0.00  0.00    +0.000 C 
BRANCH  28  29
ATOM     29  C   UNL     1       8.617  12.602  20.861  0.00  0.00    +0.000 C 
BRANCH  29  30
ATOM     30  N   UNL     1       9.704  11.617  20.714  0.00  0.00    +0.000 NA
ATOM     31  C   UNL     1      11.007  12.204  20.351  0.00  0.00    +0.000 C 
ATOM     32  C   UNL     1      11.113  12.632  18.879  0.00  0.00    +0.000 C 
ATOM     33  O   UNL     1      10.837  11.535  18.001  0.00  0.00    +0.000 OA
ATOM     34  C   UNL     1       9.528  11.006  18.249  0.00  0.00    +0.000 C 
ATOM     35  C   UNL     1       9.364  10.571  19.717  0.00  0.00    +0.000 C 
ENDBRANCH  29  30
ENDBRANCH  28  29
ENDBRANCH  26  28
ENDBRANCH   2  26
TORSDOF 9
ENDMDL
MODEL 2
REMARK VINA RESULT:      -5.6      8.004     11.959
REMARK  Name = 
REMARK  10 active torsions:
REMARK  status: ('A' for Active; 'I' for Inactive)
REMARK    1  A    between atoms: C_1  and  C_2
REMARK    2  A    between atoms: C_2  and  O_3
REMARK    3  A    between atoms: O_3  and  C_4
REMARK    4  A    between atoms: C_4  and  C_6
REMARK    5  A    between atoms: C_7  and  N_8
REMARK    6  A    between atoms: N_8  and  C_9
REMARK    7  A    between atoms: C_9  and  C_10
REMARK    8  A    between atoms: C_10  and  N_11
REMARK    9  A    between atoms: N_17  and  C_18
REMARK   10  A    between atoms: N_26  and  C_27
REMARK                            x       y       z     vdW  Elec       q    Type
REMARK                         _______ _______ _______ _____ _____    ______ ____
ROOT
ATOM      1  C   UNL     1      -2.616  11.267  18.623  0.00  0.00    +0.000 A 
ATOM      2  C   UNL     1      -2.614  12.157  19.646  0.00  0.00    +0.000 A 
ATOM      3  N   UNL     1      -1.412  12.357  20.409  0.00  0.00    +0.000 N 
ATOM      4  C   UNL     1      -0.298  11.430  20.327  0.00  0.00    +0.000 A 
ATOM      5  S   UNL     1       1.009  11.426  21.439  0.00  0.00    +0.000 S 
ATOM      6  N   UNL     1      -0.383  10.492  19.251  0.00  0.00    +0.000 N 
ATOM      7  C   UNL     1      -1.407  10.482  18.312  0.00  0.00    +0.000 A 
ATOM      8  O   UNL     1      -1.362   9.859  17.250  0.00  0.00    +0.000 OA
ENDROOT
BRANCH   3   9
ATOM      9  C   UNL     1      -1.323  13.503  21.342  0.00  0.00    +0.000 A 
ATOM     10  C   UNL     1      -0.890  14.759  20.904  0.00  0.00    +0.000 A 
ATOM     11  C   UNL     1      -0.700  15.847  21.762  0.00  0.00    +0.000 A 
ATOM     12  C   UNL     1      -1.056  15.735  23.094  0.00  0.00    +0.000 A 
ATOM     13  C   UNL     1      -1.562  14.526  23.559  0.00  0.00    +0.000 A 
ATOM     14  C   UNL     1      -1.645  13.412  22.707  0.00  0.00    +0.000 A 
ENDBRANCH   3   9
BRANCH   6  15
ATOM     15  C   UNL     1       0.693   9.546  19.002  0.00  0.00    +0.000 A 
ATOM     16  C   UNL     1       0.991   8.527  19.923  0.00  0.00    +0.000 A 
ATOM     17  C   UNL     1       2.009   7.603  19.671  0.00  0.00    +0.000 A 
ATOM     18  C   UNL     1       2.749   7.688  18.496  0.00  0.00    +0.000 A 
ATOM     19  C   UNL     1       2.493   8.711  17.586  0.00  0.00    +0.000 A 
ATOM     20  C   UNL     1       1.490   9.646  17.854  0.00  0.00    +0.000 A 
ENDBRANCH   6  15
BRANCH   1  21
ATOM     21  C   UNL     1      -3.764  11.037  17.691  0.00  0.00    +0.000 C 
ATOM     22  O   UNL     1      -3.841  11.511  16.568  0.00  0.00    +0.000 OA
BRANCH  21  23
ATOM     23  O   UNL     1      -4.746  10.322  18.312  0.00  0.00    +0.000 OA
BRANCH  23  25
ATOM     24  C   UNL     1      -7.101  10.273  19.222  0.00  0.00    +0.000 C 
ATOM     25  C   UNL     1      -6.103  10.794  18.200  0.00  0.00    +0.000 C 
ENDBRANCH  23  25
ENDBRANCH  21  23
ENDBRANCH   1  21
BRANCH   2  26
ATOM     26  N   UNL     1      -3.748  12.961  19.921  0.00  0.00    +0.000 N 
ATOM     27  H   UNL     1      -4.192  13.207  19.034  0.00  0.00    +0.000 HD
BRANCH  26  28
ATOM     28  C   UNL     1      -4.776  12.658  20.941  0.00  0.00    +0.000 C 
BRANCH  28  29
ATOM     29  C   UNL     1      -5.679  13.883  21.247  0.00  0.00    +0.000 C 
BRANCH  29  30
ATOM     30  N   UNL     1      -7.103  13.564  21.456  0.00  0.00    +0.000 NA
ATOM     31  C   UNL     1      -7.890  14.665  22.042  0.00  0.00    +0.000 C 
ATOM     32  C   UNL     1      -7.653  14.873  23.545  0.00  0.00    +0.000 C 
ATOM     33  O   UNL     1      -7.916  13.673  24.280  0.00  0.00    +0.000 OA
ATOM     34  C   UNL     1      -7.086  12.602  23.813  0.00  0.00    +0.000 C 
ATOM     35  C   UNL     1      -7.276  12.358  22.304  0.00  0.00    +0.000 C 
ENDBRANCH  29  30
ENDBRANCH  28  29
ENDBRANCH  26  28
ENDBRANCH   2  26
TORSDOF 9
ENDMDL
MODEL 3
REMARK VINA RESULT:      -5.5      7.907     11.745
REMARK  Name = 
REMARK  10 active torsions:
REMARK  status: ('A' for Active; 'I' for Inactive)
REMARK    1  A    between atoms: C_1  and  C_2
REMARK    2  A    between atoms: C_2  and  O_3
REMARK    3  A    between atoms: O_3  and  C_4
REMARK    4  A    between atoms: C_4  and  C_6
REMARK    5  A    between atoms: C_7  and  N_8
REMARK    6  A    between atoms: N_8  and  C_9
REMARK    7  A    between atoms: C_9  and  C_10
REMARK    8  A    between atoms: C_10  and  N_11
REMARK    9  A    between atoms: N_17  and  C_18
REMARK   10  A    between atoms: N_26  and  C_27
REMARK                            x       y       z     vdW  Elec       q    Type
REMARK                         _______ _______ _______ _____ _____    ______ ____
ROOT
ATOM      1  C   UNL     1      -2.692  11.166  18.533  0.00  0.00    +0.000 A 
ATOM      2  C   UNL     1      -2.632  12.259  19.332  0.00  0.00    +0.000 A 
ATOM      3  N   UNL     1      -1.377  12.635  19.925  0.00  0.00    +0.000 N 
ATOM      4  C   UNL     1      -0.247  11.723  19.951  0.00  0.00    +0.000 A 
ATOM      5  S   UNL     1       1.147  11.977  20.918  0.00  0.00    +0.000 S 
ATOM      6  N   UNL     1      -0.393  10.570  19.118  0.00  0.00    +0.000 N 
ATOM      7  C   UNL     1      -1.491  10.344  18.297  0.00  0.00    +0.000 A 
ATOM      8  O   UNL     1      -1.517   9.502  17.397  0.00  0.00    +0.000 OA
ENDROOT
BRANCH   3   9
ATOM      9  C   UNL     1      -1.244  13.959  20.574  0.00  0.00    +0.000 A 
ATOM     10  C   UNL     1      -0.776  15.068  19.861  0.00  0.00    +0.000 A 
ATOM     11  C   UNL     1      -0.545  16.315  20.449  0.00  0.00    +0.000 A 
ATOM     12  C   UNL     1      -0.892  16.520  21.772  0.00  0.00    +0.000 A 
ATOM     13  C   UNL     1      -1.430  15.465  22.501  0.00  0.00    +0.000 A 
ATOM     14  C   UNL     1      -1.555  14.190  21.925  0.00  0.00    +0.000 A 
ENDBRANCH   3   9
BRANCH   6  15
ATOM     15  C   UNL     1       0.685   9.603  18.988  0.00  0.00    +0.000 A 
ATOM     16  C   UNL     1       0.959   8.682  20.013  0.00  0.00    +0.000 A 
ATOM     17  C   UNL     1       1.980   7.735  19.878  0.00  0.00    +0.000 A 
ATOM     18  C   UNL     1       2.746   7.702  18.718  0.00  0.00    +0.000 A 
ATOM     19  C   UNL     1       2.514   8.630  17.705  0.00  0.00    +0.000 A 
ATOM     20  C   UNL     1       1.508   9.588  17.855  0.00  0.00    +0.000 A 
ENDBRANCH   6  15
BRANCH   1  21
ATOM     21  C   UNL     1      -3.907  10.725  17.777  0.00  0.00    +0.000 C 
ATOM     22  O   UNL     1      -4.559   9.729  18.049  0.00  0.00    +0.000 OA
BRANCH  21  23
ATOM     23  O   UNL     1      -4.110  11.526  16.692  0.00  0.00    +0.000 OA
BRANCH  23  25
ATOM     24  C   UNL     1      -3.638  10.117  14.650  0.00  0.00    +0.000 C 
ATOM     25  C   UNL     1      -3.290  11.310  15.527  0.00  0.00    +0.000 C 
ENDBRANCH  23  25
ENDBRANCH  21  23
ENDBRANCH   1  21
BRANCH   2  26
ATOM     26  N   UNL     1      -3.762  13.092  19.522  0.00  0.00    +0.000 N 
ATOM     27  H   UNL     1      -4.099  13.393  18.606  0.00  0.00    +0.000 HD
BRANCH  26  28
ATOM     28  C   UNL     1      -4.903  12.785  20.412  0.00  0.00    +0.000 C 
BRANCH  28  29
ATOM     29  C   UNL     1      -5.399  14.036  21.186  0.00  0.00    +0.000 C 
BRANCH  29  30
ATOM     30  N   UNL     1      -6.848  14.061  21.455  0.00  0.00    +0.000 NA
ATOM     31  C   UNL     1      -7.282  15.168  22.328  0.00  0.00    +0.000 C 
ATOM     32  C   UNL     1      -6.947  14.963  23.813  0.00  0.00    +0.000 C 
ATOM     33  O   UNL     1      -7.506  13.739  24.304  0.00  0.00    +0.000 OA
ATOM     34  C   UNL     1      -7.018  12.622  23.549  0.00  0.00    +0.000 C 
ATOM     35  C   UNL     1      -7.317  12.783  22.047  0.00  0.00    +0.000 C 
ENDBRANCH  29  30
ENDBRANCH  28  29
ENDBRANCH  26  28
ENDBRANCH   2  26
TORSDOF 9
ENDMDL
MODEL 4
REMARK VINA RESULT:      -5.5      0.875      1.631
REMARK  Name = 
REMARK  10 active torsions:
REMARK  status: ('A' for Active; 'I' for Inactive)
REMARK    1  A    between atoms: C_1  and  C_2
REMARK    2  A    between atoms: C_2  and  O_3
REMARK    3  A    between atoms: O_3  and  C_4
REMARK    4  A    between atoms: C_4  and  C_6
REMARK    5  A    between atoms: C_7  and  N_8
REMARK    6  A    between atoms: N_8  and  C_9
REMARK    7  A    between atoms: C_9  and  C_10
REMARK    8  A    between atoms: C_10  and  N_11
REMARK    9  A    between atoms: N_17  and  C_18
REMARK   10  A    between atoms: N_26  and  C_27
REMARK                            x       y       z     vdW  Elec       q    Type
REMARK                         _______ _______ _______ _____ _____    ______ ____
ROOT
ATOM      1  C   UNL     1       5.737  14.204  22.151  0.00  0.00    +0.000 A 
ATOM      2  C   UNL     1       6.784  14.527  21.353  0.00  0.00    +0.000 A 
ATOM      3  N   UNL     1       6.537  15.091  20.054  0.00  0.00    +0.000 N 
ATOM      4  C   UNL     1       5.219  15.045  19.445  0.00  0.00    +0.000 A 
ATOM      5  S   UNL     1       4.933  15.396  17.790  0.00  0.00    +0.000 S 
ATOM      6  N   UNL     1       4.166  14.658  20.332  0.00  0.00    +0.000 N 
ATOM      7  C   UNL     1       4.352  14.397  21.684  0.00  0.00    +0.000 A 
ATOM      8  O   UNL     1       3.433  14.315  22.503  0.00  0.00    +0.000 OA
ENDROOT
BRANCH   3   9
ATOM      9  C   UNL     1       7.657  15.686  19.292  0.00  0.00    +0.000 A 
ATOM     10  C   UNL     1       7.942  17.053  19.376  0.00  0.00    +0.000 A 
ATOM     11  C   UNL     1       8.928  17.680  18.608  0.00  0.00    +0.000 A 
ATOM     12  C   UNL     1       9.751  16.916  17.799  0.00  0.00    +0.000 A 
ATOM     13  C   UNL     1       9.552  15.540  17.740  0.00  0.00    +0.000 A 
ATOM     14  C   UNL     1       8.488  14.942  18.436  0.00  0.00    +0.000 A 
ENDBRANCH   3   9
BRANCH   6  15
ATOM     15  C   UNL     1       2.784  14.634  19.882  0.00  0.00    +0.000 A 
ATOM     16  C   UNL     1       1.993  15.795  19.908  0.00  0.00    +0.000 A 
ATOM     17  C   UNL     1       0.671  15.777  19.451  0.00  0.00    +0.000 A 
ATOM     18  C   UNL     1       0.120  14.595  18.967  0.00  0.00    +0.000 A 
ATOM     19  C   UNL     1       0.876  13.426  18.965  0.00  0.00    +0.000 A 
ATOM     20  C   UNL     1       2.188  13.444  19.445  0.00  0.00    +0.000 A 
ENDBRANCH   6  15
BRANCH   1  21
ATOM     21  C   UNL     1       5.856  13.704  23.558  0.00  0.00    +0.000 C 
ATOM     22  O   UNL     1       5.436  12.623  23.938  0.00  0.00    +0.000 OA
BRANCH  21  23
ATOM     23  O   UNL     1       6.395  14.666  24.360  0.00  0.00    +0.000 OA
BRANCH  23  25
ATOM     24  C   UNL     1       5.838  17.061  24.938  0.00  0.00    +0.000 C 
ATOM     25  C   UNL     1       5.498  15.581  25.020  0.00  0.00    +0.000 C 
ENDBRANCH  23  25
ENDBRANCH  21  23
ENDBRANCH   1  21
BRANCH   2  26
ATOM     26  N   UNL     1       8.119  14.402  21.808  0.00  0.00    +0.000 N 
ATOM     27  H   UNL     1       8.210  14.916  22.687  0.00  0.00    +0.000 HD
BRANCH  26  28
ATOM     28  C   UNL     1       8.879  13.134  21.876  0.00  0.00    +0.000 C 
BRANCH  28  29
ATOM     29  C   UNL     1      10.169  13.174  21.014  0.00  0.00    +0.000 C 
BRANCH  29  30
ATOM     30  N   UNL     1      10.691  11.853  20.622  0.00  0.00    +0.000 NA
ATOM     31  C   UNL     1      11.861  11.906  19.726  0.00  0.00    +0.000 C 
ATOM     32  C   UNL     1      11.522  12.272  18.273  0.00  0.00    +0.000 C 
ATOM     33  O   UNL     1      10.559  11.366  17.724  0.00  0.00    +0.000 OA
ATOM     34  C   UNL     1       9.358  11.369  18.507  0.00  0.00    +0.000 C 
ATOM     35  C   UNL     1       9.644  11.019  19.979  0.00  0.00    +0.000 C 
ENDBRANCH  29  30
ENDBRANCH  28  29
ENDBRANCH  26  28
ENDBRANCH   2  26
TORSDOF 9
ENDMDL
MODEL 5
REMARK VINA RESULT:      -5.5      7.252     10.578
REMARK  Name = 
REMARK  10 active torsions:
REMARK  status: ('A' for Active; 'I' for Inactive)
REMARK    1  A    between atoms: C_1  and  C_2
REMARK    2  A    between atoms: C_2  and  O_3
REMARK    3  A    between atoms: O_3  and  C_4
REMARK    4  A    between atoms: C_4  and  C_6
REMARK    5  A    between atoms: C_7  and  N_8
REMARK    6  A    between atoms: N_8  and  C_9
REMARK    7  A    between atoms: C_9  and  C_10
REMARK    8  A    between atoms: C_10  and  N_11
REMARK    9  A    between atoms: N_17  and  C_18
REMARK   10  A    between atoms: N_26  and  C_27
REMARK                            x       y       z     vdW  Elec       q    Type
REMARK                         _______ _______ _______ _____ _____    ______ ____
ROOT
ATOM      1  C   UNL     1      -2.410  12.456  19.630  0.00  0.00    +0.000 A 
ATOM      2  C   UNL     1      -1.896  13.652  20.011  0.00  0.00    +0.000 A 
ATOM      3  N   UNL     1      -0.471  13.840  20.022  0.00  0.00    +0.000 N 
ATOM      4  C   UNL     1       0.443  12.715  19.938  0.00  0.00    +0.000 A 
ATOM      5  S   UNL     1       2.121  12.836  20.275  0.00  0.00    +0.000 S 
ATOM      6  N   UNL     1      -0.170  11.475  19.573  0.00  0.00    +0.000 N 
ATOM      7  C   UNL     1      -1.518  11.342  19.262  0.00  0.00    +0.000 A 
ATOM      8  O   UNL     1      -2.002  10.354  18.706  0.00  0.00    +0.000 OA
ENDROOT
BRANCH   3   9
ATOM      9  C   UNL     1       0.084  15.203  20.177  0.00  0.00    +0.000 A 
ATOM     10  C   UNL     1       0.303  16.024  19.065  0.00  0.00    +0.000 A 
ATOM     11  C   UNL     1       0.909  17.281  19.147  0.00  0.00    +0.000 A 
ATOM     12  C   UNL     1       1.217  17.810  20.388  0.00  0.00    +0.000 A 
ATOM     13  C   UNL     1       0.949  17.059  21.528  0.00  0.00    +0.000 A 
ATOM     14  C   UNL     1       0.439  15.755  21.420  0.00  0.00    +0.000 A 
ENDBRANCH   3   9
BRANCH   6  15
ATOM     15  C   UNL     1       0.630  10.276  19.383  0.00  0.00    +0.000 A 
ATOM     16  C   UNL     1       0.831   9.365  20.433  0.00  0.00    +0.000 A 
ATOM     17  C   UNL     1       1.580   8.199  20.243  0.00  0.00    +0.000 A 
ATOM     18  C   UNL     1       2.144   7.931  19.000  0.00  0.00    +0.000 A 
ATOM     19  C   UNL     1       1.985   8.839  17.955  0.00  0.00    +0.000 A 
ATOM     20  C   UNL     1       1.257  10.014  18.158  0.00  0.00    +0.000 A 
ENDBRANCH   6  15
BRANCH   1  21
ATOM     21  C   UNL     1      -3.870  12.162  19.479  0.00  0.00    +0.000 C 
ATOM     22  O   UNL     1      -4.649  12.063  20.414  0.00  0.00    +0.000 OA
BRANCH  21  23
ATOM     23  O   UNL     1      -4.173  11.916  18.172  0.00  0.00    +0.000 OA
BRANCH  23  25
ATOM     24  C   UNL     1      -6.372  12.734  17.239  0.00  0.00    +0.000 C 
ATOM     25  C   UNL     1      -5.542  11.610  17.839  0.00  0.00    +0.000 C 
ENDBRANCH  23  25
ENDBRANCH  21  23
ENDBRANCH   1  21
BRANCH   2  26
ATOM     26  N   UNL     1      -2.739  14.750  20.312  0.00  0.00    +0.000 N 
ATOM     27  H   UNL     1      -3.585  14.673  19.743  0.00  0.00    +0.000 HD
BRANCH  26  28
ATOM     28  C   UNL     1      -3.080  15.210  21.676  0.00  0.00    +0.000 C 
BRANCH  28  29
ATOM     29  C   UNL     1      -4.568  14.947  22.031  0.00  0.00    +0.000 C 
BRANCH  29  30
ATOM     30  N   UNL     1      -4.859  14.900  23.475  0.00  0.00    +0.000 NA
ATOM     31  C   UNL     1      -3.880  14.130  24.265  0.00  0.00    +0.000 C 
ATOM     32  C   UNL     1      -4.023  12.607  24.125  0.00  0.00    +0.000 C 
ATOM     33  O   UNL     1      -5.343  12.177  24.476  0.00  0.00    +0.000 OA
ATOM     34  C   UNL     1      -6.321  12.823  23.650  0.00  0.00    +0.000 C 
ATOM     35  C   UNL     1      -6.214  14.357  23.744  0.00  0.00    +0.000 C 
ENDBRANCH  29  30
ENDBRANCH  28  29
ENDBRANCH  26  28
ENDBRANCH   2  26
TORSDOF 9
ENDMDL
MODEL 6
REMARK VINA RESULT:      -5.5      0.690      1.350
REMARK  Name = 
REMARK  10 active torsions:
REMARK  status: ('A' for Active; 'I' for Inactive)
REMARK    1  A    between atoms: C_1  and  C_2
REMARK    2  A    between atoms: C_2  and  O_3
REMARK    3  A    between atoms: O_3  and  C_4
REMARK    4  A    between atoms: C_4  and  C_6
REMARK    5  A    between atoms: C_7  and  N_8
REMARK    6  A    between atoms: N_8  and  C_9
REMARK    7  A    between atoms: C_9  and  C_10
REMARK    8  A    between atoms: C_10  and  N_11
REMARK    9  A    between atoms: N_17  and  C_18
REMARK   10  A    between atoms: N_26  and  C_27
REMARK                            x       y       z     vdW  Elec       q    Type
REMARK                         _______ _______ _______ _____ _____    ______ ____
ROOT
ATOM      1  C   UNL     1       5.678  14.564  22.297  0.00  0.00    +0.000 A 
ATOM      2  C   UNL     1       6.728  14.799  21.474  0.00  0.00    +0.000 A 
ATOM      3  N   UNL     1       6.487  15.164  20.104  0.00  0.00    +0.000 N 
ATOM      4  C   UNL     1       5.182  14.991  19.492  0.00  0.00    +0.000 A 
ATOM      5  S   UNL     1       4.913  15.091  17.800  0.00  0.00    +0.000 S 
ATOM      6  N   UNL     1       4.126  14.703  20.413  0.00  0.00    +0.000 N 
ATOM      7  C   UNL     1       4.296  14.645  21.790  0.00  0.00    +0.000 A 
ATOM      8  O   UNL     1       3.367  14.654  22.600  0.00  0.00    +0.000 OA
ENDROOT
BRANCH   3   9
ATOM      9  C   UNL     1       7.603  15.676  19.278  0.00  0.00    +0.000 A 
ATOM     10  C   UNL     1       7.883  17.046  19.213  0.00  0.00    +0.000 A 
ATOM     11  C   UNL     1       8.864  17.589  18.378  0.00  0.00    +0.000 A 
ATOM     12  C   UNL     1       9.687  16.745  17.654  0.00  0.00    +0.000 A 
ATOM     13  C   UNL     1       9.493  15.371  17.744  0.00  0.00    +0.000 A 
ATOM     14  C   UNL     1       8.434  14.848  18.504  0.00  0.00    +0.000 A 
ENDBRANCH   3   9
BRANCH   6  15
ATOM     15  C   UNL     1       2.752  14.573  19.953  0.00  0.00    +0.000 A 
ATOM     16  C   UNL     1       2.208  13.315  19.644  0.00  0.00    +0.000 A 
ATOM     17  C   UNL     1       0.879  13.187  19.226  0.00  0.00    +0.000 A 
ATOM     18  C   UNL     1       0.078  14.317  19.105  0.00  0.00    +0.000 A 
ATOM     19  C   UNL     1       0.608  15.577  19.374  0.00  0.00    +0.000 A 
ATOM     20  C   UNL     1       1.943  15.701  19.767  0.00  0.00    +0.000 A 
ENDBRANCH   6  15
BRANCH   1  21
ATOM     21  C   UNL     1       5.787  14.275  23.763  0.00  0.00    +0.000 C 
ATOM     22  O   UNL     1       6.136  15.095  24.598  0.00  0.00    +0.000 OA
BRANCH  21  23
ATOM     23  O   UNL     1       5.549  12.955  24.007  0.00  0.00    +0.000 OA
BRANCH  23  25
ATOM     24  C   UNL     1       5.685  10.967  25.558  0.00  0.00    +0.000 C 
ATOM     25  C   UNL     1       5.716  12.473  25.355  0.00  0.00    +0.000 C 
ENDBRANCH  23  25
ENDBRANCH  21  23
ENDBRANCH   1  21
BRANCH   2  26
ATOM     26  N   UNL     1       8.059  14.782  21.959  0.00  0.00    +0.000 N 
ATOM     27  H   UNL     1       8.110  15.382  22.785  0.00  0.00    +0.000 HD
BRANCH  26  28
ATOM     28  C   UNL     1       8.874  13.564  22.161  0.00  0.00    +0.000 C 
BRANCH  28  29
ATOM     29  C   UNL     1      10.055  13.473  21.157  0.00  0.00    +0.000 C 
BRANCH  29  30
ATOM     30  N   UNL     1      10.570  12.110  20.933  0.00  0.00    +0.000 NA
ATOM     31  C   UNL     1      11.740  12.046  20.037  0.00  0.00    +0.000 C 
ATOM     32  C   UNL     1      11.401  12.229  18.550  0.00  0.00    +0.000 C 
ATOM     33  O   UNL     1      10.434  11.265  18.119  0.00  0.00    +0.000 OA
ATOM     34  C   UNL     1       9.234  11.371  18.896  0.00  0.00    +0.000 C 
ATOM     35  C   UNL     1       9.520  11.207  20.400  0.00  0.00    +0.000 C 
ENDBRANCH  29  30
ENDBRANCH  28  29
ENDBRANCH  26  28
ENDBRANCH   2  26
TORSDOF 9
ENDMDL
MODEL 7
REMARK VINA RESULT:      -5.5      7.853     11.710
REMARK  Name = 
REMARK  10 active torsions:
REMARK  status: ('A' for Active; 'I' for Inactive)
REMARK    1  A    between atoms: C_1  and  C_2
REMARK    2  A    between atoms: C_2  and  O_3
REMARK    3  A    between atoms: O_3  and  C_4
REMARK    4  A    between atoms: C_4  and  C_6
REMARK    5  A    between atoms: C_7  and  N_8
REMARK    6  A    between atoms: N_8  and  C_9
REMARK    7  A    between atoms: C_9  and  C_10
REMARK    8  A    between atoms: C_10  and  N_11
REMARK    9  A    between atoms: N_17  and  C_18
REMARK   10  A    between atoms: N_26  and  C_27
REMARK                            x       y       z     vdW  Elec       q    Type
REMARK                         _______ _______ _______ _____ _____    ______ ____
ROOT
ATOM      1  C   UNL     1      -2.756  11.552  18.950  0.00  0.00    +0.000 A 
ATOM      2  C   UNL     1      -2.552  12.678  19.677  0.00  0.00    +0.000 A 
ATOM      3  N   UNL     1      -1.219  13.017  20.098  0.00  0.00    +0.000 N 
ATOM      4  C   UNL     1      -0.137  12.051  20.040  0.00  0.00    +0.000 A 
ATOM      5  S   UNL     1       1.373  12.279  20.823  0.00  0.00    +0.000 S 
ATOM      6  N   UNL     1      -0.433  10.868  19.293  0.00  0.00    +0.000 N 
ATOM      7  C   UNL     1      -1.630  10.659  18.620  0.00  0.00    +0.000 A 
ATOM      8  O   UNL     1      -1.801   9.778  17.775  0.00  0.00    +0.000 OA
ENDROOT
BRANCH   3   9
ATOM      9  C   UNL     1      -0.950  14.362  20.655  0.00  0.00    +0.000 A 
ATOM     10  C   UNL     1      -1.026  14.601  22.031  0.00  0.00    +0.000 A 
ATOM     11  C   UNL     1      -0.873  15.870  22.599  0.00  0.00    +0.000 A 
ATOM     12  C   UNL     1      -0.519  16.938  21.794  0.00  0.00    +0.000 A 
ATOM     13  C   UNL     1      -0.360  16.732  20.428  0.00  0.00    +0.000 A 
ATOM     14  C   UNL     1      -0.623  15.473  19.860  0.00  0.00    +0.000 A 
ENDBRANCH   3   9
BRANCH   6  15
ATOM     15  C   UNL     1       0.578   9.842  19.090  0.00  0.00    +0.000 A 
ATOM     16  C   UNL     1       0.879   8.912  20.100  0.00  0.00    +0.000 A 
ATOM     17  C   UNL     1       1.833   7.910  19.895  0.00  0.00    +0.000 A 
ATOM     18  C   UNL     1       2.504   7.829  18.680  0.00  0.00    +0.000 A 
ATOM     19  C   UNL     1       2.245   8.763  17.679  0.00  0.00    +0.000 A 
ATOM     20  C   UNL     1       1.309   9.776  17.897  0.00  0.00    +0.000 A 
ENDBRANCH   6  15
BRANCH   1  21
ATOM     21  C   UNL     1      -4.072  11.138  18.367  0.00  0.00    +0.000 C 
ATOM     22  O   UNL     1      -4.487   9.989  18.361  0.00  0.00    +0.000 OA
BRANCH  21  23
ATOM     23  O   UNL     1      -4.676  12.197  17.757  0.00  0.00    +0.000 OA
BRANCH  23  25
ATOM     24  C   UNL     1      -6.780  13.351  16.970  0.00  0.00    +0.000 C 
ATOM     25  C   UNL     1      -6.077  12.086  17.436  0.00  0.00    +0.000 C 
ENDBRANCH  23  25
ENDBRANCH  21  23
ENDBRANCH   1  21
BRANCH   2  26
ATOM     26  N   UNL     1      -3.612  13.575  19.953  0.00  0.00    +0.000 N 
ATOM     27  H   UNL     1      -4.251  13.576  19.156  0.00  0.00    +0.000 HD
BRANCH  26  28
ATOM     28  C   UNL     1      -4.375  13.624  21.220  0.00  0.00    +0.000 C 
BRANCH  28  29
ATOM     29  C   UNL     1      -5.555  12.615  21.235  0.00  0.00    +0.000 C 
BRANCH  29  30
ATOM     30  N   UNL     1      -6.885  13.224  21.415  0.00  0.00    +0.000 NA
ATOM     31  C   UNL     1      -6.916  14.333  22.386  0.00  0.00    +0.000 C 
ATOM     32  C   UNL     1      -6.855  13.883  23.854  0.00  0.00    +0.000 C 
ATOM     33  O   UNL     1      -7.917  12.971  24.158  0.00  0.00    +0.000 OA
ATOM     34  C   UNL     1      -7.854  11.820  23.305  0.00  0.00    +0.000 C 
ATOM     35  C   UNL     1      -7.899  12.217  21.818  0.00  0.00    +0.000 C 
ENDBRANCH  29  30
ENDBRANCH  28  29
ENDBRANCH  26  28
ENDBRANCH   2  26
TORSDOF 9
ENDMDL
MODEL 8
REMARK VINA RESULT:      -5.5      2.783      7.837
REMARK  Name = 
REMARK  10 active torsions:
REMARK  status: ('A' for Active; 'I' for Inactive)
REMARK    1  A    between atoms: C_1  and  C_2
REMARK    2  A    between atoms: C_2  and  O_3
REMARK    3  A    between atoms: O_3  and  C_4
REMARK    4  A    between atoms: C_4  and  C_6
REMARK    5  A    between atoms: C_7  and  N_8
REMARK    6  A    between atoms: N_8  and  C_9
REMARK    7  A    between atoms: C_9  and  C_10
REMARK    8  A    between atoms: C_10  and  N_11
REMARK    9  A    between atoms: N_17  and  C_18
REMARK   10  A    between atoms: N_26  and  C_27
REMARK                            x       y       z     vdW  Elec       q    Type
REMARK                         _______ _______ _______ _____ _____    ______ ____
ROOT
ATOM      1  C   UNL     1       6.658  15.490  19.818  0.00  0.00    +0.000 A 
ATOM      2  C   UNL     1       6.435  14.809  20.969  0.00  0.00    +0.000 A 
ATOM      3  N   UNL     1       7.486  14.004  21.530  0.00  0.00    +0.000 N 
ATOM      4  C   UNL     1       8.664  13.650  20.760  0.00  0.00    +0.000 A 
ATOM      5  S   UNL     1       9.779  12.439  21.245  0.00  0.00    +0.000 S 
ATOM      6  N   UNL     1       8.816  14.376  19.537  0.00  0.00    +0.000 N 
ATOM      7  C   UNL     1       7.954  15.383  19.124  0.00  0.00    +0.000 A 
ATOM      8  O   UNL     1       8.209  16.181  18.219  0.00  0.00    +0.000 OA
ENDROOT
BRANCH   3   9
ATOM      9  C   UNL     1       7.345  13.477  22.906  0.00  0.00    +0.000 A 
ATOM     10  C   UNL     1       6.752  12.232  23.145  0.00  0.00    +0.000 A 
ATOM     11  C   UNL     1       6.510  11.731  24.427  0.00  0.00    +0.000 A 
ATOM     12  C   UNL     1       6.971  12.428  25.530  0.00  0.00    +0.000 A 
ATOM     13  C   UNL     1       7.632  13.637  25.337  0.00  0.00    +0.000 A 
ATOM     14  C   UNL     1       7.771  14.177  24.048  0.00  0.00    +0.000 A 
ENDBRANCH   3   9
BRANCH   6  15
ATOM     15  C   UNL     1       9.985  14.177  18.694  0.00  0.00    +0.000 A 
ATOM     16  C   UNL     1       9.971  13.241  17.646  0.00  0.00    +0.000 A 
ATOM     17  C   UNL     1      11.086  13.068  16.819  0.00  0.00    +0.000 A 
ATOM     18  C   UNL     1      12.233  13.826  17.034  0.00  0.00    +0.000 A 
ATOM     19  C   UNL     1      12.279  14.734  18.089  0.00  0.00    +0.000 A 
ATOM     20  C   UNL     1      11.171  14.885  18.926  0.00  0.00    +0.000 A 
ENDBRANCH   6  15
BRANCH   1  21
ATOM     21  C   UNL     1       5.688  16.438  19.184  0.00  0.00    +0.000 C 
ATOM     22  O   UNL     1       5.757  17.654  19.277  0.00  0.00    +0.000 OA
BRANCH  21  23
ATOM     23  O   UNL     1       4.671  15.751  18.588  0.00  0.00    +0.000 OA
BRANCH  23  25
ATOM     24  C   UNL     1       2.367  16.776  18.463  0.00  0.00    +0.000 C 
ATOM     25  C   UNL     1       3.712  16.496  17.812  0.00  0.00    +0.000 C 
ENDBRANCH  23  25
ENDBRANCH  21  23
ENDBRANCH   1  21
BRANCH   2  26
ATOM     26  N   UNL     1       5.216  14.946  21.678  0.00  0.00    +0.000 N 
ATOM     27  H   UNL     1       4.952  15.933  21.678  0.00  0.00    +0.000 HD
BRANCH  26  28
ATOM     28  C   UNL     1       4.021  14.096  21.485  0.00  0.00    +0.000 C 
BRANCH  28  29
ATOM     29  C   UNL     1       2.699  14.894  21.644  0.00  0.00    +0.000 C 
BRANCH  29  30
ATOM     30  N   UNL     1       1.508  14.069  21.914  0.00  0.00    +0.000 NA
ATOM     31  C   UNL     1       1.190  13.100  20.849  0.00  0.00    +0.000 C 
ATOM     32  C   UNL     1       0.547  13.729  19.603  0.00  0.00    +0.000 C 
ATOM     33  O   UNL     1      -0.641  14.451  19.943  0.00  0.00    +0.000 OA
ATOM     34  C   UNL     1      -0.351  15.481  20.897  0.00  0.00    +0.000 C 
ATOM     35  C   UNL     1       0.308  14.905  22.165  0.00  0.00    +0.000 C 
ENDBRANCH  29  30
ENDBRANCH  28  29
ENDBRANCH  26  28
ENDBRANCH   2  26
TORSDOF 9
ENDMDL
MODEL 9
REMARK VINA RESULT:      -5.4      7.943     11.179
REMARK  Name = 
REMARK  10 active torsions:
REMARK  status: ('A' for Active; 'I' for Inactive)
REMARK    1  A    between atoms: C_1  and  C_2
REMARK    2  A    between atoms: C_2  and  O_3
REMARK    3  A    between atoms: O_3  and  C_4
REMARK    4  A    between atoms: C_4  and  C_6
REMARK    5  A    between atoms: C_7  and  N_8
REMARK    6  A    between atoms: N_8  and  C_9
REMARK    7  A    between atoms: C_9  and  C_10
REMARK    8  A    between atoms: C_10  and  N_11
REMARK    9  A    between atoms: N_17  and  C_18
REMARK   10  A    between atoms: N_26  and  C_27
REMARK                            x       y       z     vdW  Elec       q    Type
REMARK                         _______ _______ _______ _____ _____    ______ ____
ROOT
ATOM      1  C   UNL     1      -2.983  11.619  18.719  0.00  0.00    +0.000 A 
ATOM      2  C   UNL     1      -2.838  12.738  19.471  0.00  0.00    +0.000 A 
ATOM      3  N   UNL     1      -1.544  13.073  20.001  0.00  0.00    +0.000 N 
ATOM      4  C   UNL     1      -0.460  12.108  20.021  0.00  0.00    +0.000 A 
ATOM      5  S   UNL     1       0.982  12.328  20.924  0.00  0.00    +0.000 S 
ATOM      6  N   UNL     1      -0.695  10.932  19.241  0.00  0.00    +0.000 N 
ATOM      7  C   UNL     1      -1.833  10.730  18.472  0.00  0.00    +0.000 A 
ATOM      8  O   UNL     1      -1.935   9.856  17.607  0.00  0.00    +0.000 OA
ENDROOT
BRANCH   3   9
ATOM      9  C   UNL     1      -1.322  14.412  20.591  0.00  0.00    +0.000 A 
ATOM     10  C   UNL     1      -0.915  15.491  19.799  0.00  0.00    +0.000 A 
ATOM     11  C   UNL     1      -0.602  16.750  20.320  0.00  0.00    +0.000 A 
ATOM     12  C   UNL     1      -0.804  17.000  21.665  0.00  0.00    +0.000 A 
ATOM     13  C   UNL     1      -1.279  15.977  22.480  0.00  0.00    +0.000 A 
ATOM     14  C   UNL     1      -1.485  14.688  21.959  0.00  0.00    +0.000 A 
ENDBRANCH   3   9
BRANCH   6  15
ATOM     15  C   UNL     1       0.330   9.908  19.110  0.00  0.00    +0.000 A 
ATOM     16  C   UNL     1       1.080   9.781  17.928  0.00  0.00    +0.000 A 
ATOM     17  C   UNL     1       2.083   8.813  17.812  0.00  0.00    +0.000 A 
ATOM     18  C   UNL     1       2.345   7.954  18.874  0.00  0.00    +0.000 A 
ATOM     19  C   UNL     1       1.589   8.041  20.041  0.00  0.00    +0.000 A 
ATOM     20  C   UNL     1       0.572   8.994  20.143  0.00  0.00    +0.000 A 
ENDBRANCH   6  15
BRANCH   1  21
ATOM     21  C   UNL     1      -4.247  11.210  18.028  0.00  0.00    +0.000 C 
ATOM     22  O   UNL     1      -4.548  11.550  16.894  0.00  0.00    +0.000 OA
BRANCH  21  23
ATOM     23  O   UNL     1      -5.047  10.505  18.877  0.00  0.00    +0.000 OA
BRANCH  23  25
ATOM     24  C   UNL     1      -7.282  10.625  20.048  0.00  0.00    +0.000 C 
ATOM     25  C   UNL     1      -6.474  10.672  18.761  0.00  0.00    +0.000 C 
ENDBRANCH  23  25
ENDBRANCH  21  23
ENDBRANCH   1  21
BRANCH   2  26
ATOM     26  N   UNL     1      -3.918  13.632  19.670  0.00  0.00    +0.000 N 
ATOM     27  H   UNL     1      -4.309  13.875  18.758  0.00  0.00    +0.000 HD
BRANCH  26  28
ATOM     28  C   UNL     1      -5.004  13.447  20.658  0.00  0.00    +0.000 C 
BRANCH  28  29
ATOM     29  C   UNL     1      -4.531  12.657  21.909  0.00  0.00    +0.000 C 
BRANCH  29  30
ATOM     30  N   UNL     1      -5.291  12.939  23.140  0.00  0.00    +0.000 NA
ATOM     31  C   UNL     1      -5.859  14.298  23.202  0.00  0.00    +0.000 C 
ATOM     32  C   UNL     1      -4.828  15.394  23.514  0.00  0.00    +0.000 C 
ATOM     33  O   UNL     1      -4.141  15.122  24.740  0.00  0.00    +0.000 OA
ATOM     34  C   UNL     1      -3.479  13.852  24.678  0.00  0.00    +0.000 C 
ATOM     35  C   UNL     1      -4.468  12.716  24.355  0.00  0.00    +0.000 C 
ENDBRANCH  29  30
ENDBRANCH  28  29
ENDBRANCH  26  28
ENDBRANCH   2  26
TORSDOF 9
ENDMDL
