MODEL 1
REMARK VINA RESULT:      -6.9      0.000      0.000
REMARK  Name = 
REMARK  4 active torsions:
REMARK  status: ('A' for Active; 'I' for Inactive)
REMARK    1  A    between atoms: C_1  and  O_2
REMARK    2  A    between atoms: O_2  and  C_3
REMARK    3  A    between atoms: C_6  and  C_7
REMARK    4  A    between atoms: C_7  and  N_8
REMARK                            x       y       z     vdW  Elec       q    Type
REMARK                         _______ _______ _______ _____ _____    ______ ____
ROOT
ATOM      1  C   UNL     1       4.854   4.063  17.135  0.00  0.00    +0.000 C 
ENDROOT
BRANCH   1   2
ATOM      2  N   UNL     1       3.443   4.488  17.227  0.00  0.00    +0.000 NA
ATOM      3  C   UNL     1       2.475   3.388  17.313  0.00  0.00    +0.000 C 
ATOM      4  C   UNL     1       2.482   2.634  18.640  0.00  0.00    +0.000 C 
ATOM      5  C   UNL     1       2.404   3.573  19.851  0.00  0.00    +0.000 C 
ATOM      6  C   UNL     1       3.267   4.829  19.725  0.00  0.00    +0.000 C 
ATOM      7  C   UNL     1       3.207   5.438  18.321  0.00  0.00    +0.000 C 
ATOM      8  C   UNL     1       2.680   2.781  21.155  0.00  0.00    +0.000 C 
ATOM      9  O   UNL     1       1.260   2.674  21.423  0.00  0.00    +0.000 OA
ATOM     10  C   UNL     1       1.003   3.763  20.492  0.00  0.00    +0.000 C 
ENDBRANCH   1   2
BRANCH   1  14
ATOM     11  C   UNL     1       7.787   7.042  18.338  0.00  0.00    +0.000 A 
ATOM     12  C   UNL     1       7.690   5.846  19.042  0.00  0.00    +0.000 A 
ATOM     13  C   UNL     1       6.753   4.874  18.656  0.00  0.00    +0.000 A 
ATOM     14  C   UNL     1       5.886   5.092  17.577  0.00  0.00    +0.000 A 
ATOM     15  C   UNL     1       6.049   6.273  16.834  0.00  0.00    +0.000 A 
ATOM     16  C   UNL     1       6.986   7.240  17.213  0.00  0.00    +0.000 A 
BRANCH  11  18
ATOM     17  C   UNL     1       8.305   9.341  18.037  0.00  0.00    +0.000 C 
ATOM     18  O   UNL     1       8.630   8.084  18.628  0.00  0.00    +0.000 OA
ENDBRANCH  11  18
ENDBRANCH   1  14
TORSDOF 3
ENDMDL
MODEL 2
REMARK VINA RESULT:      -6.9      0.906      1.013
REMARK  Name = 
REMARK  4 active torsions:
REMARK  status: ('A' for Active; 'I' for Inactive)
REMARK    1  A    between atoms: C_1  and  O_2
REMARK    2  A    between atoms: O_2  and  C_3
REMARK    3  A    between atoms: C_6  and  C_7
REMARK    4  A    between atoms: C_7  and  N_8
REMARK                            x       y       z     vdW  Elec       q    Type
REMARK                         _______ _______ _______ _____ _____    ______ ____
ROOT
ATOM      1  C   UNL     1       4.386   3.374  17.193  0.00  0.00    +0.000 C 
ENDROOT
BRANCH   1   2
ATOM      2  N   UNL     1       2.957   3.691  17.394  0.00  0.00    +0.000 NA
ATOM      3  C   UNL     1       2.122   2.544  17.766  0.00  0.00    +0.000 C 
ATOM      4  C   UNL     1       2.351   2.018  19.181  0.00  0.00    +0.000 C 
ATOM      5  C   UNL     1       2.312   3.132  20.235  0.00  0.00    +0.000 C 
ATOM      6  C   UNL     1       3.024   4.417  19.814  0.00  0.00    +0.000 C 
ATOM      7  C   UNL     1       2.749   4.784  18.353  0.00  0.00    +0.000 C 
ATOM      8  C   UNL     1       2.808   2.587  21.600  0.00  0.00    +0.000 C 
ATOM      9  O   UNL     1       1.444   2.408  22.055  0.00  0.00    +0.000 OA
ATOM     10  C   UNL     1       0.978   3.307  21.009  0.00  0.00    +0.000 C 
ENDBRANCH   1   2
BRANCH   1  14
ATOM     11  C   UNL     1       7.061   6.803  17.095  0.00  0.00    +0.000 A 
ATOM     12  C   UNL     1       7.261   5.800  18.038  0.00  0.00    +0.000 A 
ATOM     13  C   UNL     1       6.409   4.685  18.071  0.00  0.00    +0.000 A 
ATOM     14  C   UNL     1       5.333   4.567  17.181  0.00  0.00    +0.000 A 
ATOM     15  C   UNL     1       5.193   5.553  16.189  0.00  0.00    +0.000 A 
ATOM     16  C   UNL     1       6.044   6.663  16.150  0.00  0.00    +0.000 A 
BRANCH  11  18
ATOM     17  C   UNL     1       8.226   8.558  18.196  0.00  0.00    +0.000 C 
ATOM     18  O   UNL     1       7.795   7.956  16.975  0.00  0.00    +0.000 OA
ENDBRANCH  11  18
ENDBRANCH   1  14
TORSDOF 3
ENDMDL
MODEL 3
REMARK VINA RESULT:      -6.7      0.944      1.536
REMARK  Name = 
REMARK  4 active torsions:
REMARK  status: ('A' for Active; 'I' for Inactive)
REMARK    1  A    between atoms: C_1  and  O_2
REMARK    2  A    between atoms: O_2  and  C_3
REMARK    3  A    between atoms: C_6  and  C_7
REMARK    4  A    between atoms: C_7  and  N_8
REMARK                            x       y       z     vdW  Elec       q    Type
REMARK                         _______ _______ _______ _____ _____    ______ ____
ROOT
ATOM      1  C   UNL     1       4.450   3.310  17.227  0.00  0.00    +0.000 C 
ENDROOT
BRANCH   1   2
ATOM      2  N   UNL     1       3.000   3.551  17.370  0.00  0.00    +0.000 NA
ATOM      3  C   UNL     1       2.220   2.376  17.773  0.00  0.00    +0.000 C 
ATOM      4  C   UNL     1       2.433   1.933  19.218  0.00  0.00    +0.000 C 
ATOM      5  C   UNL     1       2.296   3.090  20.215  0.00  0.00    +0.000 C 
ATOM      6  C   UNL     1       2.946   4.394  19.752  0.00  0.00    +0.000 C 
ATOM      7  C   UNL     1       2.698   4.674  18.267  0.00  0.00    +0.000 C 
ATOM      8  C   UNL     1       2.777   2.642  21.619  0.00  0.00    +0.000 C 
ATOM      9  O   UNL     1       1.412   2.405  22.042  0.00  0.00    +0.000 OA
ATOM     10  C   UNL     1       0.929   3.224  20.940  0.00  0.00    +0.000 C 
ENDBRANCH   1   2
BRANCH   1  14
ATOM     11  C   UNL     1       6.975   6.844  16.990  0.00  0.00    +0.000 A 
ATOM     12  C   UNL     1       5.869   6.730  16.154  0.00  0.00    +0.000 A 
ATOM     13  C   UNL     1       5.043   5.598  16.230  0.00  0.00    +0.000 A 
ATOM     14  C   UNL     1       5.321   4.554  17.123  0.00  0.00    +0.000 A 
ATOM     15  C   UNL     1       6.399   4.722  18.009  0.00  0.00    +0.000 A 
ATOM     16  C   UNL     1       7.221   5.852  17.940  0.00  0.00    +0.000 A 
BRANCH  11  18
ATOM     17  C   UNL     1       8.241   8.388  18.278  0.00  0.00    +0.000 C 
ATOM     18  O   UNL     1       7.880   7.875  16.996  0.00  0.00    +0.000 OA
ENDBRANCH  11  18
ENDBRANCH   1  14
TORSDOF 3
ENDMDL
MODEL 4
REMARK VINA RESULT:      -6.6      1.311      6.247
REMARK  Name = 
REMARK  4 active torsions:
REMARK  status: ('A' for Active; 'I' for Inactive)
REMARK    1  A    between atoms: C_1  and  O_2
REMARK    2  A    between atoms: O_2  and  C_3
REMARK    3  A    between atoms: C_6  and  C_7
REMARK    4  A    between atoms: C_7  and  N_8
REMARK                            x       y       z     vdW  Elec       q    Type
REMARK                         _______ _______ _______ _____ _____    ______ ____
ROOT
ATOM      1  C   UNL     1       4.677   3.689  16.490  0.00  0.00    +0.000 C 
ENDROOT
BRANCH   1   2
ATOM      2  N   UNL     1       4.846   5.062  15.974  0.00  0.00    +0.000 NA
ATOM      3  C   UNL     1       4.569   6.123  16.949  0.00  0.00    +0.000 C 
ATOM      4  C   UNL     1       5.610   6.259  18.057  0.00  0.00    +0.000 C 
ATOM      5  C   UNL     1       7.042   6.331  17.513  0.00  0.00    +0.000 C 
ATOM      6  C   UNL     1       7.325   5.359  16.367  0.00  0.00    +0.000 C 
ATOM      7  C   UNL     1       6.166   5.282  15.369  0.00  0.00    +0.000 C 
ATOM      8  C   UNL     1       8.059   6.203  18.676  0.00  0.00    +0.000 C 
ATOM      9  O   UNL     1       8.236   7.640  18.717  0.00  0.00    +0.000 OA
ATOM     10  C   UNL     1       7.664   7.747  17.382  0.00  0.00    +0.000 C 
ENDBRANCH   1   2
BRANCH   1  14
ATOM     11  C   UNL     1       1.750   3.179  19.668  0.00  0.00    +0.000 A 
ATOM     12  C   UNL     1       1.320   3.427  18.368  0.00  0.00    +0.000 A 
ATOM     13  C   UNL     1       2.257   3.584  17.334  0.00  0.00    +0.000 A 
ATOM     14  C   UNL     1       3.634   3.518  17.587  0.00  0.00    +0.000 A 
ATOM     15  C   UNL     1       4.046   3.194  18.891  0.00  0.00    +0.000 A 
ATOM     16  C   UNL     1       3.114   3.031  19.922  0.00  0.00    +0.000 A 
BRANCH  11  18
ATOM     17  C   UNL     1       1.571   2.517  21.943  0.00  0.00    +0.000 C 
ATOM     18  O   UNL     1       0.947   3.041  20.771  0.00  0.00    +0.000 OA
ENDBRANCH  11  18
ENDBRANCH   1  14
TORSDOF 3
ENDMDL
MODEL 5
REMARK VINA RESULT:      -6.6      1.476      2.272
REMARK  Name = 
REMARK  4 active torsions:
REMARK  status: ('A' for Active; 'I' for Inactive)
REMARK    1  A    between atoms: C_1  and  O_2
REMARK    2  A    between atoms: O_2  and  C_3
REMARK    3  A    between atoms: C_6  and  C_7
REMARK    4  A    between atoms: C_7  and  N_8
REMARK                            x       y       z     vdW  Elec       q    Type
REMARK                         _______ _______ _______ _____ _____    ______ ____
ROOT
ATOM      1  C   UNL     1       2.828   3.625  16.795  0.00  0.00    +0.000 C 
ENDROOT
BRANCH   1   2
ATOM      2  N   UNL     1       2.691   2.392  17.597  0.00  0.00    +0.000 NA
ATOM      3  C   UNL     1       3.730   2.206  18.616  0.00  0.00    +0.000 C 
ATOM      4  C   UNL     1       3.639   3.159  19.804  0.00  0.00    +0.000 C 
ATOM      5  C   UNL     1       2.231   3.207  20.413  0.00  0.00    +0.000 C 
ATOM      6  C   UNL     1       1.104   3.223  19.380  0.00  0.00    +0.000 C 
ATOM      7  C   UNL     1       1.366   2.263  18.217  0.00  0.00    +0.000 C 
ATOM      8  C   UNL     1       2.133   4.373  21.431  0.00  0.00    +0.000 C 
ATOM      9  O   UNL     1       2.342   3.461  22.537  0.00  0.00    +0.000 OA
ATOM     10  C   UNL     1       1.992   2.340  21.677  0.00  0.00    +0.000 C 
ENDBRANCH   1   2
BRANCH   1  14
ATOM     11  C   UNL     1       6.654   5.677  17.067  0.00  0.00    +0.000 A 
ATOM     12  C   UNL     1       6.558   4.489  16.350  0.00  0.00    +0.000 A 
ATOM     13  C   UNL     1       5.326   3.824  16.249  0.00  0.00    +0.000 A 
ATOM     14  C   UNL     1       4.178   4.323  16.879  0.00  0.00    +0.000 A 
ATOM     15  C   UNL     1       4.279   5.561  17.536  0.00  0.00    +0.000 A 
ATOM     16  C   UNL     1       5.504   6.229  17.634  0.00  0.00    +0.000 A 
BRANCH  11  18
ATOM     17  C   UNL     1       7.623   7.811  17.458  0.00  0.00    +0.000 C 
ATOM     18  O   UNL     1       7.797   6.406  17.273  0.00  0.00    +0.000 OA
ENDBRANCH  11  18
ENDBRANCH   1  14
TORSDOF 3
ENDMDL
MODEL 6
REMARK VINA RESULT:      -6.6      3.830      6.016
REMARK  Name = 
REMARK  4 active torsions:
REMARK  status: ('A' for Active; 'I' for Inactive)
REMARK    1  A    between atoms: C_1  and  O_2
REMARK    2  A    between atoms: O_2  and  C_3
REMARK    3  A    between atoms: C_6  and  C_7
REMARK    4  A    between atoms: C_7  and  N_8
REMARK                            x       y       z     vdW  Elec       q    Type
REMARK                         _______ _______ _______ _____ _____    ______ ____
ROOT
ATOM      1  C   UNL     1       3.002   5.940  18.079  0.00  0.00    +0.000 C 
ENDROOT
BRANCH   1   2
ATOM      2  N   UNL     1       4.468   5.866  18.236  0.00  0.00    +0.000 NA
ATOM      3  C   UNL     1       5.030   4.516  18.114  0.00  0.00    +0.000 C 
ATOM      4  C   UNL     1       5.010   3.940  16.701  0.00  0.00    +0.000 C 
ATOM      5  C   UNL     1       5.593   4.908  15.663  0.00  0.00    +0.000 C 
ATOM      6  C   UNL     1       5.173   6.364  15.860  0.00  0.00    +0.000 C 
ATOM      7  C   UNL     1       5.182   6.779  17.334  0.00  0.00    +0.000 C 
ATOM      8  C   UNL     1       5.307   4.386  14.231  0.00  0.00    +0.000 C 
ATOM      9  O   UNL     1       6.641   3.827  14.138  0.00  0.00    +0.000 OA
ATOM     10  C   UNL     1       7.069   4.669  15.246  0.00  0.00    +0.000 C 
ENDBRANCH   1   2
BRANCH   1  14
ATOM     11  C   UNL     1       1.111   9.527  19.656  0.00  0.00    +0.000 A 
ATOM     12  C   UNL     1       1.428   8.480  20.515  0.00  0.00    +0.000 A 
ATOM     13  C   UNL     1       2.047   7.322  20.018  0.00  0.00    +0.000 A 
ATOM     14  C   UNL     1       2.337   7.184  18.653  0.00  0.00    +0.000 A 
ATOM     15  C   UNL     1       2.076   8.281  17.814  0.00  0.00    +0.000 A 
ATOM     16  C   UNL     1       1.464   9.438  18.309  0.00  0.00    +0.000 A 
BRANCH  11  18
ATOM     17  C   UNL     1      -0.032  11.478  18.925  0.00  0.00    +0.000 C 
ATOM     18  O   UNL     1       0.478  10.693  20.003  0.00  0.00    +0.000 OA
ENDBRANCH  11  18
ENDBRANCH   1  14
TORSDOF 3
ENDMDL
MODEL 7
REMARK VINA RESULT:      -6.6      3.822      6.079
REMARK  Name = 
REMARK  4 active torsions:
REMARK  status: ('A' for Active; 'I' for Inactive)
REMARK    1  A    between atoms: C_1  and  O_2
REMARK    2  A    between atoms: O_2  and  C_3
REMARK    3  A    between atoms: C_6  and  C_7
REMARK    4  A    between atoms: C_7  and  N_8
REMARK                            x       y       z     vdW  Elec       q    Type
REMARK                         _______ _______ _______ _____ _____    ______ ____
ROOT
ATOM      1  C   UNL     1       3.086   5.930  18.128  0.00  0.00    +0.000 C 
ENDROOT
BRANCH   1   2
ATOM      2  N   UNL     1       4.557   5.882  18.245  0.00  0.00    +0.000 NA
ATOM      3  C   UNL     1       5.139   4.541  18.117  0.00  0.00    +0.000 C 
ATOM      4  C   UNL     1       5.090   3.955  16.709  0.00  0.00    +0.000 C 
ATOM      5  C   UNL     1       5.627   4.925  15.648  0.00  0.00    +0.000 C 
ATOM      6  C   UNL     1       5.186   6.375  15.847  0.00  0.00    +0.000 C 
ATOM      7  C   UNL     1       5.229   6.801  17.317  0.00  0.00    +0.000 C 
ATOM      8  C   UNL     1       5.310   4.387  14.228  0.00  0.00    +0.000 C 
ATOM      9  O   UNL     1       6.650   3.851  14.102  0.00  0.00    +0.000 OA
ATOM     10  C   UNL     1       7.094   4.709  15.191  0.00  0.00    +0.000 C 
ENDBRANCH   1   2
BRANCH   1  14
ATOM     11  C   UNL     1       1.181   9.533  19.649  0.00  0.00    +0.000 A 
ATOM     12  C   UNL     1       1.465   9.424  18.291  0.00  0.00    +0.000 A 
ATOM     13  C   UNL     1       2.071   8.262  17.790  0.00  0.00    +0.000 A 
ATOM     14  C   UNL     1       2.422   7.202  18.638  0.00  0.00    +0.000 A 
ATOM     15  C   UNL     1       2.060   7.301  19.992  0.00  0.00    +0.000 A 
ATOM     16  C   UNL     1       1.451   8.456  20.494  0.00  0.00    +0.000 A 
BRANCH  11  18
ATOM     17  C   UNL     1       0.578  11.828  19.511  0.00  0.00    +0.000 C 
ATOM     18  O   UNL     1       0.625  10.621  20.272  0.00  0.00    +0.000 OA
ENDBRANCH  11  18
ENDBRANCH   1  14
TORSDOF 3
ENDMDL
MODEL 8
REMARK VINA RESULT:      -6.4      2.566      3.336
REMARK  Name = 
REMARK  4 active torsions:
REMARK  status: ('A' for Active; 'I' for Inactive)
REMARK    1  A    between atoms: C_1  and  O_2
REMARK    2  A    between atoms: O_2  and  C_3
REMARK    3  A    between atoms: C_6  and  C_7
REMARK    4  A    between atoms: C_7  and  N_8
REMARK                            x       y       z     vdW  Elec       q    Type
REMARK                         _______ _______ _______ _____ _____    ______ ____
ROOT
ATOM      1  C   UNL     1       4.460   4.719  17.619  0.00  0.00    +0.000 C 
ENDROOT
BRANCH   1   2
ATOM      2  N   UNL     1       3.299   3.812  17.515  0.00  0.00    +0.000 NA
ATOM      3  C   UNL     1       3.457   2.532  18.217  0.00  0.00    +0.000 C 
ATOM      4  C   UNL     1       3.424   2.630  19.739  0.00  0.00    +0.000 C 
ATOM      5  C   UNL     1       2.218   3.428  20.251  0.00  0.00    +0.000 C 
ATOM      6  C   UNL     1       1.907   4.684  19.436  0.00  0.00    +0.000 C 
ATOM      7  C   UNL     1       2.042   4.449  17.929  0.00  0.00    +0.000 C 
ATOM      8  C   UNL     1       2.378   3.718  21.767  0.00  0.00    +0.000 C 
ATOM      9  O   UNL     1       1.507   2.608  22.098  0.00  0.00    +0.000 OA
ATOM     10  C   UNL     1       0.995   2.604  20.736  0.00  0.00    +0.000 C 
ENDBRANCH   1   2
BRANCH   1  14
ATOM     11  C   UNL     1       6.991   4.856  14.084  0.00  0.00    +0.000 A 
ATOM     12  C   UNL     1       7.424   5.450  15.266  0.00  0.00    +0.000 A 
ATOM     13  C   UNL     1       6.619   5.403  16.414  0.00  0.00    +0.000 A 
ATOM     14  C   UNL     1       5.361   4.784  16.394  0.00  0.00    +0.000 A 
ATOM     15  C   UNL     1       4.975   4.126  15.214  0.00  0.00    +0.000 A 
ATOM     16  C   UNL     1       5.778   4.167  14.069  0.00  0.00    +0.000 A 
BRANCH  11  18
ATOM     17  C   UNL     1       7.125   4.019  11.864  0.00  0.00    +0.000 C 
ATOM     18  O   UNL     1       7.660   4.859  12.887  0.00  0.00    +0.000 OA
ENDBRANCH  11  18
ENDBRANCH   1  14
TORSDOF 3
ENDMDL
MODEL 9
REMARK VINA RESULT:      -6.4      3.797      6.149
REMARK  Name = 
REMARK  4 active torsions:
REMARK  status: ('A' for Active; 'I' for Inactive)
REMARK    1  A    between atoms: C_1  and  O_2
REMARK    2  A    between atoms: O_2  and  C_3
REMARK    3  A    between atoms: C_6  and  C_7
REMARK    4  A    between atoms: C_7  and  N_8
REMARK                            x       y       z     vdW  Elec       q    Type
REMARK                         _______ _______ _______ _____ _____    ______ ____
ROOT
ATOM      1  C   UNL     1       3.167   6.370  19.121  0.00  0.00    +0.000 C 
ENDROOT
BRANCH   1   2
ATOM      2  N   UNL     1       3.299   5.960  17.709  0.00  0.00    +0.000 NA
ATOM      3  C   UNL     1       4.306   6.706  16.945  0.00  0.00    +0.000 C 
ATOM      4  C   UNL     1       5.752   6.395  17.320  0.00  0.00    +0.000 C 
ATOM      5  C   UNL     1       6.042   4.889  17.345  0.00  0.00    +0.000 C 
ATOM      6  C   UNL     1       4.932   4.049  17.976  0.00  0.00    +0.000 C 
ATOM      7  C   UNL     1       3.536   4.518  17.557  0.00  0.00    +0.000 C 
ATOM      8  C   UNL     1       7.432   4.627  17.980  0.00  0.00    +0.000 C 
ATOM      9  O   UNL     1       8.038   4.500  16.670  0.00  0.00    +0.000 OA
ATOM     10  C   UNL     1       6.722   4.293  16.083  0.00  0.00    +0.000 C 
ENDBRANCH   1   2
BRANCH   1  14
ATOM     11  C   UNL     1       0.554   9.753  19.930  0.00  0.00    +0.000 A 
ATOM     12  C   UNL     1       1.072   9.572  18.651  0.00  0.00    +0.000 A 
ATOM     13  C   UNL     1       1.908   8.478  18.378  0.00  0.00    +0.000 A 
ATOM     14  C   UNL     1       2.258   7.564  19.381  0.00  0.00    +0.000 A 
ATOM     15  C   UNL     1       1.666   7.722  20.646  0.00  0.00    +0.000 A 
ATOM     16  C   UNL     1       0.828   8.808  20.919  0.00  0.00    +0.000 A 
BRANCH  11  18
ATOM     17  C   UNL     1       0.417  11.869  21.003  0.00  0.00    +0.000 C 
ATOM     18  O   UNL     1      -0.243  10.792  20.338  0.00  0.00    +0.000 OA
ENDBRANCH  11  18
ENDBRANCH   1  14
TORSDOF 3
ENDMDL
