MODEL 1
REMARK VINA RESULT:      -8.7      0.000      0.000
REMARK  Name = 
REMARK  7 active torsions:
REMARK  status: ('A' for Active; 'I' for Inactive)
REMARK    1  A    between atoms: C_1  and  C_2
REMARK    2  A    between atoms: C_3  and  C_4
REMARK    3  A    between atoms: C_6  and  O_7
REMARK    4  A    between atoms: O_7  and  C_8
REMARK    5  A    between atoms: C_8  and  C_9
REMARK    6  A    between atoms: C_8  and  C_10
REMARK    7  A    between atoms: N_25  and  C_26
REMARK                            x       y       z     vdW  Elec       q    Type
REMARK                         _______ _______ _______ _____ _____    ______ ____
ROOT
ATOM      1  C   UNL     1       2.329   7.124  19.504  0.00  0.00    +0.000 A 
ATOM      2  C   UNL     1       3.449   6.910  18.704  0.00  0.00    +0.000 A 
ATOM      3  C   UNL     1       3.999   5.636  18.599  0.00  0.00    +0.000 A 
ATOM      4  C   UNL     1       3.603   4.620  19.497  0.00  0.00    +0.000 A 
ATOM      5  C   UNL     1       4.212   3.351  19.571  0.00  0.00    +0.000 A 
ATOM      6  C   UNL     1       3.774   2.417  20.503  0.00  0.00    +0.000 A 
ATOM      7  C   UNL     1       2.721   2.763  21.324  0.00  0.00    +0.000 A 
ATOM      8  N   UNL     1       2.085   3.951  21.262  0.00  0.00    +0.000 NA
ATOM      9  C   UNL     1       2.527   4.857  20.372  0.00  0.00    +0.000 A 
ATOM     10  C   UNL     1       1.865   6.072  20.299  0.00  0.00    +0.000 A 
ENDROOT
BRANCH   1  13
ATOM     11  C   UNL     1       0.965   8.936  21.890  0.00  0.00    +0.000 C 
ATOM     12  C   UNL     1       1.050   9.128  20.423  0.00  0.00    +0.000 A 
ATOM     13  C   UNL     1       1.628   8.391  19.396  0.00  0.00    +0.000 A 
ATOM     14  C   UNL     1       1.367   9.155  18.227  0.00  0.00    +0.000 A 
ATOM     15  N   UNL     1       0.682  10.263  18.475  0.00  0.00    +0.000 NA
ATOM     16  N   UNL     1       0.488  10.224  19.805  0.00  0.00    +0.000 N 
ATOM     17  C   UNL     1      -0.262  11.284  20.436  0.00  0.00    +0.000 C 
ENDBRANCH   1  13
BRANCH   3  18
ATOM     18  O   UNL     1       4.892   5.304  17.615  0.00  0.00    +0.000 OA
BRANCH  18  19
ATOM     19  C   UNL     1       5.569   6.369  16.919  0.00  0.00    +0.000 C 
ATOM     20  C   UNL     1       5.090   6.551  15.467  0.00  0.00    +0.000 C 
BRANCH  19  21
ATOM     21  C   UNL     1       7.094   6.079  16.941  0.00  0.00    +0.000 C 
ATOM     22  C   UNL     1       7.895   7.272  17.467  0.00  0.00    +0.000 C 
ATOM     23  N   UNL     1       8.020   7.024  18.872  0.00  0.00    +0.000 N 
ATOM     24  C   UNL     1       7.744   5.716  19.203  0.00  0.00    +0.000 C 
ATOM     25  O   UNL     1       7.739   5.255  20.330  0.00  0.00    +0.000 OA
ATOM     26  C   UNL     1       7.492   4.964  17.924  0.00  0.00    +0.000 C 
ATOM     27  H   UNL     1       8.180   7.720  19.589  0.00  0.00    +0.000 HD
ENDBRANCH  19  21
ENDBRANCH  18  19
ENDBRANCH   3  18
TORSDOF 4
ENDMDL
MODEL 2
REMARK VINA RESULT:      -8.6      1.104      1.590
REMARK  Name = 
REMARK  7 active torsions:
REMARK  status: ('A' for Active; 'I' for Inactive)
REMARK    1  A    between atoms: C_1  and  C_2
REMARK    2  A    between atoms: C_3  and  C_4
REMARK    3  A    between atoms: C_6  and  O_7
REMARK    4  A    between atoms: O_7  and  C_8
REMARK    5  A    between atoms: C_8  and  C_9
REMARK    6  A    between atoms: C_8  and  C_10
REMARK    7  A    between atoms: N_25  and  C_26
REMARK                            x       y       z     vdW  Elec       q    Type
REMARK                         _______ _______ _______ _____ _____    ______ ____
ROOT
ATOM      1  C   UNL     1       2.221   6.525  19.758  0.00  0.00    +0.000 A 
ATOM      2  C   UNL     1       3.492   6.407  19.202  0.00  0.00    +0.000 A 
ATOM      3  C   UNL     1       3.887   5.214  18.606  0.00  0.00    +0.000 A 
ATOM      4  C   UNL     1       3.119   4.043  18.795  0.00  0.00    +0.000 A 
ATOM      5  C   UNL     1       3.516   2.761  18.366  0.00  0.00    +0.000 A 
ATOM      6  C   UNL     1       2.709   1.656  18.616  0.00  0.00    +0.000 A 
ATOM      7  C   UNL     1       1.511   1.862  19.268  0.00  0.00    +0.000 A 
ATOM      8  N   UNL     1       1.074   3.076  19.663  0.00  0.00    +0.000 NA
ATOM      9  C   UNL     1       1.869   4.136  19.435  0.00  0.00    +0.000 A 
ATOM     10  C   UNL     1       1.415   5.384  19.829  0.00  0.00    +0.000 A 
ENDROOT
BRANCH   1  13
ATOM     11  C   UNL     1       1.599   9.125  17.838  0.00  0.00    +0.000 C 
ATOM     12  C   UNL     1       1.504   8.928  19.305  0.00  0.00    +0.000 A 
ATOM     13  C   UNL     1       1.746   7.843  20.139  0.00  0.00    +0.000 A 
ATOM     14  C   UNL     1       1.431   8.324  21.438  0.00  0.00    +0.000 A 
ATOM     15  N   UNL     1       1.038   9.590  21.441  0.00  0.00    +0.000 NA
ATOM     16  N   UNL     1       1.101   9.943  20.144  0.00  0.00    +0.000 N 
ATOM     17  C   UNL     1       0.759  11.295  19.769  0.00  0.00    +0.000 C 
ENDBRANCH   1  13
BRANCH   3  18
ATOM     18  O   UNL     1       4.983   5.132  17.789  0.00  0.00    +0.000 OA
BRANCH  18  19
ATOM     19  C   UNL     1       5.518   6.351  17.238  0.00  0.00    +0.000 C 
ATOM     20  C   UNL     1       4.904   6.726  15.877  0.00  0.00    +0.000 C 
BRANCH  19  21
ATOM     21  C   UNL     1       7.057   6.196  17.101  0.00  0.00    +0.000 C 
ATOM     22  C   UNL     1       7.804   7.421  17.631  0.00  0.00    +0.000 C 
ATOM     23  N   UNL     1       8.085   7.102  18.998  0.00  0.00    +0.000 N 
ATOM     24  C   UNL     1       7.950   5.757  19.265  0.00  0.00    +0.000 C 
ATOM     25  O   UNL     1       8.092   5.231  20.354  0.00  0.00    +0.000 OA
ATOM     26  C   UNL     1       7.638   5.063  17.966  0.00  0.00    +0.000 C 
ATOM     27  H   UNL     1       8.256   7.765  19.743  0.00  0.00    +0.000 HD
ENDBRANCH  19  21
ENDBRANCH  18  19
ENDBRANCH   3  18
TORSDOF 4
ENDMDL
MODEL 3
REMARK VINA RESULT:      -8.5      1.380      1.877
REMARK  Name = 
REMARK  7 active torsions:
REMARK  status: ('A' for Active; 'I' for Inactive)
REMARK    1  A    between atoms: C_1  and  C_2
REMARK    2  A    between atoms: C_3  and  C_4
REMARK    3  A    between atoms: C_6  and  O_7
REMARK    4  A    between atoms: O_7  and  C_8
REMARK    5  A    between atoms: C_8  and  C_9
REMARK    6  A    between atoms: C_8  and  C_10
REMARK    7  A    between atoms: N_25  and  C_26
REMARK                            x       y       z     vdW  Elec       q    Type
REMARK                         _______ _______ _______ _____ _____    ______ ____
ROOT
ATOM      1  C   UNL     1       1.774   7.103  20.204  0.00  0.00    +0.000 A 
ATOM      2  C   UNL     1       2.602   6.992  19.090  0.00  0.00    +0.000 A 
ATOM      3  C   UNL     1       2.776   5.759  18.469  0.00  0.00    +0.000 A 
ATOM      4  C   UNL     1       2.340   4.578  19.110  0.00  0.00    +0.000 A 
ATOM      5  C   UNL     1       2.610   3.278  18.637  0.00  0.00    +0.000 A 
ATOM      6  C   UNL     1       2.164   2.168  19.345  0.00  0.00    +0.000 A 
ATOM      7  C   UNL     1       1.436   2.382  20.498  0.00  0.00    +0.000 A 
ATOM      8  N   UNL     1       1.123   3.608  20.966  0.00  0.00    +0.000 NA
ATOM      9  C   UNL     1       1.575   4.676  20.287  0.00  0.00    +0.000 A 
ATOM     10  C   UNL     1       1.243   5.935  20.761  0.00  0.00    +0.000 A 
ENDROOT
BRANCH   1  13
ATOM     11  C   UNL     1       0.781   9.707  18.452  0.00  0.00    +0.000 C 
ATOM     12  C   UNL     1       1.005   9.514  19.905  0.00  0.00    +0.000 A 
ATOM     13  C   UNL     1       1.409   8.428  20.673  0.00  0.00    +0.000 A 
ATOM     14  C   UNL     1       1.390   8.916  22.006  0.00  0.00    +0.000 A 
ATOM     15  N   UNL     1       1.023  10.187  22.088  0.00  0.00    +0.000 NA
ATOM     16  N   UNL     1       0.806  10.536  20.807  0.00  0.00    +0.000 N 
ATOM     17  C   UNL     1       0.408  11.892  20.508  0.00  0.00    +0.000 C 
ENDBRANCH   1  13
BRANCH   3  18
ATOM     18  O   UNL     1       3.320   5.641  17.218  0.00  0.00    +0.000 OA
BRANCH  18  19
ATOM     19  C   UNL     1       4.725   5.914  17.054  0.00  0.00    +0.000 C 
ATOM     20  C   UNL     1       5.070   6.551  15.696  0.00  0.00    +0.000 C 
BRANCH  19  21
ATOM     21  C   UNL     1       5.508   4.585  17.231  0.00  0.00    +0.000 C 
ATOM     22  C   UNL     1       6.766   4.544  16.361  0.00  0.00    +0.000 C 
ATOM     23  N   UNL     1       7.803   5.047  17.211  0.00  0.00    +0.000 N 
ATOM     24  C   UNL     1       7.445   5.039  18.542  0.00  0.00    +0.000 C 
ATOM     25  O   UNL     1       8.127   5.449  19.463  0.00  0.00    +0.000 OA
ATOM     26  C   UNL     1       6.086   4.398  18.645  0.00  0.00    +0.000 C 
ATOM     27  H   UNL     1       8.669   5.473  16.909  0.00  0.00    +0.000 HD
ENDBRANCH  19  21
ENDBRANCH  18  19
ENDBRANCH   3  18
TORSDOF 4
ENDMDL
MODEL 4
REMARK VINA RESULT:      -8.3      1.394      1.412
REMARK  Name = 
REMARK  7 active torsions:
REMARK  status: ('A' for Active; 'I' for Inactive)
REMARK    1  A    between atoms: C_1  and  C_2
REMARK    2  A    between atoms: C_3  and  C_4
REMARK    3  A    between atoms: C_6  and  O_7
REMARK    4  A    between atoms: O_7  and  C_8
REMARK    5  A    between atoms: C_8  and  C_9
REMARK    6  A    between atoms: C_8  and  C_10
REMARK    7  A    between atoms: N_25  and  C_26
REMARK                            x       y       z     vdW  Elec       q    Type
REMARK                         _______ _______ _______ _____ _____    ______ ____
ROOT
ATOM      1  C   UNL     1       2.461   6.455  18.706  0.00  0.00    +0.000 A 
ATOM      2  C   UNL     1       3.766   6.091  18.384  0.00  0.00    +0.000 A 
ATOM      3  C   UNL     1       4.076   4.761  18.121  0.00  0.00    +0.000 A 
ATOM      4  C   UNL     1       3.147   3.744  18.437  0.00  0.00    +0.000 A 
ATOM      5  C   UNL     1       3.428   2.365  18.353  0.00  0.00    +0.000 A 
ATOM      6  C   UNL     1       2.462   1.430  18.707  0.00  0.00    +0.000 A 
ATOM      7  C   UNL     1       1.227   1.894  19.114  0.00  0.00    +0.000 A 
ATOM      8  N   UNL     1       0.904   3.203  19.172  0.00  0.00    +0.000 NA
ATOM      9  C   UNL     1       1.850   4.101  18.847  0.00  0.00    +0.000 A 
ATOM     10  C   UNL     1       1.513   5.444  18.894  0.00  0.00    +0.000 A 
ENDROOT
BRANCH   1  13
ATOM     11  C   UNL     1       1.199   8.238  21.168  0.00  0.00    +0.000 C 
ATOM     12  C   UNL     1       1.569   8.589  19.776  0.00  0.00    +0.000 A 
ATOM     13  C   UNL     1       2.114   7.865  18.722  0.00  0.00    +0.000 A 
ATOM     14  C   UNL     1       2.243   8.815  17.674  0.00  0.00    +0.000 A 
ATOM     15  N   UNL     1       1.815  10.023  18.015  0.00  0.00    +0.000 NA
ATOM     16  N   UNL     1       1.400   9.865  19.284  0.00  0.00    +0.000 N 
ATOM     17  C   UNL     1       0.834  10.995  19.983  0.00  0.00    +0.000 C 
ENDBRANCH   1  13
BRANCH   3  18
ATOM     18  O   UNL     1       5.247   4.389  17.515  0.00  0.00    +0.000 OA
BRANCH  18  19
ATOM     19  C   UNL     1       5.713   5.166  16.395  0.00  0.00    +0.000 C 
ATOM     20  C   UNL     1       5.489   4.476  15.037  0.00  0.00    +0.000 C 
BRANCH  19  21
ATOM     21  C   UNL     1       7.224   5.461  16.595  0.00  0.00    +0.000 C 
ATOM     22  C   UNL     1       7.474   6.914  17.004  0.00  0.00    +0.000 C 
ATOM     23  N   UNL     1       7.484   6.884  18.436  0.00  0.00    +0.000 N 
ATOM     24  C   UNL     1       7.643   5.610  18.936  0.00  0.00    +0.000 C 
ATOM     25  O   UNL     1       7.646   5.305  20.114  0.00  0.00    +0.000 OA
ATOM     26  C   UNL     1       7.850   4.683  17.767  0.00  0.00    +0.000 C 
ATOM     27  H   UNL     1       7.289   7.663  19.051  0.00  0.00    +0.000 HD
ENDBRANCH  19  21
ENDBRANCH  18  19
ENDBRANCH   3  18
TORSDOF 4
ENDMDL
MODEL 5
REMARK VINA RESULT:      -8.3      1.480      2.014
REMARK  Name = 
REMARK  7 active torsions:
REMARK  status: ('A' for Active; 'I' for Inactive)
REMARK    1  A    between atoms: C_1  and  C_2
REMARK    2  A    between atoms: C_3  and  C_4
REMARK    3  A    between atoms: C_6  and  O_7
REMARK    4  A    between atoms: O_7  and  C_8
REMARK    5  A    between atoms: C_8  and  C_9
REMARK    6  A    between atoms: C_8  and  C_10
REMARK    7  A    between atoms: N_25  and  C_26
REMARK                            x       y       z     vdW  Elec       q    Type
REMARK                         _______ _______ _______ _____ _____    ______ ____
ROOT
ATOM      1  C   UNL     1       1.847   7.100  20.267  0.00  0.00    +0.000 A 
ATOM      2  C   UNL     1       2.873   6.972  19.335  0.00  0.00    +0.000 A 
ATOM      3  C   UNL     1       3.155   5.732  18.771  0.00  0.00    +0.000 A 
ATOM      4  C   UNL     1       2.595   4.560  19.327  0.00  0.00    +0.000 A 
ATOM      5  C   UNL     1       2.941   3.254  18.927  0.00  0.00    +0.000 A 
ATOM      6  C   UNL     1       2.359   2.153  19.547  0.00  0.00    +0.000 A 
ATOM      7  C   UNL     1       1.425   2.384  20.536  0.00  0.00    +0.000 A 
ATOM      8  N   UNL     1       1.036   3.617  20.923  0.00  0.00    +0.000 NA
ATOM      9  C   UNL     1       1.618   4.675  20.333  0.00  0.00    +0.000 A 
ATOM     10  C   UNL     1       1.210   5.941  20.722  0.00  0.00    +0.000 A 
ENDROOT
BRANCH   1  13
ATOM     11  C   UNL     1       0.893   9.581  18.325  0.00  0.00    +0.000 C 
ATOM     12  C   UNL     1       1.024   9.466  19.798  0.00  0.00    +0.000 A 
ATOM     13  C   UNL     1       1.408   8.432  20.643  0.00  0.00    +0.000 A 
ATOM     14  C   UNL     1       1.282   8.981  21.947  0.00  0.00    +0.000 A 
ATOM     15  N   UNL     1       0.870  10.241  21.940  0.00  0.00    +0.000 NA
ATOM     16  N   UNL     1       0.730  10.522  20.633  0.00  0.00    +0.000 N 
ATOM     17  C   UNL     1       0.310  11.846  20.240  0.00  0.00    +0.000 C 
ENDBRANCH   1  13
BRANCH   3  18
ATOM     18  O   UNL     1       3.929   5.598  17.649  0.00  0.00    +0.000 OA
BRANCH  18  19
ATOM     19  C   UNL     1       4.790   6.691  17.278  0.00  0.00    +0.000 C 
ATOM     20  C   UNL     1       5.071   6.762  15.766  0.00  0.00    +0.000 C 
BRANCH  19  21
ATOM     21  C   UNL     1       6.126   6.553  18.058  0.00  0.00    +0.000 C 
ATOM     22  C   UNL     1       6.118   5.344  18.995  0.00  0.00    +0.000 C 
ATOM     23  N   UNL     1       6.684   4.286  18.214  0.00  0.00    +0.000 N 
ATOM     24  C   UNL     1       7.355   4.750  17.104  0.00  0.00    +0.000 C 
ATOM     25  O   UNL     1       7.891   4.058  16.258  0.00  0.00    +0.000 OA
ATOM     26  C   UNL     1       7.335   6.255  17.155  0.00  0.00    +0.000 C 
ATOM     27  H   UNL     1       6.541   3.295  18.359  0.00  0.00    +0.000 HD
ENDBRANCH  19  21
ENDBRANCH  18  19
ENDBRANCH   3  18
TORSDOF 4
ENDMDL
MODEL 6
REMARK VINA RESULT:      -8.3      2.096      4.966
REMARK  Name = 
REMARK  7 active torsions:
REMARK  status: ('A' for Active; 'I' for Inactive)
REMARK    1  A    between atoms: C_1  and  C_2
REMARK    2  A    between atoms: C_3  and  C_4
REMARK    3  A    between atoms: C_6  and  O_7
REMARK    4  A    between atoms: O_7  and  C_8
REMARK    5  A    between atoms: C_8  and  C_9
REMARK    6  A    between atoms: C_8  and  C_10
REMARK    7  A    between atoms: N_25  and  C_26
REMARK                            x       y       z     vdW  Elec       q    Type
REMARK                         _______ _______ _______ _____ _____    ______ ____
ROOT
ATOM      1  C   UNL     1       2.951   7.143  17.867  0.00  0.00    +0.000 A 
ATOM      2  C   UNL     1       2.578   5.860  18.261  0.00  0.00    +0.000 A 
ATOM      3  C   UNL     1       3.394   4.774  17.962  0.00  0.00    +0.000 A 
ATOM      4  C   UNL     1       4.453   4.919  17.038  0.00  0.00    +0.000 A 
ATOM      5  C   UNL     1       5.231   3.847  16.555  0.00  0.00    +0.000 A 
ATOM      6  C   UNL     1       6.239   4.076  15.626  0.00  0.00    +0.000 A 
ATOM      7  C   UNL     1       6.464   5.375  15.218  0.00  0.00    +0.000 A 
ATOM      8  N   UNL     1       5.769   6.434  15.683  0.00  0.00    +0.000 NA
ATOM      9  C   UNL     1       4.782   6.202  16.566  0.00  0.00    +0.000 A 
ATOM     10  C   UNL     1       4.077   7.291  17.052  0.00  0.00    +0.000 A 
ENDROOT
BRANCH   1  13
ATOM     11  C   UNL     1       1.585   7.487  20.842  0.00  0.00    +0.000 C 
ATOM     12  C   UNL     1       1.644   8.388  19.667  0.00  0.00    +0.000 A 
ATOM     13  C   UNL     1       2.223   8.278  18.408  0.00  0.00    +0.000 A 
ATOM     14  C   UNL     1       1.930   9.516  17.778  0.00  0.00    +0.000 A 
ATOM     15  N   UNL     1       1.226  10.335  18.548  0.00  0.00    +0.000 NA
ATOM     16  N   UNL     1       1.052   9.632  19.681  0.00  0.00    +0.000 N 
ATOM     17  C   UNL     1       0.289  10.217  20.759  0.00  0.00    +0.000 C 
ENDBRANCH   1  13
BRANCH   3  18
ATOM     18  O   UNL     1       3.242   3.556  18.571  0.00  0.00    +0.000 OA
BRANCH  18  19
ATOM     19  C   UNL     1       3.705   3.408  19.927  0.00  0.00    +0.000 C 
ATOM     20  C   UNL     1       5.006   2.592  20.043  0.00  0.00    +0.000 C 
BRANCH  19  21
ATOM     21  C   UNL     1       2.582   2.734  20.761  0.00  0.00    +0.000 C 
ATOM     22  C   UNL     1       1.522   3.741  21.212  0.00  0.00    +0.000 C 
ATOM     23  N   UNL     1       0.527   3.694  20.184  0.00  0.00    +0.000 N 
ATOM     24  C   UNL     1       0.641   2.574  19.390  0.00  0.00    +0.000 C 
ATOM     25  O   UNL     1      -0.054   2.314  18.424  0.00  0.00    +0.000 OA
ATOM     26  C   UNL     1       1.746   1.723  19.957  0.00  0.00    +0.000 C 
ATOM     27  H   UNL     1      -0.133   4.426  19.957  0.00  0.00    +0.000 HD
ENDBRANCH  19  21
ENDBRANCH  18  19
ENDBRANCH   3  18
TORSDOF 4
ENDMDL
MODEL 7
REMARK VINA RESULT:      -8.2      1.771      2.433
REMARK  Name = 
REMARK  7 active torsions:
REMARK  status: ('A' for Active; 'I' for Inactive)
REMARK    1  A    between atoms: C_1  and  C_2
REMARK    2  A    between atoms: C_3  and  C_4
REMARK    3  A    between atoms: C_6  and  O_7
REMARK    4  A    between atoms: O_7  and  C_8
REMARK    5  A    between atoms: C_8  and  C_9
REMARK    6  A    between atoms: C_8  and  C_10
REMARK    7  A    between atoms: N_25  and  C_26
REMARK                            x       y       z     vdW  Elec       q    Type
REMARK                         _______ _______ _______ _____ _____    ______ ____
ROOT
ATOM      1  C   UNL     1       2.581   6.504  18.919  0.00  0.00    +0.000 A 
ATOM      2  C   UNL     1       3.805   6.259  19.538  0.00  0.00    +0.000 A 
ATOM      3  C   UNL     1       4.397   5.005  19.441  0.00  0.00    +0.000 A 
ATOM      4  C   UNL     1       3.652   3.907  18.954  0.00  0.00    +0.000 A 
ATOM      5  C   UNL     1       4.112   2.575  18.964  0.00  0.00    +0.000 A 
ATOM      6  C   UNL     1       3.302   1.551  18.486  0.00  0.00    +0.000 A 
ATOM      7  C   UNL     1       2.060   1.884  17.986  0.00  0.00    +0.000 A 
ATOM      8  N   UNL     1       1.596   3.150  17.922  0.00  0.00    +0.000 NA
ATOM      9  C   UNL     1       2.377   4.132  18.405  0.00  0.00    +0.000 A 
ATOM     10  C   UNL     1       1.906   5.433  18.327  0.00  0.00    +0.000 A 
ENDROOT
BRANCH   1  13
ATOM     11  C   UNL     1       1.005   8.316  21.172  0.00  0.00    +0.000 C 
ATOM     12  C   UNL     1       1.437   8.611  19.785  0.00  0.00    +0.000 A 
ATOM     13  C   UNL     1       2.113   7.876  18.819  0.00  0.00    +0.000 A 
ATOM     14  C   UNL     1       2.230   8.767  17.719  0.00  0.00    +0.000 A 
ATOM     15  N   UNL     1       1.677   9.949  17.949  0.00  0.00    +0.000 NA
ATOM     16  N   UNL     1       1.192   9.833  19.198  0.00  0.00    +0.000 N 
ATOM     17  C   UNL     1       0.484  10.949  19.782  0.00  0.00    +0.000 C 
ENDBRANCH   1  13
BRANCH   3  18
ATOM     18  O   UNL     1       5.712   4.791  19.760  0.00  0.00    +0.000 OA
BRANCH  18  19
ATOM     19  C   UNL     1       6.705   4.992  18.735  0.00  0.00    +0.000 C 
ATOM     20  C   UNL     1       8.020   5.591  19.268  0.00  0.00    +0.000 C 
BRANCH  19  21
ATOM     21  C   UNL     1       6.105   5.917  17.642  0.00  0.00    +0.000 C 
ATOM     22  C   UNL     1       7.165   6.830  17.022  0.00  0.00    +0.000 C 
ATOM     23  N   UNL     1       7.635   6.105  15.881  0.00  0.00    +0.000 N 
ATOM     24  C   UNL     1       6.784   5.084  15.517  0.00  0.00    +0.000 C 
ATOM     25  O   UNL     1       6.969   4.295  14.608  0.00  0.00    +0.000 OA
ATOM     26  C   UNL     1       5.578   5.153  16.415  0.00  0.00    +0.000 C 
ATOM     27  H   UNL     1       8.533   6.218  15.430  0.00  0.00    +0.000 HD
ENDBRANCH  19  21
ENDBRANCH  18  19
ENDBRANCH   3  18
TORSDOF 4
ENDMDL
MODEL 8
REMARK VINA RESULT:      -8.2      1.946      4.409
REMARK  Name = 
REMARK  7 active torsions:
REMARK  status: ('A' for Active; 'I' for Inactive)
REMARK    1  A    between atoms: C_1  and  C_2
REMARK    2  A    between atoms: C_3  and  C_4
REMARK    3  A    between atoms: C_6  and  O_7
REMARK    4  A    between atoms: O_7  and  C_8
REMARK    5  A    between atoms: C_8  and  C_9
REMARK    6  A    between atoms: C_8  and  C_10
REMARK    7  A    between atoms: N_25  and  C_26
REMARK                            x       y       z     vdW  Elec       q    Type
REMARK                         _______ _______ _______ _____ _____    ______ ____
ROOT
ATOM      1  C   UNL     1       2.500   7.899  18.088  0.00  0.00    +0.000 A 
ATOM      2  C   UNL     1       1.803   6.701  18.227  0.00  0.00    +0.000 A 
ATOM      3  C   UNL     1       2.446   5.489  18.003  0.00  0.00    +0.000 A 
ATOM      4  C   UNL     1       3.714   5.467  17.379  0.00  0.00    +0.000 A 
ATOM      5  C   UNL     1       4.372   4.289  16.970  0.00  0.00    +0.000 A 
ATOM      6  C   UNL     1       5.609   4.361  16.339  0.00  0.00    +0.000 A 
ATOM      7  C   UNL     1       6.172   5.606  16.153  0.00  0.00    +0.000 A 
ATOM      8  N   UNL     1       5.596   6.755  16.563  0.00  0.00    +0.000 NA
ATOM      9  C   UNL     1       4.390   6.680  17.154  0.00  0.00    +0.000 A 
ATOM     10  C   UNL     1       3.804   7.858  17.586  0.00  0.00    +0.000 A 
ENDROOT
BRANCH   1  13
ATOM     11  C   UNL     1       1.019   8.461  20.974  0.00  0.00    +0.000 C 
ATOM     12  C   UNL     1       1.255   9.326  19.794  0.00  0.00    +0.000 A 
ATOM     13  C   UNL     1       1.886   9.123  18.573  0.00  0.00    +0.000 A 
ATOM     14  C   UNL     1       1.783  10.376  17.913  0.00  0.00    +0.000 A 
ATOM     15  N   UNL     1       1.142  11.288  18.630  0.00  0.00    +0.000 NA
ATOM     16  N   UNL     1       0.819  10.633  19.759  0.00  0.00    +0.000 N 
ATOM     17  C   UNL     1       0.074  11.326  20.784  0.00  0.00    +0.000 C 
ENDBRANCH   1  13
BRANCH   3  18
ATOM     18  O   UNL     1       1.916   4.293  18.410  0.00  0.00    +0.000 OA
BRANCH  18  19
ATOM     19  C   UNL     1       1.451   4.179  19.769  0.00  0.00    +0.000 C 
ATOM     20  C   UNL     1       2.188   5.113  20.747  0.00  0.00    +0.000 C 
BRANCH  19  21
ATOM     21  C   UNL     1       1.613   2.703  20.222  0.00  0.00    +0.000 C 
ATOM     22  C   UNL     1       1.875   1.767  19.041  0.00  0.00    +0.000 C 
ATOM     23  N   UNL     1       3.302   1.698  18.952  0.00  0.00    +0.000 N 
ATOM     24  C   UNL     1       3.925   2.143  20.098  0.00  0.00    +0.000 C 
ATOM     25  O   UNL     1       5.128   2.224  20.266  0.00  0.00    +0.000 OA
ATOM     26  C   UNL     1       2.852   2.465  21.104  0.00  0.00    +0.000 C 
ATOM     27  H   UNL     1       3.839   1.463  18.126  0.00  0.00    +0.000 HD
ENDBRANCH  19  21
ENDBRANCH  18  19
ENDBRANCH   3  18
TORSDOF 4
ENDMDL
MODEL 9
REMARK VINA RESULT:      -8.2      1.885      2.587
REMARK  Name = 
REMARK  7 active torsions:
REMARK  status: ('A' for Active; 'I' for Inactive)
REMARK    1  A    between atoms: C_1  and  C_2
REMARK    2  A    between atoms: C_3  and  C_4
REMARK    3  A    between atoms: C_6  and  O_7
REMARK    4  A    between atoms: O_7  and  C_8
REMARK    5  A    between atoms: C_8  and  C_9
REMARK    6  A    between atoms: C_8  and  C_10
REMARK    7  A    between atoms: N_25  and  C_26
REMARK                            x       y       z     vdW  Elec       q    Type
REMARK                         _______ _______ _______ _____ _____    ______ ____
ROOT
ATOM      1  C   UNL     1       1.895   7.070  20.208  0.00  0.00    +0.000 A 
ATOM      2  C   UNL     1       2.963   6.975  19.320  0.00  0.00    +0.000 A 
ATOM      3  C   UNL     1       3.254   5.762  18.703  0.00  0.00    +0.000 A 
ATOM      4  C   UNL     1       2.650   4.571  19.169  0.00  0.00    +0.000 A 
ATOM      5  C   UNL     1       2.996   3.283  18.715  0.00  0.00    +0.000 A 
ATOM      6  C   UNL     1       2.369   2.161  19.246  0.00  0.00    +0.000 A 
ATOM      7  C   UNL     1       1.391   2.355  20.200  0.00  0.00    +0.000 A 
ATOM      8  N   UNL     1       1.002   3.571  20.635  0.00  0.00    +0.000 NA
ATOM      9  C   UNL     1       1.628   4.650  20.132  0.00  0.00    +0.000 A 
ATOM     10  C   UNL     1       1.220   5.900  20.568  0.00  0.00    +0.000 A 
ENDROOT
BRANCH   1  13
ATOM     11  C   UNL     1       0.924   9.617  18.363  0.00  0.00    +0.000 C 
ATOM     12  C   UNL     1       1.066   9.450  19.829  0.00  0.00    +0.000 A 
ATOM     13  C   UNL     1       1.458   8.388  20.635  0.00  0.00    +0.000 A 
ATOM     14  C   UNL     1       1.342   8.890  21.958  0.00  0.00    +0.000 A 
ATOM     15  N   UNL     1       0.929  10.149  21.999  0.00  0.00    +0.000 NA
ATOM     16  N   UNL     1       0.778  10.476  20.703  0.00  0.00    +0.000 N 
ATOM     17  C   UNL     1       0.354  11.813  20.361  0.00  0.00    +0.000 C 
ENDBRANCH   1  13
BRANCH   3  18
ATOM     18  O   UNL     1       4.079   5.674  17.614  0.00  0.00    +0.000 OA
BRANCH  18  19
ATOM     19  C   UNL     1       5.502   5.736  17.828  0.00  0.00    +0.000 C 
ATOM     20  C   UNL     1       6.165   6.965  17.180  0.00  0.00    +0.000 C 
BRANCH  19  21
ATOM     21  C   UNL     1       6.141   4.435  17.271  0.00  0.00    +0.000 C 
ATOM     22  C   UNL     1       5.267   3.785  16.196  0.00  0.00    +0.000 C 
ATOM     23  N   UNL     1       5.756   4.327  14.964  0.00  0.00    +0.000 N 
ATOM     24  C   UNL     1       6.999   4.906  15.099  0.00  0.00    +0.000 C 
ATOM     25  O   UNL     1       7.618   5.472  14.217  0.00  0.00    +0.000 OA
ATOM     26  C   UNL     1       7.459   4.675  16.514  0.00  0.00    +0.000 C 
ATOM     27  H   UNL     1       5.240   4.400  14.097  0.00  0.00    +0.000 HD
ENDBRANCH  19  21
ENDBRANCH  18  19
ENDBRANCH   3  18
TORSDOF 4
ENDMDL
