MODEL 1
REMARK VINA RESULT:      -9.2      0.000      0.000
REMARK  Name = 
REMARK  4 active torsions:
REMARK  status: ('A' for Active; 'I' for Inactive)
REMARK    1  A    between atoms: C_4  and  C_5
REMARK    2  A    between atoms: C_10  and  O_11
REMARK    3  A    between atoms: O_11  and  C_12
REMARK    4  A    between atoms: C_19  and  C_20
REMARK                            x       y       z     vdW  Elec       q    Type
REMARK                         _______ _______ _______ _____ _____    ______ ____
ROOT
ATOM      1  O   UNL     1       2.676   9.020  16.968  0.00  0.00    +0.000 OA
ATOM      2  C   UNL     1       2.246   8.621  18.054  0.00  0.00    +0.000 C 
ATOM      3  C   UNL     1       2.394   7.195  18.409  0.00  0.00    +0.000 C 
ATOM      4  C   UNL     1       2.028   6.711  19.617  0.00  0.00    +0.000 C 
ATOM      5  C   UNL     1       1.450   7.641  20.671  0.00  0.00    +0.000 C 
ATOM      6  C   UNL     1       0.732   8.854  20.057  0.00  0.00    +0.000 C 
ATOM      7  C   UNL     1       1.643   9.572  19.061  0.00  0.00    +0.000 C 
ENDROOT
BRANCH   6   8
ATOM      8  C   UNL     1       0.237   9.831  21.110  0.00  0.00    +0.000 A 
ATOM      9  C   UNL     1      -0.344   9.353  22.309  0.00  0.00    +0.000 A 
ATOM     10  C   UNL     1      -0.924  10.232  23.230  0.00  0.00    +0.000 A 
ATOM     11  C   UNL     1      -0.904  11.578  22.937  0.00  0.00    +0.000 A 
ATOM     12  C   UNL     1      -0.314  12.056  21.792  0.00  0.00    +0.000 A 
ATOM     13  C   UNL     1       0.276  11.217  20.875  0.00  0.00    +0.000 A 
ATOM     14  O   UNL     1      -0.407  13.406  21.679  0.00  0.00    +0.000 OA
ATOM     15  C   UNL     1      -1.015  13.734  22.943  0.00  0.00    +0.000 C 
ATOM     16  O   UNL     1      -1.440  12.575  23.691  0.00  0.00    +0.000 OA
ENDBRANCH   6   8
BRANCH   4  17
ATOM     17  C   UNL     1       2.247   5.282  19.990  0.00  0.00    +0.000 A 
ATOM     18  C   UNL     1       1.118   4.505  20.327  0.00  0.00    +0.000 A 
ATOM     19  C   UNL     1       1.218   3.153  20.669  0.00  0.00    +0.000 A 
ATOM     20  C   UNL     1       2.465   2.550  20.747  0.00  0.00    +0.000 A 
ATOM     21  C   UNL     1       3.600   3.293  20.452  0.00  0.00    +0.000 A 
ATOM     22  C   UNL     1       3.499   4.624  20.001  0.00  0.00    +0.000 A 
BRANCH  22  23
ATOM     23  O   UNL     1       4.634   5.288  19.557  0.00  0.00    +0.000 OA
BRANCH  23  24
ATOM     24  C   UNL     1       5.158   4.923  18.332  0.00  0.00    +0.000 A 
ATOM     25  C   UNL     1       4.367   4.424  17.291  0.00  0.00    +0.000 A 
ATOM     26  C   UNL     1       4.956   3.973  16.110  0.00  0.00    +0.000 A 
ATOM     27  C   UNL     1       6.337   4.074  15.943  0.00  0.00    +0.000 A 
ATOM     28  C   UNL     1       7.123   4.635  16.950  0.00  0.00    +0.000 A 
ATOM     29  C   UNL     1       6.537   5.059  18.145  0.00  0.00    +0.000 A 
ENDBRANCH  23  24
ENDBRANCH  22  23
ENDBRANCH   4  17
TORSDOF 4
ENDMDL
MODEL 2
REMARK VINA RESULT:      -8.9      0.689      1.127
REMARK  Name = 
REMARK  4 active torsions:
REMARK  status: ('A' for Active; 'I' for Inactive)
REMARK    1  A    between atoms: C_4  and  C_5
REMARK    2  A    between atoms: C_10  and  O_11
REMARK    3  A    between atoms: O_11  and  C_12
REMARK    4  A    between atoms: C_19  and  C_20
REMARK                            x       y       z     vdW  Elec       q    Type
REMARK                         _______ _______ _______ _____ _____    ______ ____
ROOT
ATOM      1  O   UNL     1       2.820   8.749  16.915  0.00  0.00    +0.000 OA
ATOM      2  C   UNL     1       2.398   8.367  18.009  0.00  0.00    +0.000 C 
ATOM      3  C   UNL     1       2.571   6.952  18.396  0.00  0.00    +0.000 C 
ATOM      4  C   UNL     1       2.214   6.488  19.615  0.00  0.00    +0.000 C 
ATOM      5  C   UNL     1       1.619   7.431  20.647  0.00  0.00    +0.000 C 
ATOM      6  C   UNL     1       0.879   8.616  20.006  0.00  0.00    +0.000 C 
ATOM      7  C   UNL     1       1.777   9.328  18.995  0.00  0.00    +0.000 C 
ENDROOT
BRANCH   6   8
ATOM      8  C   UNL     1       0.366   9.608  21.038  0.00  0.00    +0.000 A 
ATOM      9  C   UNL     1      -0.227   9.146  22.237  0.00  0.00    +0.000 A 
ATOM     10  C   UNL     1      -0.823  10.037  23.137  0.00  0.00    +0.000 A 
ATOM     11  C   UNL     1      -0.806  11.378  22.822  0.00  0.00    +0.000 A 
ATOM     12  C   UNL     1      -0.204  11.841  21.677  0.00  0.00    +0.000 A 
ATOM     13  C   UNL     1       0.402  10.990  20.781  0.00  0.00    +0.000 A 
ATOM     14  O   UNL     1      -0.301  13.189  21.541  0.00  0.00    +0.000 OA
ATOM     15  C   UNL     1      -0.927  13.533  22.792  0.00  0.00    +0.000 C 
ATOM     16  O   UNL     1      -1.356  12.384  23.554  0.00  0.00    +0.000 OA
ENDBRANCH   6   8
BRANCH   4  17
ATOM     17  C   UNL     1       2.459   5.072  20.019  0.00  0.00    +0.000 A 
ATOM     18  C   UNL     1       2.039   4.669  21.305  0.00  0.00    +0.000 A 
ATOM     19  C   UNL     1       2.204   3.360  21.767  0.00  0.00    +0.000 A 
ATOM     20  C   UNL     1       2.858   2.425  20.977  0.00  0.00    +0.000 A 
ATOM     21  C   UNL     1       3.312   2.796  19.719  0.00  0.00    +0.000 A 
ATOM     22  C   UNL     1       3.052   4.081  19.202  0.00  0.00    +0.000 A 
BRANCH  22  23
ATOM     23  O   UNL     1       3.371   4.371  17.884  0.00  0.00    +0.000 OA
BRANCH  23  24
ATOM     24  C   UNL     1       4.708   4.419  17.538  0.00  0.00    +0.000 A 
ATOM     25  C   UNL     1       5.708   4.791  18.445  0.00  0.00    +0.000 A 
ATOM     26  C   UNL     1       7.030   4.923  18.020  0.00  0.00    +0.000 A 
ATOM     27  C   UNL     1       7.367   4.625  16.701  0.00  0.00    +0.000 A 
ATOM     28  C   UNL     1       6.386   4.186  15.811  0.00  0.00    +0.000 A 
ATOM     29  C   UNL     1       5.057   4.083  16.227  0.00  0.00    +0.000 A 
ENDBRANCH  23  24
ENDBRANCH  22  23
ENDBRANCH   4  17
TORSDOF 4
ENDMDL
MODEL 3
REMARK VINA RESULT:      -8.8      3.062      8.755
REMARK  Name = 
REMARK  4 active torsions:
REMARK  status: ('A' for Active; 'I' for Inactive)
REMARK    1  A    between atoms: C_4  and  C_5
REMARK    2  A    between atoms: C_10  and  O_11
REMARK    3  A    between atoms: O_11  and  C_12
REMARK    4  A    between atoms: C_19  and  C_20
REMARK                            x       y       z     vdW  Elec       q    Type
REMARK                         _______ _______ _______ _____ _____    ______ ____
ROOT
ATOM      1  O   UNL     1       7.532   5.529  20.025  0.00  0.00    +0.000 OA
ATOM      2  C   UNL     1       6.700   5.141  19.200  0.00  0.00    +0.000 C 
ATOM      3  C   UNL     1       5.373   4.693  19.669  0.00  0.00    +0.000 C 
ATOM      4  C   UNL     1       4.387   4.343  18.813  0.00  0.00    +0.000 C 
ATOM      5  C   UNL     1       4.616   4.409  17.313  0.00  0.00    +0.000 C 
ATOM      6  C   UNL     1       6.094   4.218  16.933  0.00  0.00    +0.000 C 
ATOM      7  C   UNL     1       6.980   5.187  17.717  0.00  0.00    +0.000 C 
ENDROOT
BRANCH   6   8
ATOM      8  C   UNL     1       6.337   4.379  15.442  0.00  0.00    +0.000 A 
ATOM      9  C   UNL     1       5.650   3.557  14.516  0.00  0.00    +0.000 A 
ATOM     10  C   UNL     1       5.956   3.597  13.150  0.00  0.00    +0.000 A 
ATOM     11  C   UNL     1       6.940   4.468  12.736  0.00  0.00    +0.000 A 
ATOM     12  C   UNL     1       7.589   5.293  13.622  0.00  0.00    +0.000 A 
ATOM     13  C   UNL     1       7.300   5.285  14.967  0.00  0.00    +0.000 A 
ATOM     14  O   UNL     1       8.531   6.068  13.022  0.00  0.00    +0.000 OA
ATOM     15  C   UNL     1       8.313   5.723  11.641  0.00  0.00    +0.000 C 
ATOM     16  O   UNL     1       7.392   4.625  11.463  0.00  0.00    +0.000 OA
ENDBRANCH   6   8
BRANCH   4  17
ATOM     17  C   UNL     1       3.027   3.960  19.297  0.00  0.00    +0.000 A 
ATOM     18  C   UNL     1       2.565   2.658  19.010  0.00  0.00    +0.000 A 
ATOM     19  C   UNL     1       1.316   2.199  19.438  0.00  0.00    +0.000 A 
ATOM     20  C   UNL     1       0.459   3.055  20.113  0.00  0.00    +0.000 A 
ATOM     21  C   UNL     1       0.868   4.353  20.385  0.00  0.00    +0.000 A 
ATOM     22  C   UNL     1       2.167   4.789  20.055  0.00  0.00    +0.000 A 
BRANCH  22  23
ATOM     23  O   UNL     1       2.606   6.033  20.483  0.00  0.00    +0.000 OA
BRANCH  23  24
ATOM     24  C   UNL     1       2.167   7.146  19.792  0.00  0.00    +0.000 A 
ATOM     25  C   UNL     1       2.420   7.334  18.427  0.00  0.00    +0.000 A 
ATOM     26  C   UNL     1       2.046   8.521  17.798  0.00  0.00    +0.000 A 
ATOM     27  C   UNL     1       1.364   9.501  18.517  0.00  0.00    +0.000 A 
ATOM     28  C   UNL     1       1.048   9.290  19.860  0.00  0.00    +0.000 A 
ATOM     29  C   UNL     1       1.448   8.114  20.499  0.00  0.00    +0.000 A 
ENDBRANCH  23  24
ENDBRANCH  22  23
ENDBRANCH   4  17
TORSDOF 4
ENDMDL
MODEL 4
REMARK VINA RESULT:      -8.8      1.952      4.327
REMARK  Name = 
REMARK  4 active torsions:
REMARK  status: ('A' for Active; 'I' for Inactive)
REMARK    1  A    between atoms: C_4  and  C_5
REMARK    2  A    between atoms: C_10  and  O_11
REMARK    3  A    between atoms: O_11  and  C_12
REMARK    4  A    between atoms: C_19  and  C_20
REMARK                            x       y       z     vdW  Elec       q    Type
REMARK                         _______ _______ _______ _____ _____    ______ ____
ROOT
ATOM      1  O   UNL     1       1.987   4.070  21.837  0.00  0.00    +0.000 OA
ATOM      2  C   UNL     1       2.352   4.904  21.004  0.00  0.00    +0.000 C 
ATOM      3  C   UNL     1       3.579   4.654  20.221  0.00  0.00    +0.000 C 
ATOM      4  C   UNL     1       3.984   5.481  19.231  0.00  0.00    +0.000 C 
ATOM      5  C   UNL     1       3.168   6.714  18.882  0.00  0.00    +0.000 C 
ATOM      6  C   UNL     1       2.369   7.250  20.081  0.00  0.00    +0.000 C 
ATOM      7  C   UNL     1       1.531   6.138  20.711  0.00  0.00    +0.000 C 
ENDROOT
BRANCH   6   8
ATOM      8  C   UNL     1       1.479   8.425  19.708  0.00  0.00    +0.000 A 
ATOM      9  C   UNL     1       1.534   8.974  18.404  0.00  0.00    +0.000 A 
ATOM     10  C   UNL     1       0.823  10.135  18.080  0.00  0.00    +0.000 A 
ATOM     11  C   UNL     1       0.062  10.721  19.068  0.00  0.00    +0.000 A 
ATOM     12  C   UNL     1      -0.024  10.179  20.327  0.00  0.00    +0.000 A 
ATOM     13  C   UNL     1       0.653   9.031  20.670  0.00  0.00    +0.000 A 
ATOM     14  O   UNL     1      -0.812  10.908  21.159  0.00  0.00    +0.000 OA
ATOM     15  C   UNL     1      -1.309  11.902  20.243  0.00  0.00    +0.000 C 
ATOM     16  O   UNL     1      -0.669  11.862  18.950  0.00  0.00    +0.000 OA
ENDBRANCH   6   8
BRANCH   4  17
ATOM     17  C   UNL     1       5.187   5.180  18.400  0.00  0.00    +0.000 A 
ATOM     18  C   UNL     1       6.458   5.422  18.963  0.00  0.00    +0.000 A 
ATOM     19  C   UNL     1       7.644   5.152  18.272  0.00  0.00    +0.000 A 
ATOM     20  C   UNL     1       7.593   4.691  16.965  0.00  0.00    +0.000 A 
ATOM     21  C   UNL     1       6.359   4.472  16.369  0.00  0.00    +0.000 A 
ATOM     22  C   UNL     1       5.162   4.636  17.094  0.00  0.00    +0.000 A 
BRANCH  22  23
ATOM     23  O   UNL     1       3.955   4.253  16.528  0.00  0.00    +0.000 OA
BRANCH  23  24
ATOM     24  C   UNL     1       3.137   3.412  17.257  0.00  0.00    +0.000 A 
ATOM     25  C   UNL     1       1.788   3.697  17.500  0.00  0.00    +0.000 A 
ATOM     26  C   UNL     1       1.030   2.869  18.328  0.00  0.00    +0.000 A 
ATOM     27  C   UNL     1       1.603   1.719  18.869  0.00  0.00    +0.000 A 
ATOM     28  C   UNL     1       2.927   1.393  18.574  0.00  0.00    +0.000 A 
ATOM     29  C   UNL     1       3.696   2.237  17.769  0.00  0.00    +0.000 A 
ENDBRANCH  23  24
ENDBRANCH  22  23
ENDBRANCH   4  17
TORSDOF 4
ENDMDL
MODEL 5
REMARK VINA RESULT:      -8.8      2.121      4.792
REMARK  Name = 
REMARK  4 active torsions:
REMARK  status: ('A' for Active; 'I' for Inactive)
REMARK    1  A    between atoms: C_4  and  C_5
REMARK    2  A    between atoms: C_10  and  O_11
REMARK    3  A    between atoms: O_11  and  C_12
REMARK    4  A    between atoms: C_19  and  C_20
REMARK                            x       y       z     vdW  Elec       q    Type
REMARK                         _______ _______ _______ _____ _____    ______ ____
ROOT
ATOM      1  O   UNL     1       1.811   2.311  19.396  0.00  0.00    +0.000 OA
ATOM      2  C   UNL     1       2.297   3.375  19.004  0.00  0.00    +0.000 C 
ATOM      3  C   UNL     1       3.387   3.348  18.009  0.00  0.00    +0.000 C 
ATOM      4  C   UNL     1       3.902   4.477  17.471  0.00  0.00    +0.000 C 
ATOM      5  C   UNL     1       3.355   5.835  17.877  0.00  0.00    +0.000 C 
ATOM      6  C   UNL     1       2.770   5.834  19.299  0.00  0.00    +0.000 C 
ATOM      7  C   UNL     1       1.750   4.707  19.461  0.00  0.00    +0.000 C 
ENDROOT
BRANCH   6   8
ATOM      8  C   UNL     1       2.138   7.166  19.669  0.00  0.00    +0.000 A 
ATOM      9  C   UNL     1       1.515   7.333  20.929  0.00  0.00    +0.000 A 
ATOM     10  C   UNL     1       0.814   8.505  21.237  0.00  0.00    +0.000 A 
ATOM     11  C   UNL     1       0.757   9.493  20.278  0.00  0.00    +0.000 A 
ATOM     12  C   UNL     1       1.386   9.354  19.065  0.00  0.00    +0.000 A 
ATOM     13  C   UNL     1       2.093   8.220  18.740  0.00  0.00    +0.000 A 
ATOM     14  O   UNL     1       1.204  10.429  18.255  0.00  0.00    +0.000 OA
ATOM     15  C   UNL     1       0.492  11.310  19.145  0.00  0.00    +0.000 C 
ATOM     16  O   UNL     1       0.102  10.680  20.384  0.00  0.00    +0.000 OA
ENDBRANCH   6   8
BRANCH   4  17
ATOM     17  C   UNL     1       4.955   4.434  16.414  0.00  0.00    +0.000 A 
ATOM     18  C   UNL     1       4.553   4.149  15.091  0.00  0.00    +0.000 A 
ATOM     19  C   UNL     1       5.461   4.108  14.029  0.00  0.00    +0.000 A 
ATOM     20  C   UNL     1       6.815   4.287  14.269  0.00  0.00    +0.000 A 
ATOM     21  C   UNL     1       7.249   4.539  15.564  0.00  0.00    +0.000 A 
ATOM     22  C   UNL     1       6.330   4.691  16.621  0.00  0.00    +0.000 A 
BRANCH  22  23
ATOM     23  O   UNL     1       6.777   5.104  17.868  0.00  0.00    +0.000 OA
BRANCH  23  24
ATOM     24  C   UNL     1       7.224   6.404  17.995  0.00  0.00    +0.000 A 
ATOM     25  C   UNL     1       6.723   7.454  17.217  0.00  0.00    +0.000 A 
ATOM     26  C   UNL     1       7.279   8.730  17.311  0.00  0.00    +0.000 A 
ATOM     27  C   UNL     1       8.299   8.975  18.229  0.00  0.00    +0.000 A 
ATOM     28  C   UNL     1       8.755   7.949  19.057  0.00  0.00    +0.000 A 
ATOM     29  C   UNL     1       8.220   6.664  18.942  0.00  0.00    +0.000 A 
ENDBRANCH  23  24
ENDBRANCH  22  23
ENDBRANCH   4  17
TORSDOF 4
ENDMDL
MODEL 6
REMARK VINA RESULT:      -8.6      2.161      4.757
REMARK  Name = 
REMARK  4 active torsions:
REMARK  status: ('A' for Active; 'I' for Inactive)
REMARK    1  A    between atoms: C_4  and  C_5
REMARK    2  A    between atoms: C_10  and  O_11
REMARK    3  A    between atoms: O_11  and  C_12
REMARK    4  A    between atoms: C_19  and  C_20
REMARK                            x       y       z     vdW  Elec       q    Type
REMARK                         _______ _______ _______ _____ _____    ______ ____
ROOT
ATOM      1  O   UNL     1       2.114   2.714  19.851  0.00  0.00    +0.000 OA
ATOM      2  C   UNL     1       2.508   3.744  19.297  0.00  0.00    +0.000 C 
ATOM      3  C   UNL     1       3.587   3.655  18.293  0.00  0.00    +0.000 C 
ATOM      4  C   UNL     1       4.002   4.729  17.584  0.00  0.00    +0.000 C 
ATOM      5  C   UNL     1       3.353   6.086  17.799  0.00  0.00    +0.000 C 
ATOM      6  C   UNL     1       2.784   6.249  19.218  0.00  0.00    +0.000 C 
ATOM      7  C   UNL     1       1.860   5.081  19.566  0.00  0.00    +0.000 C 
ENDROOT
BRANCH   6   8
ATOM      8  C   UNL     1       2.051   7.567  19.403  0.00  0.00    +0.000 A 
ATOM      9  C   UNL     1       1.937   8.476  18.324  0.00  0.00    +0.000 A 
ATOM     10  C   UNL     1       1.383   9.749  18.508  0.00  0.00    +0.000 A 
ATOM     11  C   UNL     1       0.946  10.084  19.771  0.00  0.00    +0.000 A 
ATOM     12  C   UNL     1       1.021   9.198  20.817  0.00  0.00    +0.000 A 
ATOM     13  C   UNL     1       1.548   7.936  20.663  0.00  0.00    +0.000 A 
ATOM     14  O   UNL     1       0.550   9.718  21.980  0.00  0.00    +0.000 OA
ATOM     15  C   UNL     1       0.056  10.990  21.516  0.00  0.00    +0.000 C 
ATOM     16  O   UNL     1       0.410  11.277  20.146  0.00  0.00    +0.000 OA
ENDBRANCH   6   8
BRANCH   4  17
ATOM     17  C   UNL     1       5.045   4.613  16.521  0.00  0.00    +0.000 A 
ATOM     18  C   UNL     1       4.622   4.296  15.213  0.00  0.00    +0.000 A 
ATOM     19  C   UNL     1       5.519   4.187  14.146  0.00  0.00    +0.000 A 
ATOM     20  C   UNL     1       6.881   4.328  14.370  0.00  0.00    +0.000 A 
ATOM     21  C   UNL     1       7.334   4.609  15.651  0.00  0.00    +0.000 A 
ATOM     22  C   UNL     1       6.430   4.830  16.709  0.00  0.00    +0.000 A 
BRANCH  22  23
ATOM     23  O   UNL     1       6.901   5.270  17.937  0.00  0.00    +0.000 OA
BRANCH  23  24
ATOM     24  C   UNL     1       7.315   6.584  18.037  0.00  0.00    +0.000 A 
ATOM     25  C   UNL     1       6.775   7.607  17.247  0.00  0.00    +0.000 A 
ATOM     26  C   UNL     1       7.297   8.899  17.312  0.00  0.00    +0.000 A 
ATOM     27  C   UNL     1       8.322   9.186  18.212  0.00  0.00    +0.000 A 
ATOM     28  C   UNL     1       8.816   8.187  19.052  0.00  0.00    +0.000 A 
ATOM     29  C   UNL     1       8.314   6.887  18.966  0.00  0.00    +0.000 A 
ENDBRANCH  23  24
ENDBRANCH  22  23
ENDBRANCH   4  17
TORSDOF 4
ENDMDL
MODEL 7
REMARK VINA RESULT:      -8.6      3.180      7.048
REMARK  Name = 
REMARK  4 active torsions:
REMARK  status: ('A' for Active; 'I' for Inactive)
REMARK    1  A    between atoms: C_4  and  C_5
REMARK    2  A    between atoms: C_10  and  O_11
REMARK    3  A    between atoms: O_11  and  C_12
REMARK    4  A    between atoms: C_19  and  C_20
REMARK                            x       y       z     vdW  Elec       q    Type
REMARK                         _______ _______ _______ _____ _____    ______ ____
ROOT
ATOM      1  O   UNL     1       6.200   3.931  14.203  0.00  0.00    +0.000 OA
ATOM      2  C   UNL     1       5.946   4.482  15.277  0.00  0.00    +0.000 C 
ATOM      3  C   UNL     1       4.741   4.078  16.028  0.00  0.00    +0.000 C 
ATOM      4  C   UNL     1       4.453   4.576  17.252  0.00  0.00    +0.000 C 
ATOM      5  C   UNL     1       5.385   5.581  17.908  0.00  0.00    +0.000 C 
ATOM      6  C   UNL     1       6.169   6.415  16.881  0.00  0.00    +0.000 C 
ATOM      7  C   UNL     1       6.880   5.506  15.879  0.00  0.00    +0.000 C 
ENDROOT
BRANCH   6   8
ATOM      8  C   UNL     1       7.170   7.353  17.536  0.00  0.00    +0.000 A 
ATOM      9  C   UNL     1       7.993   6.891  18.591  0.00  0.00    +0.000 A 
ATOM     10  C   UNL     1       8.825   7.771  19.294  0.00  0.00    +0.000 A 
ATOM     11  C   UNL     1       8.822   9.097  18.920  0.00  0.00    +0.000 A 
ATOM     12  C   UNL     1       8.052   9.549  17.877  0.00  0.00    +0.000 A 
ATOM     13  C   UNL     1       7.236   8.705  17.159  0.00  0.00    +0.000 A 
ATOM     14  O   UNL     1       8.180  10.885  17.671  0.00  0.00    +0.000 OA
ATOM     15  C   UNL     1       9.211  11.199  18.627  0.00  0.00    +0.000 C 
ATOM     16  O   UNL     1       9.537  10.098  19.501  0.00  0.00    +0.000 OA
ENDBRANCH   6   8
BRANCH   4  17
ATOM     17  C   UNL     1       3.270   4.106  18.033  0.00  0.00    +0.000 A 
ATOM     18  C   UNL     1       2.749   2.828  17.739  0.00  0.00    +0.000 A 
ATOM     19  C   UNL     1       1.657   2.291  18.429  0.00  0.00    +0.000 A 
ATOM     20  C   UNL     1       1.010   3.048  19.394  0.00  0.00    +0.000 A 
ATOM     21  C   UNL     1       1.477   4.322  19.686  0.00  0.00    +0.000 A 
ATOM     22  C   UNL     1       2.641   4.827  19.075  0.00  0.00    +0.000 A 
BRANCH  22  23
ATOM     23  O   UNL     1       3.178   6.032  19.504  0.00  0.00    +0.000 OA
BRANCH  23  24
ATOM     24  C   UNL     1       2.466   7.186  19.241  0.00  0.00    +0.000 A 
ATOM     25  C   UNL     1       2.423   7.772  17.969  0.00  0.00    +0.000 A 
ATOM     26  C   UNL     1       1.775   8.993  17.777  0.00  0.00    +0.000 A 
ATOM     27  C   UNL     1       1.116   9.603  18.843  0.00  0.00    +0.000 A 
ATOM     28  C   UNL     1       1.097   8.989  20.096  0.00  0.00    +0.000 A 
ATOM     29  C   UNL     1       1.771   7.782  20.297  0.00  0.00    +0.000 A 
ENDBRANCH  23  24
ENDBRANCH  22  23
ENDBRANCH   4  17
TORSDOF 4
ENDMDL
MODEL 8
REMARK VINA RESULT:      -8.5      3.061      5.045
REMARK  Name = 
REMARK  4 active torsions:
REMARK  status: ('A' for Active; 'I' for Inactive)
REMARK    1  A    between atoms: C_4  and  C_5
REMARK    2  A    between atoms: C_10  and  O_11
REMARK    3  A    between atoms: O_11  and  C_12
REMARK    4  A    between atoms: C_19  and  C_20
REMARK                            x       y       z     vdW  Elec       q    Type
REMARK                         _______ _______ _______ _____ _____    ______ ____
ROOT
ATOM      1  O   UNL     1       1.482   8.237  22.099  0.00  0.00    +0.000 OA
ATOM      2  C   UNL     1       1.425   8.308  20.869  0.00  0.00    +0.000 C 
ATOM      3  C   UNL     1       2.404   7.558  20.057  0.00  0.00    +0.000 C 
ATOM      4  C   UNL     1       2.343   7.520  18.706  0.00  0.00    +0.000 C 
ATOM      5  C   UNL     1       1.236   8.257  17.970  0.00  0.00    +0.000 C 
ATOM      6  C   UNL     1       0.721   9.478  18.749  0.00  0.00    +0.000 C 
ATOM      7  C   UNL     1       0.331   9.083  20.173  0.00  0.00    +0.000 C 
ENDROOT
BRANCH   6   8
ATOM      8  C   UNL     1      -0.449  10.158  18.057  0.00  0.00    +0.000 A 
ATOM      9  C   UNL     1      -0.914  11.415  18.514  0.00  0.00    +0.000 A 
ATOM     10  C   UNL     1      -2.069  11.995  17.978  0.00  0.00    +0.000 A 
ATOM     11  C   UNL     1      -2.733  11.308  16.985  0.00  0.00    +0.000 A 
ATOM     12  C   UNL     1      -2.272  10.104  16.511  0.00  0.00    +0.000 A 
ATOM     13  C   UNL     1      -1.132   9.517  17.010  0.00  0.00    +0.000 A 
ATOM     14  O   UNL     1      -3.069   9.582  15.543  0.00  0.00    +0.000 OA
ATOM     15  C   UNL     1      -4.017  10.654  15.378  0.00  0.00    +0.000 C 
ATOM     16  O   UNL     1      -3.882  11.696  16.368  0.00  0.00    +0.000 OA
ENDBRANCH   6   8
BRANCH   4  17
ATOM     17  C   UNL     1       3.295   6.701  17.899  0.00  0.00    +0.000 A 
ATOM     18  C   UNL     1       4.489   7.314  17.463  0.00  0.00    +0.000 A 
ATOM     19  C   UNL     1       5.453   6.624  16.721  0.00  0.00    +0.000 A 
ATOM     20  C   UNL     1       5.220   5.312  16.335  0.00  0.00    +0.000 A 
ATOM     21  C   UNL     1       4.042   4.689  16.721  0.00  0.00    +0.000 A 
ATOM     22  C   UNL     1       3.117   5.340  17.561  0.00  0.00    +0.000 A 
BRANCH  22  23
ATOM     23  O   UNL     1       2.031   4.638  18.064  0.00  0.00    +0.000 OA
BRANCH  23  24
ATOM     24  C   UNL     1       2.193   3.970  19.263  0.00  0.00    +0.000 A 
ATOM     25  C   UNL     1       3.386   3.326  19.612  0.00  0.00    +0.000 A 
ATOM     26  C   UNL     1       3.466   2.579  20.787  0.00  0.00    +0.000 A 
ATOM     27  C   UNL     1       2.371   2.523  21.648  0.00  0.00    +0.000 A 
ATOM     28  C   UNL     1       1.202   3.220  21.339  0.00  0.00    +0.000 A 
ATOM     29  C   UNL     1       1.111   3.944  20.148  0.00  0.00    +0.000 A 
ENDBRANCH  23  24
ENDBRANCH  22  23
ENDBRANCH   4  17
TORSDOF 4
ENDMDL
MODEL 9
REMARK VINA RESULT:      -8.4      2.925      8.782
REMARK  Name = 
REMARK  4 active torsions:
REMARK  status: ('A' for Active; 'I' for Inactive)
REMARK    1  A    between atoms: C_4  and  C_5
REMARK    2  A    between atoms: C_10  and  O_11
REMARK    3  A    between atoms: O_11  and  C_12
REMARK    4  A    between atoms: C_19  and  C_20
REMARK                            x       y       z     vdW  Elec       q    Type
REMARK                         _______ _______ _______ _____ _____    ______ ____
ROOT
ATOM      1  O   UNL     1       0.037   9.541  23.827  0.00  0.00    +0.000 OA
ATOM      2  C   UNL     1       0.389   9.640  22.649  0.00  0.00    +0.000 C 
ATOM      3  C   UNL     1       0.126  10.897  21.920  0.00  0.00    +0.000 C 
ATOM      4  C   UNL     1       0.565  11.104  20.658  0.00  0.00    +0.000 C 
ATOM      5  C   UNL     1       1.367  10.031  19.941  0.00  0.00    +0.000 C 
ATOM      6  C   UNL     1       1.031   8.614  20.436  0.00  0.00    +0.000 C 
ATOM      7  C   UNL     1       1.151   8.534  21.958  0.00  0.00    +0.000 C 
ENDROOT
BRANCH   6   8
ATOM      8  C   UNL     1       1.900   7.550  19.787  0.00  0.00    +0.000 A 
ATOM      9  C   UNL     1       2.547   7.812  18.555  0.00  0.00    +0.000 A 
ATOM     10  C   UNL     1       3.242   6.804  17.877  0.00  0.00    +0.000 A 
ATOM     11  C   UNL     1       3.282   5.552  18.450  0.00  0.00    +0.000 A 
ATOM     12  C   UNL     1       2.686   5.295  19.660  0.00  0.00    +0.000 A 
ATOM     13  C   UNL     1       2.008   6.269  20.356  0.00  0.00    +0.000 A 
ATOM     14  O   UNL     1       2.828   4.002  20.050  0.00  0.00    +0.000 OA
ATOM     15  C   UNL     1       3.687   3.506  19.005  0.00  0.00    +0.000 C 
ATOM     16  O   UNL     1       3.880   4.448  17.928  0.00  0.00    +0.000 OA
ENDBRANCH   6   8
BRANCH   4  17
ATOM     17  C   UNL     1       0.355  12.405  19.957  0.00  0.00    +0.000 A 
ATOM     18  C   UNL     1       1.489  13.198  19.679  0.00  0.00    +0.000 A 
ATOM     19  C   UNL     1       1.397  14.422  19.009  0.00  0.00    +0.000 A 
ATOM     20  C   UNL     1       0.154  14.923  18.651  0.00  0.00    +0.000 A 
ATOM     21  C   UNL     1      -0.985  14.184  18.937  0.00  0.00    +0.000 A 
ATOM     22  C   UNL     1      -0.893  12.901  19.513  0.00  0.00    +0.000 A 
BRANCH  22  23
ATOM     23  O   UNL     1      -2.032  12.118  19.636  0.00  0.00    +0.000 OA
BRANCH  23  24
ATOM     24  C   UNL     1      -2.481  11.451  18.512  0.00  0.00    +0.000 A 
ATOM     25  C   UNL     1      -1.694  10.522  17.822  0.00  0.00    +0.000 A 
ATOM     26  C   UNL     1      -2.154   9.951  16.635  0.00  0.00    +0.000 A 
ATOM     27  C   UNL     1      -3.429  10.263  16.166  0.00  0.00    +0.000 A 
ATOM     28  C   UNL     1      -4.246  11.135  16.888  0.00  0.00    +0.000 A 
ATOM     29  C   UNL     1      -3.774  11.730  18.060  0.00  0.00    +0.000 A 
ENDBRANCH  23  24
ENDBRANCH  22  23
ENDBRANCH   4  17
TORSDOF 4
ENDMDL
