MODEL 1
REMARK VINA RESULT:      -7.5      0.000      0.000
REMARK  Name = 
REMARK  10 active torsions:
REMARK  status: ('A' for Active; 'I' for Inactive)
REMARK    1  A    between atoms: C_1  and  C_2
REMARK    2  A    between atoms: C_2  and  C_3
REMARK    3  A    between atoms: C_6  and  C_7
REMARK    4  A    between atoms: N_15  and  C_16
REMARK    5  A    between atoms: C_16  and  C_17
REMARK    6  A    between atoms: N_19  and  C_20
REMARK    7  A    between atoms: C_20  and  C_21
REMARK    8  A    between atoms: C_20  and  C_25
REMARK    9  A    between atoms: C_21  and  C_22
REMARK   10  A    between atoms: C_22  and  O_24
REMARK                            x       y       z     vdW  Elec       q    Type
REMARK                         _______ _______ _______ _____ _____    ______ ____
ROOT
ATOM      1  C   UNL     1       0.695   3.193  20.732  0.00  0.00    +0.000 C 
ATOM      2  C   UNL     1       1.830   3.988  20.079  0.00  0.00    +0.000 C 
ATOM      3  N   UNL     1       3.106   3.573  20.629  0.00  0.00    +0.000 N 
ATOM      4  C   UNL     1       3.976   3.130  19.657  0.00  0.00    +0.000 C 
ATOM      5  O   UNL     1       5.155   2.902  19.849  0.00  0.00    +0.000 OA
ATOM      6  N   UNL     1       3.300   3.031  18.481  0.00  0.00    +0.000 N 
ATOM      7  C   UNL     1       2.014   3.489  18.623  0.00  0.00    +0.000 C 
ATOM      8  O   UNL     1       1.160   3.511  17.744  0.00  0.00    +0.000 OA
ATOM      9  H   UNL     1       3.453   3.838  21.541  0.00  0.00    +0.000 HD
ENDROOT
BRANCH   2  10
ATOM     10  C   UNL     1       1.692   5.513  20.154  0.00  0.00    +0.000 A 
ATOM     11  C   UNL     1       2.329   6.379  19.248  0.00  0.00    +0.000 A 
ATOM     12  C   UNL     1       2.183   7.769  19.348  0.00  0.00    +0.000 A 
ATOM     13  C   UNL     1       1.391   8.326  20.352  0.00  0.00    +0.000 A 
ATOM     14  C   UNL     1       0.749   7.488  21.262  0.00  0.00    +0.000 A 
ATOM     15  C   UNL     1       0.895   6.101  21.157  0.00  0.00    +0.000 A 
BRANCH  13  16
ATOM     16  C   UNL     1       1.249   9.804  20.457  0.00  0.00    +0.000 C 
ATOM     17  N   UNL     1       1.324  10.442  21.582  0.00  0.00    +0.000 NA
ATOM     18  N   UNL     1       1.038  10.558  19.342  0.00  0.00    +0.000 N 
ATOM     19  H   UNL     1       1.441   9.797  22.368  0.00  0.00    +0.000 HD
ATOM     20  H   UNL     1       1.540  10.266  18.512  0.00  0.00    +0.000 HD
ATOM     21  H   UNL     1       1.179  11.543  19.548  0.00  0.00    +0.000 HD
ENDBRANCH  13  16
ENDBRANCH   2  10
BRANCH   6  22
ATOM     22  C   UNL     1       3.906   2.645  17.226  0.00  0.00    +0.000 C 
BRANCH  22  23
ATOM     23  C   UNL     1       4.723   3.819  16.675  0.00  0.00    +0.000 C 
ATOM     24  O   UNL     1       4.246   4.935  16.478  0.00  0.00    +0.000 OA
ATOM     25  N   UNL     1       6.034   3.520  16.370  0.00  0.00    +0.000 N 
ATOM     26  H   UNL     1       6.446   2.651  16.701  0.00  0.00    +0.000 HD
BRANCH  25  27
ATOM     27  C   UNL     1       6.947   4.505  15.797  0.00  0.00    +0.000 C 
BRANCH  27  28
ATOM     28  C   UNL     1       7.341   5.578  16.792  0.00  0.00    +0.000 A 
ATOM     29  C   UNL     1       7.372   6.944  16.490  0.00  0.00    +0.000 A 
ATOM     30  C   UNL     1       7.765   7.864  17.458  0.00  0.00    +0.000 A 
ATOM     31  C   UNL     1       8.132   7.391  18.706  0.00  0.00    +0.000 A 
ATOM     32  N   UNL     1       8.127   6.083  19.038  0.00  0.00    +0.000 NA
ATOM     33  C   UNL     1       7.726   5.215  18.083  0.00  0.00    +0.000 A 
ENDBRANCH  27  28
BRANCH  27  34
ATOM     34  C   UNL     1       6.433   5.078  14.466  0.00  0.00    +0.000 C 
BRANCH  34  35
ATOM     35  C   UNL     1       7.450   5.012  13.355  0.00  0.00    +0.000 C 
ATOM     36  O   UNL     1       8.420   5.750  13.259  0.00  0.00    +0.000 OA
BRANCH  35  37
ATOM     37  O   UNL     1       7.151   4.090  12.414  0.00  0.00    +0.000 OA
ATOM     38  H   UNL     1       6.295   3.633  12.538  0.00  0.00    +0.000 HD
ENDBRANCH  35  37
ENDBRANCH  34  35
ENDBRANCH  27  34
ENDBRANCH  25  27
ENDBRANCH  22  23
ENDBRANCH   6  22
TORSDOF 9
ENDMDL
MODEL 2
REMARK VINA RESULT:      -7.4      3.456      6.431
REMARK  Name = 
REMARK  10 active torsions:
REMARK  status: ('A' for Active; 'I' for Inactive)
REMARK    1  A    between atoms: C_1  and  C_2
REMARK    2  A    between atoms: C_2  and  C_3
REMARK    3  A    between atoms: C_6  and  C_7
REMARK    4  A    between atoms: N_15  and  C_16
REMARK    5  A    between atoms: C_16  and  C_17
REMARK    6  A    between atoms: N_19  and  C_20
REMARK    7  A    between atoms: C_20  and  C_21
REMARK    8  A    between atoms: C_20  and  C_25
REMARK    9  A    between atoms: C_21  and  C_22
REMARK   10  A    between atoms: C_22  and  O_24
REMARK                            x       y       z     vdW  Elec       q    Type
REMARK                         _______ _______ _______ _____ _____    ______ ____
ROOT
ATOM      1  C   UNL     1      -0.966   9.922  17.666  0.00  0.00    +0.000 C 
ATOM      2  C   UNL     1      -0.161  10.358  18.895  0.00  0.00    +0.000 C 
ATOM      3  N   UNL     1      -0.871   9.999  20.107  0.00  0.00    +0.000 N 
ATOM      4  C   UNL     1      -0.121   9.194  20.934  0.00  0.00    +0.000 C 
ATOM      5  O   UNL     1      -0.430   8.912  22.077  0.00  0.00    +0.000 OA
ATOM      6  N   UNL     1       1.002   8.813  20.269  0.00  0.00    +0.000 N 
ATOM      7  C   UNL     1       1.068   9.424  19.042  0.00  0.00    +0.000 C 
ATOM      8  O   UNL     1       1.954   9.268  18.209  0.00  0.00    +0.000 OA
ATOM      9  H   UNL     1      -1.678  10.490  20.468  0.00  0.00    +0.000 HD
ENDROOT
BRANCH   2  10
ATOM     10  C   UNL     1       0.232  11.839  18.930  0.00  0.00    +0.000 A 
ATOM     11  C   UNL     1      -0.616  12.861  18.466  0.00  0.00    +0.000 A 
ATOM     12  C   UNL     1      -0.224  14.206  18.511  0.00  0.00    +0.000 A 
ATOM     13  C   UNL     1       1.022  14.561  19.027  0.00  0.00    +0.000 A 
ATOM     14  C   UNL     1       1.880  13.566  19.493  0.00  0.00    +0.000 A 
ATOM     15  C   UNL     1       1.483  12.226  19.450  0.00  0.00    +0.000 A 
BRANCH  13  16
ATOM     16  C   UNL     1       1.435  15.991  19.061  0.00  0.00    +0.000 C 
ATOM     17  N   UNL     1       2.327  16.488  18.264  0.00  0.00    +0.000 NA
ATOM     18  N   UNL     1       0.867  16.853  19.952  0.00  0.00    +0.000 N 
ATOM     19  H   UNL     1       2.729  15.765  17.661  0.00  0.00    +0.000 HD
ATOM     20  H   UNL     1      -0.124  16.721  20.120  0.00  0.00    +0.000 HD
ATOM     21  H   UNL     1       1.091  17.813  19.707  0.00  0.00    +0.000 HD
ENDBRANCH  13  16
ENDBRANCH   2  10
BRANCH   6  22
ATOM     22  C   UNL     1       2.054   8.004  20.846  0.00  0.00    +0.000 C 
BRANCH  22  23
ATOM     23  C   UNL     1       2.015   6.604  20.224  0.00  0.00    +0.000 C 
ATOM     24  O   UNL     1       1.341   5.684  20.682  0.00  0.00    +0.000 OA
ATOM     25  N   UNL     1       2.833   6.435  19.127  0.00  0.00    +0.000 N 
ATOM     26  H   UNL     1       3.240   7.247  18.667  0.00  0.00    +0.000 HD
BRANCH  25  27
ATOM     27  C   UNL     1       2.954   5.156  18.432  0.00  0.00    +0.000 C 
BRANCH  27  28
ATOM     28  C   UNL     1       3.985   5.192  17.323  0.00  0.00    +0.000 A 
ATOM     29  C   UNL     1       4.459   4.051  16.666  0.00  0.00    +0.000 A 
ATOM     30  C   UNL     1       5.423   4.170  15.669  0.00  0.00    +0.000 A 
ATOM     31  C   UNL     1       5.901   5.432  15.362  0.00  0.00    +0.000 A 
ATOM     32  N   UNL     1       5.481   6.558  15.976  0.00  0.00    +0.000 NA
ATOM     33  C   UNL     1       4.533   6.413  16.929  0.00  0.00    +0.000 A 
ENDBRANCH  27  28
BRANCH  27  34
ATOM     34  C   UNL     1       1.593   4.607  17.972  0.00  0.00    +0.000 C 
BRANCH  34  35
ATOM     35  C   UNL     1       1.309   3.216  18.475  0.00  0.00    +0.000 C 
ATOM     36  O   UNL     1       1.742   2.192  17.966  0.00  0.00    +0.000 OA
BRANCH  35  37
ATOM     37  O   UNL     1       0.454   3.192  19.522  0.00  0.00    +0.000 OA
ATOM     38  H   UNL     1      -0.487   3.321  19.291  0.00  0.00    +0.000 HD
ENDBRANCH  35  37
ENDBRANCH  34  35
ENDBRANCH  27  34
ENDBRANCH  25  27
ENDBRANCH  22  23
ENDBRANCH   6  22
TORSDOF 9
ENDMDL
MODEL 3
REMARK VINA RESULT:      -7.3      3.417      6.228
REMARK  Name = 
REMARK  10 active torsions:
REMARK  status: ('A' for Active; 'I' for Inactive)
REMARK    1  A    between atoms: C_1  and  C_2
REMARK    2  A    between atoms: C_2  and  C_3
REMARK    3  A    between atoms: C_6  and  C_7
REMARK    4  A    between atoms: N_15  and  C_16
REMARK    5  A    between atoms: C_16  and  C_17
REMARK    6  A    between atoms: N_19  and  C_20
REMARK    7  A    between atoms: C_20  and  C_21
REMARK    8  A    between atoms: C_20  and  C_25
REMARK    9  A    between atoms: C_21  and  C_22
REMARK   10  A    between atoms: C_22  and  O_24
REMARK                            x       y       z     vdW  Elec       q    Type
REMARK                         _______ _______ _______ _____ _____    ______ ____
ROOT
ATOM      1  C   UNL     1      -0.809   9.842  17.666  0.00  0.00    +0.000 C 
ATOM      2  C   UNL     1      -0.045  10.337  18.899  0.00  0.00    +0.000 C 
ATOM      3  N   UNL     1      -0.832  10.107  20.095  0.00  0.00    +0.000 N 
ATOM      4  C   UNL     1      -0.165   9.337  21.021  0.00  0.00    +0.000 C 
ATOM      5  O   UNL     1      -0.545   9.161  22.163  0.00  0.00    +0.000 OA
ATOM      6  N   UNL     1       0.970   8.855  20.448  0.00  0.00    +0.000 N 
ATOM      7  C   UNL     1       1.127   9.363  19.182  0.00  0.00    +0.000 C 
ATOM      8  O   UNL     1       2.044   9.101  18.413  0.00  0.00    +0.000 OA
ATOM      9  H   UNL     1      -1.631  10.662  20.373  0.00  0.00    +0.000 HD
ENDROOT
BRANCH   2  10
ATOM     10  C   UNL     1       0.418  11.797  18.842  0.00  0.00    +0.000 A 
ATOM     11  C   UNL     1       1.775  12.162  18.802  0.00  0.00    +0.000 A 
ATOM     12  C   UNL     1       2.164  13.508  18.753  0.00  0.00    +0.000 A 
ATOM     13  C   UNL     1       1.204  14.520  18.736  0.00  0.00    +0.000 A 
ATOM     14  C   UNL     1      -0.148  14.183  18.775  0.00  0.00    +0.000 A 
ATOM     15  C   UNL     1      -0.532  12.839  18.820  0.00  0.00    +0.000 A 
BRANCH  13  16
ATOM     16  C   UNL     1       1.626  15.947  18.694  0.00  0.00    +0.000 C 
ATOM     17  N   UNL     1       0.965  16.896  19.280  0.00  0.00    +0.000 NA
ATOM     18  N   UNL     1       2.756  16.314  18.027  0.00  0.00    +0.000 N 
ATOM     19  H   UNL     1       0.112  16.538  19.719  0.00  0.00    +0.000 HD
ATOM     20  H   UNL     1       3.536  15.672  18.098  0.00  0.00    +0.000 HD
ATOM     21  H   UNL     1       3.018  17.265  18.271  0.00  0.00    +0.000 HD
ENDBRANCH  13  16
ENDBRANCH   2  10
BRANCH   6  22
ATOM     22  C   UNL     1       1.949   8.046  21.141  0.00  0.00    +0.000 C 
BRANCH  22  23
ATOM     23  C   UNL     1       2.015   6.661  20.490  0.00  0.00    +0.000 C 
ATOM     24  O   UNL     1       1.184   5.780  20.700  0.00  0.00    +0.000 OA
ATOM     25  N   UNL     1       3.110   6.455  19.677  0.00  0.00    +0.000 N 
ATOM     26  H   UNL     1       3.681   7.244  19.384  0.00  0.00    +0.000 HD
BRANCH  25  27
ATOM     27  C   UNL     1       3.356   5.180  19.007  0.00  0.00    +0.000 C 
BRANCH  27  28
ATOM     28  C   UNL     1       4.779   5.054  18.503  0.00  0.00    +0.000 A 
ATOM     29  C   UNL     1       5.904   5.410  19.254  0.00  0.00    +0.000 A 
ATOM     30  C   UNL     1       7.178   5.280  18.708  0.00  0.00    +0.000 A 
ATOM     31  C   UNL     1       7.294   4.808  17.412  0.00  0.00    +0.000 A 
ATOM     32  N   UNL     1       6.237   4.463  16.647  0.00  0.00    +0.000 NA
ATOM     33  C   UNL     1       5.014   4.584  17.210  0.00  0.00    +0.000 A 
ENDBRANCH  27  28
BRANCH  27  34
ATOM     34  C   UNL     1       2.304   4.870  17.929  0.00  0.00    +0.000 C 
BRANCH  34  35
ATOM     35  C   UNL     1       1.758   3.469  18.013  0.00  0.00    +0.000 C 
ATOM     36  O   UNL     1       2.022   2.573  17.224  0.00  0.00    +0.000 OA
BRANCH  35  37
ATOM     37  O   UNL     1       0.872   3.302  19.020  0.00  0.00    +0.000 OA
ATOM     38  H   UNL     1       0.769   4.072  19.613  0.00  0.00    +0.000 HD
ENDBRANCH  35  37
ENDBRANCH  34  35
ENDBRANCH  27  34
ENDBRANCH  25  27
ENDBRANCH  22  23
ENDBRANCH   6  22
TORSDOF 9
ENDMDL
MODEL 4
REMARK VINA RESULT:      -7.3      4.450      7.356
REMARK  Name = 
REMARK  10 active torsions:
REMARK  status: ('A' for Active; 'I' for Inactive)
REMARK    1  A    between atoms: C_1  and  C_2
REMARK    2  A    between atoms: C_2  and  C_3
REMARK    3  A    between atoms: C_6  and  C_7
REMARK    4  A    between atoms: N_15  and  C_16
REMARK    5  A    between atoms: C_16  and  C_17
REMARK    6  A    between atoms: N_19  and  C_20
REMARK    7  A    between atoms: C_20  and  C_21
REMARK    8  A    between atoms: C_20  and  C_25
REMARK    9  A    between atoms: C_21  and  C_22
REMARK   10  A    between atoms: C_22  and  O_24
REMARK                            x       y       z     vdW  Elec       q    Type
REMARK                         _______ _______ _______ _____ _____    ______ ____
ROOT
ATOM      1  C   UNL     1      -2.419  12.046  19.680  0.00  0.00    +0.000 C 
ATOM      2  C   UNL     1      -1.421  11.362  18.739  0.00  0.00    +0.000 C 
ATOM      3  N   UNL     1      -0.269  12.218  18.531  0.00  0.00    +0.000 N 
ATOM      4  C   UNL     1       0.912  11.602  18.881  0.00  0.00    +0.000 C 
ATOM      5  O   UNL     1       2.015  12.050  18.631  0.00  0.00    +0.000 OA
ATOM      6  N   UNL     1       0.622  10.431  19.508  0.00  0.00    +0.000 N 
ATOM      7  C   UNL     1      -0.732  10.202  19.503  0.00  0.00    +0.000 C 
ATOM      8  O   UNL     1      -1.298   9.237  20.005  0.00  0.00    +0.000 OA
ATOM      9  H   UNL     1      -0.261  13.037  17.936  0.00  0.00    +0.000 HD
ENDROOT
BRANCH   2  10
ATOM     10  C   UNL     1      -1.994  10.908  17.392  0.00  0.00    +0.000 A 
ATOM     11  C   UNL     1      -1.591   9.719  16.758  0.00  0.00    +0.000 A 
ATOM     12  C   UNL     1      -2.134   9.335  15.524  0.00  0.00    +0.000 A 
ATOM     13  C   UNL     1      -3.097  10.127  14.899  0.00  0.00    +0.000 A 
ATOM     14  C   UNL     1      -3.512  11.310  15.508  0.00  0.00    +0.000 A 
ATOM     15  C   UNL     1      -2.970  11.688  16.741  0.00  0.00    +0.000 A 
BRANCH  13  16
ATOM     16  C   UNL     1      -3.660   9.717  13.584  0.00  0.00    +0.000 C 
ATOM     17  N   UNL     1      -2.931   9.533  12.529  0.00  0.00    +0.000 NA
ATOM     18  N   UNL     1      -4.999   9.506  13.441  0.00  0.00    +0.000 N 
ATOM     19  H   UNL     1      -1.948   9.754  12.715  0.00  0.00    +0.000 HD
ATOM     20  H   UNL     1      -5.460   9.061  14.227  0.00  0.00    +0.000 HD
ATOM     21  H   UNL     1      -5.192   9.031  12.564  0.00  0.00    +0.000 HD
ENDBRANCH  13  16
ENDBRANCH   2  10
BRANCH   6  22
ATOM     22  C   UNL     1       1.617   9.489  19.971  0.00  0.00    +0.000 C 
BRANCH  22  23
ATOM     23  C   UNL     1       1.911   8.475  18.861  0.00  0.00    +0.000 C 
ATOM     24  O   UNL     1       1.655   8.683  17.677  0.00  0.00    +0.000 OA
ATOM     25  N   UNL     1       2.449   7.281  19.295  0.00  0.00    +0.000 N 
ATOM     26  H   UNL     1       2.809   7.202  20.244  0.00  0.00    +0.000 HD
BRANCH  25  27
ATOM     27  C   UNL     1       2.755   6.185  18.381  0.00  0.00    +0.000 C 
BRANCH  27  28
ATOM     28  C   UNL     1       2.048   4.899  18.759  0.00  0.00    +0.000 A 
ATOM     29  C   UNL     1       1.688   4.567  20.069  0.00  0.00    +0.000 A 
ATOM     30  C   UNL     1       1.057   3.354  20.333  0.00  0.00    +0.000 A 
ATOM     31  C   UNL     1       0.812   2.495  19.277  0.00  0.00    +0.000 A 
ATOM     32  N   UNL     1       1.150   2.769  17.999  0.00  0.00    +0.000 NA
ATOM     33  C   UNL     1       1.747   3.960  17.771  0.00  0.00    +0.000 A 
ENDBRANCH  27  28
BRANCH  27  34
ATOM     34  C   UNL     1       4.266   6.002  18.167  0.00  0.00    +0.000 C 
BRANCH  34  35
ATOM     35  C   UNL     1       4.641   5.754  16.729  0.00  0.00    +0.000 C 
ATOM     36  O   UNL     1       4.822   4.648  16.240  0.00  0.00    +0.000 OA
BRANCH  35  37
ATOM     37  O   UNL     1       4.834   6.891  16.025  0.00  0.00    +0.000 OA
ATOM     38  H   UNL     1       5.578   6.865  15.391  0.00  0.00    +0.000 HD
ENDBRANCH  35  37
ENDBRANCH  34  35
ENDBRANCH  27  34
ENDBRANCH  25  27
ENDBRANCH  22  23
ENDBRANCH   6  22
TORSDOF 9
ENDMDL
MODEL 5
REMARK VINA RESULT:      -7.2      2.135      3.811
REMARK  Name = 
REMARK  10 active torsions:
REMARK  status: ('A' for Active; 'I' for Inactive)
REMARK    1  A    between atoms: C_1  and  C_2
REMARK    2  A    between atoms: C_2  and  C_3
REMARK    3  A    between atoms: C_6  and  C_7
REMARK    4  A    between atoms: N_15  and  C_16
REMARK    5  A    between atoms: C_16  and  C_17
REMARK    6  A    between atoms: N_19  and  C_20
REMARK    7  A    between atoms: C_20  and  C_21
REMARK    8  A    between atoms: C_20  and  C_25
REMARK    9  A    between atoms: C_21  and  C_22
REMARK   10  A    between atoms: C_22  and  O_24
REMARK                            x       y       z     vdW  Elec       q    Type
REMARK                         _______ _______ _______ _____ _____    ______ ____
ROOT
ATOM      1  C   UNL     1       1.169   4.604  20.820  0.00  0.00    +0.000 C 
ATOM      2  C   UNL     1       2.207   5.179  19.850  0.00  0.00    +0.000 C 
ATOM      3  N   UNL     1       3.543   4.970  20.372  0.00  0.00    +0.000 N 
ATOM      4  C   UNL     1       4.342   4.266  19.499  0.00  0.00    +0.000 C 
ATOM      5  O   UNL     1       5.543   4.124  19.637  0.00  0.00    +0.000 OA
ATOM      6  N   UNL     1       3.571   3.803  18.480  0.00  0.00    +0.000 N 
ATOM      7  C   UNL     1       2.283   4.263  18.601  0.00  0.00    +0.000 C 
ATOM      8  O   UNL     1       1.355   4.004  17.844  0.00  0.00    +0.000 OA
ATOM      9  H   UNL     1       3.957   5.506  21.124  0.00  0.00    +0.000 HD
ENDROOT
BRANCH   2  10
ATOM     10  C   UNL     1       2.009   6.652  19.474  0.00  0.00    +0.000 A 
ATOM     11  C   UNL     1       1.491   7.601  20.373  0.00  0.00    +0.000 A 
ATOM     12  C   UNL     1       1.320   8.941  19.995  0.00  0.00    +0.000 A 
ATOM     13  C   UNL     1       1.670   9.363  18.712  0.00  0.00    +0.000 A 
ATOM     14  C   UNL     1       2.186   8.440  17.804  0.00  0.00    +0.000 A 
ATOM     15  C   UNL     1       2.358   7.105  18.186  0.00  0.00    +0.000 A 
BRANCH  13  16
ATOM     16  C   UNL     1       1.476  10.785  18.317  0.00  0.00    +0.000 C 
ATOM     17  N   UNL     1       2.433  11.525  17.854  0.00  0.00    +0.000 NA
ATOM     18  N   UNL     1       0.251  11.371  18.423  0.00  0.00    +0.000 N 
ATOM     19  H   UNL     1       3.324  11.019  17.848  0.00  0.00    +0.000 HD
ATOM     20  H   UNL     1      -0.540  10.782  18.187  0.00  0.00    +0.000 HD
ATOM     21  H   UNL     1       0.236  12.254  17.921  0.00  0.00    +0.000 HD
ENDBRANCH  13  16
ENDBRANCH   2  10
BRANCH   6  22
ATOM     22  C   UNL     1       4.080   3.062  17.347  0.00  0.00    +0.000 C 
BRANCH  22  23
ATOM     23  C   UNL     1       4.586   4.044  16.285  0.00  0.00    +0.000 C 
ATOM     24  O   UNL     1       4.197   5.207  16.207  0.00  0.00    +0.000 OA
ATOM     25  N   UNL     1       5.484   3.511  15.384  0.00  0.00    +0.000 N 
ATOM     26  H   UNL     1       5.917   2.610  15.573  0.00  0.00    +0.000 HD
BRANCH  25  27
ATOM     27  C   UNL     1       6.039   4.290  14.281  0.00  0.00    +0.000 C 
BRANCH  27  28
ATOM     28  C   UNL     1       6.048   3.523  12.975  0.00  0.00    +0.000 A 
ATOM     29  C   UNL     1       4.891   3.068  12.333  0.00  0.00    +0.000 A 
ATOM     30  C   UNL     1       4.988   2.353  11.143  0.00  0.00    +0.000 A 
ATOM     31  C   UNL     1       6.247   2.098  10.629  0.00  0.00    +0.000 A 
ATOM     32  N   UNL     1       7.390   2.508  11.218  0.00  0.00    +0.000 NA
ATOM     33  C   UNL     1       7.264   3.214  12.364  0.00  0.00    +0.000 A 
ENDBRANCH  27  28
BRANCH  27  34
ATOM     34  C   UNL     1       7.404   4.909  14.626  0.00  0.00    +0.000 C 
BRANCH  34  35
ATOM     35  C   UNL     1       7.561   5.231  16.090  0.00  0.00    +0.000 C 
ATOM     36  O   UNL     1       7.403   6.342  16.575  0.00  0.00    +0.000 OA
BRANCH  35  37
ATOM     37  O   UNL     1       7.970   4.176  16.827  0.00  0.00    +0.000 OA
ATOM     38  H   UNL     1       7.315   3.841  17.471  0.00  0.00    +0.000 HD
ENDBRANCH  35  37
ENDBRANCH  34  35
ENDBRANCH  27  34
ENDBRANCH  25  27
ENDBRANCH  22  23
ENDBRANCH   6  22
TORSDOF 9
ENDMDL
MODEL 6
REMARK VINA RESULT:      -7.2      4.167      6.120
REMARK  Name = 
REMARK  10 active torsions:
REMARK  status: ('A' for Active; 'I' for Inactive)
REMARK    1  A    between atoms: C_1  and  C_2
REMARK    2  A    between atoms: C_2  and  C_3
REMARK    3  A    between atoms: C_6  and  C_7
REMARK    4  A    between atoms: N_15  and  C_16
REMARK    5  A    between atoms: C_16  and  C_17
REMARK    6  A    between atoms: N_19  and  C_20
REMARK    7  A    between atoms: C_20  and  C_21
REMARK    8  A    between atoms: C_20  and  C_25
REMARK    9  A    between atoms: C_21  and  C_22
REMARK   10  A    between atoms: C_22  and  O_24
REMARK                            x       y       z     vdW  Elec       q    Type
REMARK                         _______ _______ _______ _____ _____    ______ ____
ROOT
ATOM      1  C   UNL     1       4.274   4.617  17.008  0.00  0.00    +0.000 C 
ATOM      2  C   UNL     1       4.746   5.781  17.886  0.00  0.00    +0.000 C 
ATOM      3  N   UNL     1       5.454   5.272  19.044  0.00  0.00    +0.000 N 
ATOM      4  C   UNL     1       6.733   5.774  19.138  0.00  0.00    +0.000 C 
ATOM      5  O   UNL     1       7.451   5.635  20.110  0.00  0.00    +0.000 OA
ATOM      6  N   UNL     1       7.018   6.454  17.996  0.00  0.00    +0.000 N 
ATOM      7  C   UNL     1       5.920   6.499  17.173  0.00  0.00    +0.000 C 
ATOM      8  O   UNL     1       5.873   7.027  16.068  0.00  0.00    +0.000 OA
ATOM      9  H   UNL     1       5.012   4.850  19.851  0.00  0.00    +0.000 HD
ENDROOT
BRANCH   2  10
ATOM     10  C   UNL     1       3.650   6.760  18.323  0.00  0.00    +0.000 A 
ATOM     11  C   UNL     1       2.950   6.624  19.535  0.00  0.00    +0.000 A 
ATOM     12  C   UNL     1       1.952   7.537  19.903  0.00  0.00    +0.000 A 
ATOM     13  C   UNL     1       1.635   8.610  19.070  0.00  0.00    +0.000 A 
ATOM     14  C   UNL     1       2.315   8.766  17.864  0.00  0.00    +0.000 A 
ATOM     15  C   UNL     1       3.313   7.855  17.502  0.00  0.00    +0.000 A 
BRANCH  13  16
ATOM     16  C   UNL     1       0.566   9.569  19.463  0.00  0.00    +0.000 C 
ATOM     17  N   UNL     1      -0.099  10.276  18.605  0.00  0.00    +0.000 NA
ATOM     18  N   UNL     1       0.236   9.735  20.775  0.00  0.00    +0.000 N 
ATOM     19  H   UNL     1       0.242  10.120  17.652  0.00  0.00    +0.000 HD
ATOM     20  H   UNL     1       0.241   8.894  21.339  0.00  0.00    +0.000 HD
ATOM     21  H   UNL     1      -0.637  10.248  20.858  0.00  0.00    +0.000 HD
ENDBRANCH  13  16
ENDBRANCH   2  10
BRANCH   6  22
ATOM     22  C   UNL     1       8.257   7.162  17.759  0.00  0.00    +0.000 C 
BRANCH  22  23
ATOM     23  C   UNL     1       8.081   8.635  18.146  0.00  0.00    +0.000 C 
ATOM     24  O   UNL     1       7.218   9.359  17.655  0.00  0.00    +0.000 OA
ATOM     25  N   UNL     1       8.999   9.106  19.061  0.00  0.00    +0.000 N 
ATOM     26  H   UNL     1       9.585   8.452  19.576  0.00  0.00    +0.000 HD
BRANCH  25  27
ATOM     27  C   UNL     1       9.007  10.495  19.513  0.00  0.00    +0.000 C 
BRANCH  27  28
ATOM     28  C   UNL     1       9.907  11.375  18.669  0.00  0.00    +0.000 A 
ATOM     29  C   UNL     1      11.304  11.340  18.727  0.00  0.00    +0.000 A 
ATOM     30  C   UNL     1      12.057  12.197  17.930  0.00  0.00    +0.000 A 
ATOM     31  C   UNL     1      11.390  13.082  17.100  0.00  0.00    +0.000 A 
ATOM     32  N   UNL     1      10.045  13.158  17.019  0.00  0.00    +0.000 NA
ATOM     33  C   UNL     1       9.341  12.302  17.793  0.00  0.00    +0.000 A 
ENDBRANCH  27  28
BRANCH  27  34
ATOM     34  C   UNL     1       9.284  10.620  21.020  0.00  0.00    +0.000 C 
BRANCH  34  35
ATOM     35  C   UNL     1       8.534  11.753  21.673  0.00  0.00    +0.000 C 
ATOM     36  O   UNL     1       7.782  11.628  22.628  0.00  0.00    +0.000 OA
BRANCH  35  37
ATOM     37  O   UNL     1       8.715  12.940  21.051  0.00  0.00    +0.000 OA
ATOM     38  H   UNL     1       8.464  12.955  20.106  0.00  0.00    +0.000 HD
ENDBRANCH  35  37
ENDBRANCH  34  35
ENDBRANCH  27  34
ENDBRANCH  25  27
ENDBRANCH  22  23
ENDBRANCH   6  22
TORSDOF 9
ENDMDL
MODEL 7
REMARK VINA RESULT:      -7.1      2.145      3.750
REMARK  Name = 
REMARK  10 active torsions:
REMARK  status: ('A' for Active; 'I' for Inactive)
REMARK    1  A    between atoms: C_1  and  C_2
REMARK    2  A    between atoms: C_2  and  C_3
REMARK    3  A    between atoms: C_6  and  C_7
REMARK    4  A    between atoms: N_15  and  C_16
REMARK    5  A    between atoms: C_16  and  C_17
REMARK    6  A    between atoms: N_19  and  C_20
REMARK    7  A    between atoms: C_20  and  C_21
REMARK    8  A    between atoms: C_20  and  C_25
REMARK    9  A    between atoms: C_21  and  C_22
REMARK   10  A    between atoms: C_22  and  O_24
REMARK                            x       y       z     vdW  Elec       q    Type
REMARK                         _______ _______ _______ _____ _____    ______ ____
ROOT
ATOM      1  C   UNL     1       1.745   4.550  21.310  0.00  0.00    +0.000 C 
ATOM      2  C   UNL     1       2.554   5.165  20.163  0.00  0.00    +0.000 C 
ATOM      3  N   UNL     1       3.971   5.082  20.456  0.00  0.00    +0.000 N 
ATOM      4  C   UNL     1       4.669   4.407  19.479  0.00  0.00    +0.000 C 
ATOM      5  O   UNL     1       5.883   4.365  19.414  0.00  0.00    +0.000 OA
ATOM      6  N   UNL     1       3.779   3.845  18.619  0.00  0.00    +0.000 N 
ATOM      7  C   UNL     1       2.496   4.208  18.944  0.00  0.00    +0.000 C 
ATOM      8  O   UNL     1       1.479   3.847  18.363  0.00  0.00    +0.000 OA
ATOM      9  H   UNL     1       4.459   5.678  21.112  0.00  0.00    +0.000 HD
ENDROOT
BRANCH   2  10
ATOM     10  C   UNL     1       2.173   6.602  19.788  0.00  0.00    +0.000 A 
ATOM     11  C   UNL     1       2.468   7.162  18.532  0.00  0.00    +0.000 A 
ATOM     12  C   UNL     1       2.108   8.481  18.223  0.00  0.00    +0.000 A 
ATOM     13  C   UNL     1       1.439   9.268  19.160  0.00  0.00    +0.000 A 
ATOM     14  C   UNL     1       1.136   8.735  20.412  0.00  0.00    +0.000 A 
ATOM     15  C   UNL     1       1.494   7.417  20.715  0.00  0.00    +0.000 A 
BRANCH  13  16
ATOM     16  C   UNL     1       1.069  10.671  18.828  0.00  0.00    +0.000 C 
ATOM     17  N   UNL     1       1.681  11.366  17.921  0.00  0.00    +0.000 NA
ATOM     18  N   UNL     1       0.041  11.287  19.476  0.00  0.00    +0.000 N 
ATOM     19  H   UNL     1       2.463  10.842  17.517  0.00  0.00    +0.000 HD
ATOM     20  H   UNL     1      -0.761  10.703  19.682  0.00  0.00    +0.000 HD
ATOM     21  H   UNL     1      -0.219  12.143  18.994  0.00  0.00    +0.000 HD
ENDBRANCH  13  16
ENDBRANCH   2  10
BRANCH   6  22
ATOM     22  C   UNL     1       4.152   3.101  17.435  0.00  0.00    +0.000 C 
BRANCH  22  23
ATOM     23  C   UNL     1       4.604   4.077  16.344  0.00  0.00    +0.000 C 
ATOM     24  O   UNL     1       4.265   5.258  16.318  0.00  0.00    +0.000 OA
ATOM     25  N   UNL     1       5.390   3.519  15.358  0.00  0.00    +0.000 N 
ATOM     26  H   UNL     1       5.796   2.596  15.494  0.00  0.00    +0.000 HD
BRANCH  25  27
ATOM     27  C   UNL     1       5.878   4.291  14.218  0.00  0.00    +0.000 C 
BRANCH  27  28
ATOM     28  C   UNL     1       5.739   3.544  12.908  0.00  0.00    +0.000 A 
ATOM     29  C   UNL     1       4.550   3.479  12.172  0.00  0.00    +0.000 A 
ATOM     30  C   UNL     1       4.503   2.754  10.985  0.00  0.00    +0.000 A 
ATOM     31  C   UNL     1       5.647   2.097  10.568  0.00  0.00    +0.000 A 
ATOM     32  N   UNL     1       6.812   2.123  11.250  0.00  0.00    +0.000 NA
ATOM     33  C   UNL     1       6.832   2.848  12.390  0.00  0.00    +0.000 A 
ENDBRANCH  27  28
BRANCH  27  34
ATOM     34  C   UNL     1       7.292   4.848  14.447  0.00  0.00    +0.000 C 
BRANCH  34  35
ATOM     35  C   UNL     1       7.582   5.168  15.891  0.00  0.00    +0.000 C 
ATOM     36  O   UNL     1       8.007   4.364  16.708  0.00  0.00    +0.000 OA
BRANCH  35  37
ATOM     37  O   UNL     1       7.256   6.435  16.232  0.00  0.00    +0.000 OA
ATOM     38  H   UNL     1       7.654   6.755  17.065  0.00  0.00    +0.000 HD
ENDBRANCH  35  37
ENDBRANCH  34  35
ENDBRANCH  27  34
ENDBRANCH  25  27
ENDBRANCH  22  23
ENDBRANCH   6  22
TORSDOF 9
ENDMDL
MODEL 8
REMARK VINA RESULT:      -7.1      3.419      6.275
REMARK  Name = 
REMARK  10 active torsions:
REMARK  status: ('A' for Active; 'I' for Inactive)
REMARK    1  A    between atoms: C_1  and  C_2
REMARK    2  A    between atoms: C_2  and  C_3
REMARK    3  A    between atoms: C_6  and  C_7
REMARK    4  A    between atoms: N_15  and  C_16
REMARK    5  A    between atoms: C_16  and  C_17
REMARK    6  A    between atoms: N_19  and  C_20
REMARK    7  A    between atoms: C_20  and  C_21
REMARK    8  A    between atoms: C_20  and  C_25
REMARK    9  A    between atoms: C_21  and  C_22
REMARK   10  A    between atoms: C_22  and  O_24
REMARK                            x       y       z     vdW  Elec       q    Type
REMARK                         _______ _______ _______ _____ _____    ______ ____
ROOT
ATOM      1  C   UNL     1      -0.904   9.890  17.738  0.00  0.00    +0.000 C 
ATOM      2  C   UNL     1      -0.159  10.367  18.989  0.00  0.00    +0.000 C 
ATOM      3  N   UNL     1      -0.931  10.055  20.175  0.00  0.00    +0.000 N 
ATOM      4  C   UNL     1      -0.227   9.277  21.068  0.00  0.00    +0.000 C 
ATOM      5  O   UNL     1      -0.596   9.038  22.203  0.00  0.00    +0.000 OA
ATOM      6  N   UNL     1       0.925   8.868  20.474  0.00  0.00    +0.000 N 
ATOM      7  C   UNL     1       1.056   9.434  19.231  0.00  0.00    +0.000 C 
ATOM      8  O   UNL     1       1.981   9.244  18.450  0.00  0.00    +0.000 OA
ATOM      9  H   UNL     1      -1.752  10.562  20.478  0.00  0.00    +0.000 HD
ENDROOT
BRANCH   2  10
ATOM     10  C   UNL     1       0.240  11.847  18.991  0.00  0.00    +0.000 A 
ATOM     11  C   UNL     1      -0.581  12.856  18.457  0.00  0.00    +0.000 A 
ATOM     12  C   UNL     1      -0.184  14.200  18.473  0.00  0.00    +0.000 A 
ATOM     13  C   UNL     1       1.042  14.567  19.028  0.00  0.00    +0.000 A 
ATOM     14  C   UNL     1       1.873  13.585  19.564  0.00  0.00    +0.000 A 
ATOM     15  C   UNL     1       1.472  12.246  19.549  0.00  0.00    +0.000 A 
BRANCH  13  16
ATOM     16  C   UNL     1       1.460  15.996  19.032  0.00  0.00    +0.000 C 
ATOM     17  N   UNL     1       2.689  16.371  19.203  0.00  0.00    +0.000 NA
ATOM     18  N   UNL     1       0.543  16.985  18.843  0.00  0.00    +0.000 N 
ATOM     19  H   UNL     1       3.301  15.569  19.380  0.00  0.00    +0.000 HD
ATOM     20  H   UNL     1      -0.184  16.787  18.165  0.00  0.00    +0.000 HD
ATOM     21  H   UNL     1       1.008  17.869  18.659  0.00  0.00    +0.000 HD
ENDBRANCH  13  16
ENDBRANCH   2  10
BRANCH   6  22
ATOM     22  C   UNL     1       1.941   8.076  21.132  0.00  0.00    +0.000 C 
BRANCH  22  23
ATOM     23  C   UNL     1       1.985   6.681  20.499  0.00  0.00    +0.000 C 
ATOM     24  O   UNL     1       1.181   5.793  20.775  0.00  0.00    +0.000 OA
ATOM     25  N   UNL     1       3.030   6.476  19.622  0.00  0.00    +0.000 N 
ATOM     26  H   UNL     1       3.570   7.268  19.282  0.00  0.00    +0.000 HD
BRANCH  25  27
ATOM     27  C   UNL     1       3.250   5.194  18.957  0.00  0.00    +0.000 C 
BRANCH  27  28
ATOM     28  C   UNL     1       4.649   5.067  18.390  0.00  0.00    +0.000 A 
ATOM     29  C   UNL     1       5.812   5.306  19.130  0.00  0.00    +0.000 A 
ATOM     30  C   UNL     1       7.061   5.185  18.526  0.00  0.00    +0.000 A 
ATOM     31  C   UNL     1       7.114   4.839  17.187  0.00  0.00    +0.000 A 
ATOM     32  N   UNL     1       6.019   4.610  16.432  0.00  0.00    +0.000 NA
ATOM     33  C   UNL     1       4.821   4.719  17.049  0.00  0.00    +0.000 A 
ENDBRANCH  27  28
BRANCH  27  34
ATOM     34  C   UNL     1       2.152   4.867  17.932  0.00  0.00    +0.000 C 
BRANCH  34  35
ATOM     35  C   UNL     1       1.592   3.476  18.080  0.00  0.00    +0.000 C 
ATOM     36  O   UNL     1       0.771   3.145  18.923  0.00  0.00    +0.000 OA
BRANCH  35  37
ATOM     37  O   UNL     1       2.142   2.586  17.224  0.00  0.00    +0.000 OA
ATOM     38  H   UNL     1       1.508   2.130  16.636  0.00  0.00    +0.000 HD
ENDBRANCH  35  37
ENDBRANCH  34  35
ENDBRANCH  27  34
ENDBRANCH  25  27
ENDBRANCH  22  23
ENDBRANCH   6  22
TORSDOF 9
ENDMDL
MODEL 9
REMARK VINA RESULT:      -7.1      9.964     13.143
REMARK  Name = 
REMARK  10 active torsions:
REMARK  status: ('A' for Active; 'I' for Inactive)
REMARK    1  A    between atoms: C_1  and  C_2
REMARK    2  A    between atoms: C_2  and  C_3
REMARK    3  A    between atoms: C_6  and  C_7
REMARK    4  A    between atoms: N_15  and  C_16
REMARK    5  A    between atoms: C_16  and  C_17
REMARK    6  A    between atoms: N_19  and  C_20
REMARK    7  A    between atoms: C_20  and  C_21
REMARK    8  A    between atoms: C_20  and  C_25
REMARK    9  A    between atoms: C_21  and  C_22
REMARK   10  A    between atoms: C_22  and  O_24
REMARK                            x       y       z     vdW  Elec       q    Type
REMARK                         _______ _______ _______ _____ _____    ______ ____
ROOT
ATOM      1  C   UNL     1      -7.716  11.651  21.129  0.00  0.00    +0.000 C 
ATOM      2  C   UNL     1      -6.608  12.706  21.035  0.00  0.00    +0.000 C 
ATOM      3  N   UNL     1      -7.175  13.990  20.673  0.00  0.00    +0.000 N 
ATOM      4  C   UNL     1      -6.885  14.970  21.595  0.00  0.00    +0.000 C 
ATOM      5  O   UNL     1      -7.097  16.155  21.421  0.00  0.00    +0.000 OA
ATOM      6  N   UNL     1      -6.311  14.388  22.681  0.00  0.00    +0.000 N 
ATOM      7  C   UNL     1      -6.122  13.045  22.468  0.00  0.00    +0.000 C 
ATOM      8  O   UNL     1      -5.641  12.253  23.270  0.00  0.00    +0.000 OA
ATOM      9  H   UNL     1      -7.484  14.240  19.742  0.00  0.00    +0.000 HD
ENDROOT
BRANCH   2  10
ATOM     10  C   UNL     1      -5.445  12.356  20.100  0.00  0.00    +0.000 A 
ATOM     11  C   UNL     1      -5.627  11.666  18.888  0.00  0.00    +0.000 A 
ATOM     12  C   UNL     1      -4.540  11.360  18.057  0.00  0.00    +0.000 A 
ATOM     13  C   UNL     1      -3.248  11.743  18.415  0.00  0.00    +0.000 A 
ATOM     14  C   UNL     1      -3.043  12.428  19.611  0.00  0.00    +0.000 A 
ATOM     15  C   UNL     1      -4.130  12.734  20.436  0.00  0.00    +0.000 A 
BRANCH  13  16
ATOM     16  C   UNL     1      -2.099  11.405  17.531  0.00  0.00    +0.000 C 
ATOM     17  N   UNL     1      -0.917  11.127  17.985  0.00  0.00    +0.000 NA
ATOM     18  N   UNL     1      -2.255  11.368  16.178  0.00  0.00    +0.000 N 
ATOM     19  H   UNL     1      -0.880  11.220  19.004  0.00  0.00    +0.000 HD
ATOM     20  H   UNL     1      -3.134  10.988  15.848  0.00  0.00    +0.000 HD
ATOM     21  H   UNL     1      -1.455  10.920  15.741  0.00  0.00    +0.000 HD
ENDBRANCH  13  16
ENDBRANCH   2  10
BRANCH   6  22
ATOM     22  C   UNL     1      -5.824  15.118  23.832  0.00  0.00    +0.000 C 
BRANCH  22  23
ATOM     23  C   UNL     1      -4.351  15.481  23.617  0.00  0.00    +0.000 C 
ATOM     24  O   UNL     1      -3.978  16.603  23.282  0.00  0.00    +0.000 OA
ATOM     25  N   UNL     1      -3.467  14.435  23.784  0.00  0.00    +0.000 N 
ATOM     26  H   UNL     1      -3.778  13.573  24.225  0.00  0.00    +0.000 HD
BRANCH  25  27
ATOM     27  C   UNL     1      -2.029  14.589  23.580  0.00  0.00    +0.000 C 
BRANCH  27  28
ATOM     28  C   UNL     1      -1.392  13.351  22.982  0.00  0.00    +0.000 A 
ATOM     29  C   UNL     1      -1.811  12.047  23.268  0.00  0.00    +0.000 A 
ATOM     30  C   UNL     1      -1.157  10.962  22.690  0.00  0.00    +0.000 A 
ATOM     31  C   UNL     1      -0.089  11.209  21.847  0.00  0.00    +0.000 A 
ATOM     32  N   UNL     1       0.356  12.448  21.551  0.00  0.00    +0.000 NA
ATOM     33  C   UNL     1      -0.308  13.483  22.114  0.00  0.00    +0.000 A 
ENDBRANCH  27  28
BRANCH  27  34
ATOM     34  C   UNL     1      -1.307  15.090  24.841  0.00  0.00    +0.000 C 
BRANCH  34  35
ATOM     35  C   UNL     1      -0.587  16.398  24.637  0.00  0.00    +0.000 C 
ATOM     36  O   UNL     1       0.625  16.512  24.523  0.00  0.00    +0.000 OA
BRANCH  35  37
ATOM     37  O   UNL     1      -1.410  17.469  24.664  0.00  0.00    +0.000 OA
ATOM     38  H   UNL     1      -1.363  18.048  23.877  0.00  0.00    +0.000 HD
ENDBRANCH  35  37
ENDBRANCH  34  35
ENDBRANCH  27  34
ENDBRANCH  25  27
ENDBRANCH  22  23
ENDBRANCH   6  22
TORSDOF 9
ENDMDL
