MODEL 1
REMARK VINA RESULT:      -6.7      0.000      0.000
REMARK  Name = 
REMARK  11 active torsions:
REMARK  status: ('A' for Active; 'I' for Inactive)
REMARK    1  A    between atoms: C_1  and  C_2
REMARK    2  A    between atoms: C_2  and  C_3
REMARK    3  A    between atoms: C_3  and  C_4
REMARK    4  A    between atoms: C_4  and  C_5
REMARK    5  A    between atoms: C_5  and  C_6
REMARK    6  A    between atoms: C_6  and  C_7
REMARK    7  A    between atoms: C_7  and  C_8
REMARK    8  A    between atoms: C_8  and  O_9
REMARK    9  A    between atoms: C_12  and  O_13
REMARK   10  A    between atoms: C_14  and  O_15
REMARK   11  A    between atoms: C_16  and  O_17
REMARK                            x       y       z     vdW  Elec       q    Type
REMARK                         _______ _______ _______ _____ _____    ______ ____
ROOT
ATOM      1  C   UNL     1       4.458   5.087  17.610  0.00  0.00    +0.000 C 
ATOM      2  N   UNL     1       4.544   6.224  16.656  0.00  0.00    +0.000 NA
ATOM      3  C   UNL     1       5.456   5.994  15.531  0.00  0.00    +0.000 C 
ATOM      4  C   UNL     1       6.875   5.596  15.949  0.00  0.00    +0.000 C 
ATOM      5  C   UNL     1       6.835   4.400  16.907  0.00  0.00    +0.000 C 
ATOM      6  C   UNL     1       5.891   4.685  18.082  0.00  0.00    +0.000 C 
ATOM      7  H   UNL     1       4.823   7.061  17.180  0.00  0.00    +0.000 HD
ENDROOT
BRANCH   4   8
ATOM      8  O   UNL     1       7.666   5.304  14.793  0.00  0.00    +0.000 OA
ATOM      9  H   UNL     1       8.163   6.103  14.548  0.00  0.00    +0.000 HD
ENDBRANCH   4   8
BRANCH   5  10
ATOM     10  O   UNL     1       8.147   4.111  17.435  0.00  0.00    +0.000 OA
ATOM     11  H   UNL     1       8.201   4.483  18.331  0.00  0.00    +0.000 HD
ENDBRANCH   5  10
BRANCH   6  12
ATOM     12  O   UNL     1       5.830   3.563  18.970  0.00  0.00    +0.000 OA
ATOM     13  H   UNL     1       5.221   2.913  18.569  0.00  0.00    +0.000 HD
ENDBRANCH   6  12
BRANCH   1  14
ATOM     14  C   UNL     1       3.699   3.886  16.954  0.00  0.00    +0.000 C 
BRANCH  14  15
ATOM     15  C   UNL     1       2.266   3.693  17.477  0.00  0.00    +0.000 C 
BRANCH  15  16
ATOM     16  C   UNL     1       2.030   2.293  18.047  0.00  0.00    +0.000 C 
BRANCH  16  17
ATOM     17  C   UNL     1       0.819   2.306  18.984  0.00  0.00    +0.000 C 
BRANCH  17  19
ATOM     18  C   UNL     1       1.468   2.905  21.335  0.00  0.00    +0.000 C 
ATOM     19  C   UNL     1       0.907   3.424  20.020  0.00  0.00    +0.000 C 
ENDBRANCH  17  19
ENDBRANCH  16  17
ENDBRANCH  15  16
ENDBRANCH  14  15
ENDBRANCH   1  14
BRANCH   1  20
ATOM     20  C   UNL     1       3.658   5.554  18.867  0.00  0.00    +0.000 C 
BRANCH  20  21
ATOM     21  O   UNL     1       4.504   5.670  20.015  0.00  0.00    +0.000 OA
ATOM     22  H   UNL     1       5.004   6.498  19.901  0.00  0.00    +0.000 HD
ENDBRANCH  20  21
ENDBRANCH   1  20
TORSDOF 10
ENDMDL
MODEL 2
REMARK VINA RESULT:      -6.2      1.360      1.797
REMARK  Name = 
REMARK  11 active torsions:
REMARK  status: ('A' for Active; 'I' for Inactive)
REMARK    1  A    between atoms: C_1  and  C_2
REMARK    2  A    between atoms: C_2  and  C_3
REMARK    3  A    between atoms: C_3  and  C_4
REMARK    4  A    between atoms: C_4  and  C_5
REMARK    5  A    between atoms: C_5  and  C_6
REMARK    6  A    between atoms: C_6  and  C_7
REMARK    7  A    between atoms: C_7  and  C_8
REMARK    8  A    between atoms: C_8  and  O_9
REMARK    9  A    between atoms: C_12  and  O_13
REMARK   10  A    between atoms: C_14  and  O_15
REMARK   11  A    between atoms: C_16  and  O_17
REMARK                            x       y       z     vdW  Elec       q    Type
REMARK                         _______ _______ _______ _____ _____    ______ ____
ROOT
ATOM      1  C   UNL     1       4.033   4.712  17.776  0.00  0.00    +0.000 C 
ATOM      2  N   UNL     1       4.695   4.794  16.448  0.00  0.00    +0.000 NA
ATOM      3  C   UNL     1       6.049   4.232  16.417  0.00  0.00    +0.000 C 
ATOM      4  C   UNL     1       6.992   4.818  17.474  0.00  0.00    +0.000 C 
ATOM      5  C   UNL     1       6.362   4.718  18.867  0.00  0.00    +0.000 C 
ATOM      6  C   UNL     1       4.958   5.337  18.867  0.00  0.00    +0.000 C 
ATOM      7  H   UNL     1       4.708   5.778  16.157  0.00  0.00    +0.000 HD
ENDROOT
BRANCH   4   8
ATOM      8  O   UNL     1       8.256   4.148  17.430  0.00  0.00    +0.000 OA
ATOM      9  H   UNL     1       8.098   3.192  17.355  0.00  0.00    +0.000 HD
ENDBRANCH   4   8
BRANCH   5  10
ATOM     10  O   UNL     1       7.164   5.406  19.851  0.00  0.00    +0.000 OA
ATOM     11  H   UNL     1       7.739   4.753  20.282  0.00  0.00    +0.000 HD
ENDBRANCH   5  10
BRANCH   6  12
ATOM     12  O   UNL     1       4.354   5.228  20.160  0.00  0.00    +0.000 OA
ATOM     13  H   UNL     1       4.946   4.676  20.707  0.00  0.00    +0.000 HD
ENDBRANCH   6  12
BRANCH   1  14
ATOM     14  C   UNL     1       3.661   3.228  18.104  0.00  0.00    +0.000 C 
BRANCH  14  15
ATOM     15  C   UNL     1       2.207   2.859  17.767  0.00  0.00    +0.000 C 
BRANCH  15  16
ATOM     16  C   UNL     1       1.493   2.158  18.924  0.00  0.00    +0.000 C 
BRANCH  16  17
ATOM     17  C   UNL     1       0.586   3.149  19.657  0.00  0.00    +0.000 C 
BRANCH  17  19
ATOM     18  C   UNL     1       2.150   2.738  21.578  0.00  0.00    +0.000 C 
ATOM     19  C   UNL     1       1.271   3.761  20.876  0.00  0.00    +0.000 C 
ENDBRANCH  17  19
ENDBRANCH  16  17
ENDBRANCH  15  16
ENDBRANCH  14  15
ENDBRANCH   1  14
BRANCH   1  20
ATOM     20  C   UNL     1       2.719   5.554  17.728  0.00  0.00    +0.000 C 
BRANCH  20  21
ATOM     21  O   UNL     1       2.926   6.879  18.228  0.00  0.00    +0.000 OA
ATOM     22  H   UNL     1       2.770   7.480  17.477  0.00  0.00    +0.000 HD
ENDBRANCH  20  21
ENDBRANCH   1  20
TORSDOF 10
ENDMDL
MODEL 3
REMARK VINA RESULT:      -6.2      2.324      5.603
REMARK  Name = 
REMARK  11 active torsions:
REMARK  status: ('A' for Active; 'I' for Inactive)
REMARK    1  A    between atoms: C_1  and  C_2
REMARK    2  A    between atoms: C_2  and  C_3
REMARK    3  A    between atoms: C_3  and  C_4
REMARK    4  A    between atoms: C_4  and  C_5
REMARK    5  A    between atoms: C_5  and  C_6
REMARK    6  A    between atoms: C_6  and  C_7
REMARK    7  A    between atoms: C_7  and  C_8
REMARK    8  A    between atoms: C_8  and  O_9
REMARK    9  A    between atoms: C_12  and  O_13
REMARK   10  A    between atoms: C_14  and  O_15
REMARK   11  A    between atoms: C_16  and  O_17
REMARK                            x       y       z     vdW  Elec       q    Type
REMARK                         _______ _______ _______ _____ _____    ______ ____
ROOT
ATOM      1  C   UNL     1       4.275   4.378  18.616  0.00  0.00    +0.000 C 
ATOM      2  N   UNL     1       4.459   2.944  18.270  0.00  0.00    +0.000 NA
ATOM      3  C   UNL     1       3.209   2.229  17.998  0.00  0.00    +0.000 C 
ATOM      4  C   UNL     1       2.171   2.335  19.121  0.00  0.00    +0.000 C 
ATOM      5  C   UNL     1       1.923   3.804  19.483  0.00  0.00    +0.000 C 
ATOM      6  C   UNL     1       3.250   4.513  19.785  0.00  0.00    +0.000 C 
ATOM      7  H   UNL     1       4.971   2.494  19.037  0.00  0.00    +0.000 HD
ENDROOT
BRANCH   4   8
ATOM      8  O   UNL     1       0.955   1.688  18.731  0.00  0.00    +0.000 OA
ATOM      9  H   UNL     1       1.088   1.280  17.858  0.00  0.00    +0.000 HD
ENDBRANCH   4   8
BRANCH   5  10
ATOM     10  O   UNL     1       1.071   3.917  20.642  0.00  0.00    +0.000 OA
ATOM     11  H   UNL     1       1.630   4.122  21.410  0.00  0.00    +0.000 HD
ENDBRANCH   5  10
BRANCH   6  12
ATOM     12  O   UNL     1       3.029   5.892  20.102  0.00  0.00    +0.000 OA
ATOM     13  H   UNL     1       3.270   6.410  19.310  0.00  0.00    +0.000 HD
ENDBRANCH   6  12
BRANCH   1  14
ATOM     14  C   UNL     1       3.832   5.187  17.351  0.00  0.00    +0.000 C 
BRANCH  14  15
ATOM     15  C   UNL     1       4.882   6.195  16.855  0.00  0.00    +0.000 C 
BRANCH  15  16
ATOM     16  C   UNL     1       5.321   5.928  15.414  0.00  0.00    +0.000 C 
BRANCH  16  17
ATOM     17  C   UNL     1       5.579   4.433  15.213  0.00  0.00    +0.000 C 
BRANCH  17  19
ATOM     18  C   UNL     1       5.885   3.634  12.852  0.00  0.00    +0.000 C 
ATOM     19  C   UNL     1       6.582   4.169  14.093  0.00  0.00    +0.000 C 
ENDBRANCH  17  19
ENDBRANCH  16  17
ENDBRANCH  15  16
ENDBRANCH  14  15
ENDBRANCH   1  14
BRANCH   1  20
ATOM     20  C   UNL     1       5.642   4.947  19.115  0.00  0.00    +0.000 C 
BRANCH  20  21
ATOM     21  O   UNL     1       6.739   4.144  18.668  0.00  0.00    +0.000 OA
ATOM     22  H   UNL     1       7.519   4.729  18.667  0.00  0.00    +0.000 HD
ENDBRANCH  20  21
ENDBRANCH   1  20
TORSDOF 10
ENDMDL
MODEL 4
REMARK VINA RESULT:      -6.2      2.289      5.580
REMARK  Name = 
REMARK  11 active torsions:
REMARK  status: ('A' for Active; 'I' for Inactive)
REMARK    1  A    between atoms: C_1  and  C_2
REMARK    2  A    between atoms: C_2  and  C_3
REMARK    3  A    between atoms: C_3  and  C_4
REMARK    4  A    between atoms: C_4  and  C_5
REMARK    5  A    between atoms: C_5  and  C_6
REMARK    6  A    between atoms: C_6  and  C_7
REMARK    7  A    between atoms: C_7  and  C_8
REMARK    8  A    between atoms: C_8  and  O_9
REMARK    9  A    between atoms: C_12  and  O_13
REMARK   10  A    between atoms: C_14  and  O_15
REMARK   11  A    between atoms: C_16  and  O_17
REMARK                            x       y       z     vdW  Elec       q    Type
REMARK                         _______ _______ _______ _____ _____    ______ ____
ROOT
ATOM      1  C   UNL     1       3.744   4.365  18.767  0.00  0.00    +0.000 C 
ATOM      2  N   UNL     1       3.832   3.102  17.987  0.00  0.00    +0.000 NA
ATOM      3  C   UNL     1       2.532   2.542  17.608  0.00  0.00    +0.000 C 
ATOM      4  C   UNL     1       1.576   2.327  18.786  0.00  0.00    +0.000 C 
ATOM      5  C   UNL     1       1.427   3.619  19.597  0.00  0.00    +0.000 C 
ATOM      6  C   UNL     1       2.805   4.162  19.997  0.00  0.00    +0.000 C 
ATOM      7  H   UNL     1       4.369   2.423  18.539  0.00  0.00    +0.000 HD
ENDROOT
BRANCH   4   8
ATOM      8  O   UNL     1       0.306   1.867  18.313  0.00  0.00    +0.000 OA
ATOM      9  H   UNL     1       0.221   2.104  17.373  0.00  0.00    +0.000 HD
ENDBRANCH   4   8
BRANCH   5  10
ATOM     10  O   UNL     1       0.659   3.394  20.798  0.00  0.00    +0.000 OA
ATOM     11  H   UNL     1       1.193   3.681  21.557  0.00  0.00    +0.000 HD
ENDBRANCH   5  10
BRANCH   6  12
ATOM     12  O   UNL     1       2.676   5.382  20.736  0.00  0.00    +0.000 OA
ATOM     13  H   UNL     1       3.254   5.305  21.520  0.00  0.00    +0.000 HD
ENDBRANCH   6  12
BRANCH   1  14
ATOM     14  C   UNL     1       3.262   5.536  17.848  0.00  0.00    +0.000 C 
BRANCH  14  15
ATOM     15  C   UNL     1       4.371   6.532  17.472  0.00  0.00    +0.000 C 
BRANCH  15  16
ATOM     16  C   UNL     1       4.995   6.234  16.107  0.00  0.00    +0.000 C 
BRANCH  16  17
ATOM     17  C   UNL     1       6.498   5.994  16.259  0.00  0.00    +0.000 C 
BRANCH  17  19
ATOM     18  C   UNL     1       5.800   4.091  14.776  0.00  0.00    +0.000 C 
ATOM     19  C   UNL     1       6.955   4.734  15.527  0.00  0.00    +0.000 C 
ENDBRANCH  17  19
ENDBRANCH  16  17
ENDBRANCH  15  16
ENDBRANCH  14  15
ENDBRANCH   1  14
BRANCH   1  20
ATOM     20  C   UNL     1       5.168   4.713  19.309  0.00  0.00    +0.000 C 
BRANCH  20  21
ATOM     21  O   UNL     1       6.149   3.779  18.846  0.00  0.00    +0.000 OA
ATOM     22  H   UNL     1       6.776   4.291  18.304  0.00  0.00    +0.000 HD
ENDBRANCH  20  21
ENDBRANCH   1  20
TORSDOF 10
ENDMDL
MODEL 5
REMARK VINA RESULT:      -6.0      1.848      2.685
REMARK  Name = 
REMARK  11 active torsions:
REMARK  status: ('A' for Active; 'I' for Inactive)
REMARK    1  A    between atoms: C_1  and  C_2
REMARK    2  A    between atoms: C_2  and  C_3
REMARK    3  A    between atoms: C_3  and  C_4
REMARK    4  A    between atoms: C_4  and  C_5
REMARK    5  A    between atoms: C_5  and  C_6
REMARK    6  A    between atoms: C_6  and  C_7
REMARK    7  A    between atoms: C_7  and  C_8
REMARK    8  A    between atoms: C_8  and  O_9
REMARK    9  A    between atoms: C_12  and  O_13
REMARK   10  A    between atoms: C_14  and  O_15
REMARK   11  A    between atoms: C_16  and  O_17
REMARK                            x       y       z     vdW  Elec       q    Type
REMARK                         _______ _______ _______ _____ _____    ______ ____
ROOT
ATOM      1  C   UNL     1       5.019   4.127  18.116  0.00  0.00    +0.000 C 
ATOM      2  N   UNL     1       6.486   4.040  18.339  0.00  0.00    +0.000 NA
ATOM      3  C   UNL     1       7.283   4.838  17.404  0.00  0.00    +0.000 C 
ATOM      4  C   UNL     1       6.992   4.547  15.928  0.00  0.00    +0.000 C 
ATOM      5  C   UNL     1       5.490   4.664  15.645  0.00  0.00    +0.000 C 
ATOM      6  C   UNL     1       4.691   3.796  16.626  0.00  0.00    +0.000 C 
ATOM      7  H   UNL     1       6.758   3.051  18.290  0.00  0.00    +0.000 HD
ENDROOT
BRANCH   4   8
ATOM      8  O   UNL     1       7.745   5.432  15.093  0.00  0.00    +0.000 OA
ATOM      9  H   UNL     1       7.253   5.571  14.265  0.00  0.00    +0.000 HD
ENDBRANCH   4   8
BRANCH   5  10
ATOM     10  O   UNL     1       5.179   4.238  14.301  0.00  0.00    +0.000 OA
ATOM     11  H   UNL     1       5.116   5.029  13.741  0.00  0.00    +0.000 HD
ENDBRANCH   5  10
BRANCH   6  12
ATOM     12  O   UNL     1       3.285   3.918  16.383  0.00  0.00    +0.000 OA
ATOM     13  H   UNL     1       3.136   4.805  16.001  0.00  0.00    +0.000 HD
ENDBRANCH   6  12
BRANCH   1  14
ATOM     14  C   UNL     1       4.492   5.541  18.532  0.00  0.00    +0.000 C 
BRANCH  14  15
ATOM     15  C   UNL     1       3.644   5.539  19.815  0.00  0.00    +0.000 C 
BRANCH  15  16
ATOM     16  C   UNL     1       2.154   5.750  19.537  0.00  0.00    +0.000 C 
BRANCH  16  17
ATOM     17  C   UNL     1       1.319   5.122  20.655  0.00  0.00    +0.000 C 
BRANCH  17  19
ATOM     18  C   UNL     1       1.443   2.748  21.464  0.00  0.00    +0.000 C 
ATOM     19  C   UNL     1       0.959   3.669  20.355  0.00  0.00    +0.000 C 
ENDBRANCH  17  19
ENDBRANCH  16  17
ENDBRANCH  15  16
ENDBRANCH  14  15
ENDBRANCH   1  14
BRANCH   1  20
ATOM     20  C   UNL     1       4.316   3.054  19.006  0.00  0.00    +0.000 C 
BRANCH  20  21
ATOM     21  O   UNL     1       5.262   2.330  19.800  0.00  0.00    +0.000 OA
ATOM     22  H   UNL     1       5.046   1.386  19.685  0.00  0.00    +0.000 HD
ENDBRANCH  20  21
ENDBRANCH   1  20
TORSDOF 10
ENDMDL
MODEL 6
REMARK VINA RESULT:      -6.0      2.506      5.794
REMARK  Name = 
REMARK  11 active torsions:
REMARK  status: ('A' for Active; 'I' for Inactive)
REMARK    1  A    between atoms: C_1  and  C_2
REMARK    2  A    between atoms: C_2  and  C_3
REMARK    3  A    between atoms: C_3  and  C_4
REMARK    4  A    between atoms: C_4  and  C_5
REMARK    5  A    between atoms: C_5  and  C_6
REMARK    6  A    between atoms: C_6  and  C_7
REMARK    7  A    between atoms: C_7  and  C_8
REMARK    8  A    between atoms: C_8  and  O_9
REMARK    9  A    between atoms: C_12  and  O_13
REMARK   10  A    between atoms: C_14  and  O_15
REMARK   11  A    between atoms: C_16  and  O_17
REMARK                            x       y       z     vdW  Elec       q    Type
REMARK                         _______ _______ _______ _____ _____    ______ ____
ROOT
ATOM      1  C   UNL     1       3.950   4.018  17.677  0.00  0.00    +0.000 C 
ATOM      2  N   UNL     1       2.949   5.114  17.752  0.00  0.00    +0.000 NA
ATOM      3  C   UNL     1       2.052   5.028  18.908  0.00  0.00    +0.000 C 
ATOM      4  C   UNL     1       1.323   3.687  19.035  0.00  0.00    +0.000 C 
ATOM      5  C   UNL     1       2.325   2.527  19.001  0.00  0.00    +0.000 C 
ATOM      6  C   UNL     1       3.229   2.637  17.766  0.00  0.00    +0.000 C 
ATOM      7  H   UNL     1       2.410   5.114  16.878  0.00  0.00    +0.000 HD
ENDROOT
BRANCH   4   8
ATOM      8  O   UNL     1       0.545   3.661  20.236  0.00  0.00    +0.000 OA
ATOM      9  H   UNL     1       0.849   4.378  20.818  0.00  0.00    +0.000 HD
ENDBRANCH   4   8
BRANCH   5  10
ATOM     10  O   UNL     1       1.647   1.254  18.959  0.00  0.00    +0.000 OA
ATOM     11  H   UNL     1       0.799   1.378  18.501  0.00  0.00    +0.000 HD
ENDBRANCH   5  10
BRANCH   6  12
ATOM     12  O   UNL     1       4.184   1.569  17.738  0.00  0.00    +0.000 OA
ATOM     13  H   UNL     1       3.682   0.734  17.814  0.00  0.00    +0.000 HD
ENDBRANCH   6  12
BRANCH   1  14
ATOM     14  C   UNL     1       5.026   4.191  18.801  0.00  0.00    +0.000 C 
BRANCH  14  15
ATOM     15  C   UNL     1       5.735   5.555  18.782  0.00  0.00    +0.000 C 
BRANCH  15  16
ATOM     16  C   UNL     1       7.096   5.522  19.480  0.00  0.00    +0.000 C 
BRANCH  16  17
ATOM     17  C   UNL     1       8.089   6.417  18.735  0.00  0.00    +0.000 C 
BRANCH  17  19
ATOM     18  C   UNL     1       7.925   8.693  17.687  0.00  0.00    +0.000 C 
ATOM     19  C   UNL     1       7.407   7.264  17.664  0.00  0.00    +0.000 C 
ENDBRANCH  17  19
ENDBRANCH  16  17
ENDBRANCH  15  16
ENDBRANCH  14  15
ENDBRANCH   1  14
BRANCH   1  20
ATOM     20  C   UNL     1       4.665   4.092  16.290  0.00  0.00    +0.000 C 
BRANCH  20  21
ATOM     21  O   UNL     1       5.848   3.287  16.265  0.00  0.00    +0.000 OA
ATOM     22  H   UNL     1       5.669   2.563  15.638  0.00  0.00    +0.000 HD
ENDBRANCH  20  21
ENDBRANCH   1  20
TORSDOF 10
ENDMDL
MODEL 7
REMARK VINA RESULT:      -6.0      2.772      5.653
REMARK  Name = 
REMARK  11 active torsions:
REMARK  status: ('A' for Active; 'I' for Inactive)
REMARK    1  A    between atoms: C_1  and  C_2
REMARK    2  A    between atoms: C_2  and  C_3
REMARK    3  A    between atoms: C_3  and  C_4
REMARK    4  A    between atoms: C_4  and  C_5
REMARK    5  A    between atoms: C_5  and  C_6
REMARK    6  A    between atoms: C_6  and  C_7
REMARK    7  A    between atoms: C_7  and  C_8
REMARK    8  A    between atoms: C_8  and  O_9
REMARK    9  A    between atoms: C_12  and  O_13
REMARK   10  A    between atoms: C_14  and  O_15
REMARK   11  A    between atoms: C_16  and  O_17
REMARK                            x       y       z     vdW  Elec       q    Type
REMARK                         _______ _______ _______ _____ _____    ______ ____
ROOT
ATOM      1  C   UNL     1       5.809   4.548  17.641  0.00  0.00    +0.000 C 
ATOM      2  N   UNL     1       5.656   3.616  18.789  0.00  0.00    +0.000 NA
ATOM      3  C   UNL     1       4.267   3.398  19.202  0.00  0.00    +0.000 C 
ATOM      4  C   UNL     1       3.495   4.686  19.508  0.00  0.00    +0.000 C 
ATOM      5  C   UNL     1       3.596   5.663  18.332  0.00  0.00    +0.000 C 
ATOM      6  C   UNL     1       5.064   5.886  17.944  0.00  0.00    +0.000 C 
ATOM      7  H   UNL     1       6.211   3.981  19.572  0.00  0.00    +0.000 HD
ENDROOT
BRANCH   4   8
ATOM      8  O   UNL     1       2.130   4.382  19.811  0.00  0.00    +0.000 OA
ATOM      9  H   UNL     1       1.887   3.558  19.355  0.00  0.00    +0.000 HD
ENDBRANCH   4   8
BRANCH   5  10
ATOM     10  O   UNL     1       3.012   6.940  18.664  0.00  0.00    +0.000 OA
ATOM     11  H   UNL     1       2.128   6.982  18.262  0.00  0.00    +0.000 HD
ENDBRANCH   5  10
BRANCH   6  12
ATOM     12  O   UNL     1       5.165   6.781  16.830  0.00  0.00    +0.000 OA
ATOM     13  H   UNL     1       6.116   6.950  16.685  0.00  0.00    +0.000 HD
ENDBRANCH   6  12
BRANCH   1  14
ATOM     14  C   UNL     1       5.294   3.876  16.326  0.00  0.00    +0.000 C 
BRANCH  14  15
ATOM     15  C   UNL     1       6.237   4.052  15.124  0.00  0.00    +0.000 C 
BRANCH  15  16
ATOM     16  C   UNL     1       5.487   4.122  13.792  0.00  0.00    +0.000 C 
BRANCH  16  17
ATOM     17  C   UNL     1       6.367   3.576  12.665  0.00  0.00    +0.000 C 
BRANCH  17  19
ATOM     18  C   UNL     1       4.228   3.244  11.393  0.00  0.00    +0.000 C 
ATOM     19  C   UNL     1       5.591   2.658  11.724  0.00  0.00    +0.000 C 
ENDBRANCH  17  19
ENDBRANCH  16  17
ENDBRANCH  15  16
ENDBRANCH  14  15
ENDBRANCH   1  14
BRANCH   1  20
ATOM     20  C   UNL     1       7.326   4.879  17.469  0.00  0.00    +0.000 C 
BRANCH  20  21
ATOM     21  O   UNL     1       7.656   6.146  18.047  0.00  0.00    +0.000 OA
ATOM     22  H   UNL     1       7.814   6.751  17.299  0.00  0.00    +0.000 HD
ENDBRANCH  20  21
ENDBRANCH   1  20
TORSDOF 10
ENDMDL
MODEL 8
REMARK VINA RESULT:      -5.9      2.786      5.108
REMARK  Name = 
REMARK  11 active torsions:
REMARK  status: ('A' for Active; 'I' for Inactive)
REMARK    1  A    between atoms: C_1  and  C_2
REMARK    2  A    between atoms: C_2  and  C_3
REMARK    3  A    between atoms: C_3  and  C_4
REMARK    4  A    between atoms: C_4  and  C_5
REMARK    5  A    between atoms: C_5  and  C_6
REMARK    6  A    between atoms: C_6  and  C_7
REMARK    7  A    between atoms: C_7  and  C_8
REMARK    8  A    between atoms: C_8  and  O_9
REMARK    9  A    between atoms: C_12  and  O_13
REMARK   10  A    between atoms: C_14  and  O_15
REMARK   11  A    between atoms: C_16  and  O_17
REMARK                            x       y       z     vdW  Elec       q    Type
REMARK                         _______ _______ _______ _____ _____    ______ ____
ROOT
ATOM      1  C   UNL     1       3.194   5.013  18.595  0.00  0.00    +0.000 C 
ATOM      2  N   UNL     1       4.159   4.496  19.601  0.00  0.00    +0.000 NA
ATOM      3  C   UNL     1       4.701   3.171  19.286  0.00  0.00    +0.000 C 
ATOM      4  C   UNL     1       3.632   2.102  19.034  0.00  0.00    +0.000 C 
ATOM      5  C   UNL     1       2.636   2.581  17.972  0.00  0.00    +0.000 C 
ATOM      6  C   UNL     1       2.071   3.957  18.348  0.00  0.00    +0.000 C 
ATOM      7  H   UNL     1       3.691   4.485  20.515  0.00  0.00    +0.000 HD
ENDROOT
BRANCH   4   8
ATOM      8  O   UNL     1       4.248   0.871  18.645  0.00  0.00    +0.000 OA
ATOM      9  H   UNL     1       3.769   0.513  17.879  0.00  0.00    +0.000 HD
ENDBRANCH   4   8
BRANCH   5  10
ATOM     10  O   UNL     1       1.535   1.657  17.838  0.00  0.00    +0.000 OA
ATOM     11  H   UNL     1       0.823   2.104  17.351  0.00  0.00    +0.000 HD
ENDBRANCH   5  10
BRANCH   6  12
ATOM     12  O   UNL     1       1.157   4.421  17.349  0.00  0.00    +0.000 OA
ATOM     13  H   UNL     1       1.651   5.035  16.771  0.00  0.00    +0.000 HD
ENDBRANCH   6  12
BRANCH   1  14
ATOM     14  C   UNL     1       3.943   5.392  17.274  0.00  0.00    +0.000 C 
BRANCH  14  15
ATOM     15  C   UNL     1       4.524   6.816  17.272  0.00  0.00    +0.000 C 
BRANCH  15  16
ATOM     16  C   UNL     1       6.046   6.831  17.126  0.00  0.00    +0.000 C 
BRANCH  16  17
ATOM     17  C   UNL     1       6.543   5.460  16.662  0.00  0.00    +0.000 C 
BRANCH  17  19
ATOM     18  C   UNL     1       7.761   5.763  18.837  0.00  0.00    +0.000 C 
ATOM     19  C   UNL     1       7.523   4.839  17.653  0.00  0.00    +0.000 C 
ENDBRANCH  17  19
ENDBRANCH  16  17
ENDBRANCH  15  16
ENDBRANCH  14  15
ENDBRANCH   1  14
BRANCH   1  20
ATOM     20  C   UNL     1       2.519   6.299  19.170  0.00  0.00    +0.000 C 
BRANCH  20  21
ATOM     21  O   UNL     1       2.302   6.192  20.580  0.00  0.00    +0.000 OA
ATOM     22  H   UNL     1       3.015   5.621  20.921  0.00  0.00    +0.000 HD
ENDBRANCH  20  21
ENDBRANCH   1  20
TORSDOF 10
ENDMDL
MODEL 9
REMARK VINA RESULT:      -5.9      1.898      2.782
REMARK  Name = 
REMARK  11 active torsions:
REMARK  status: ('A' for Active; 'I' for Inactive)
REMARK    1  A    between atoms: C_1  and  C_2
REMARK    2  A    between atoms: C_2  and  C_3
REMARK    3  A    between atoms: C_3  and  C_4
REMARK    4  A    between atoms: C_4  and  C_5
REMARK    5  A    between atoms: C_5  and  C_6
REMARK    6  A    between atoms: C_6  and  C_7
REMARK    7  A    between atoms: C_7  and  C_8
REMARK    8  A    between atoms: C_8  and  O_9
REMARK    9  A    between atoms: C_12  and  O_13
REMARK   10  A    between atoms: C_14  and  O_15
REMARK   11  A    between atoms: C_16  and  O_17
REMARK                            x       y       z     vdW  Elec       q    Type
REMARK                         _______ _______ _______ _____ _____    ______ ____
ROOT
ATOM      1  C   UNL     1       4.742   4.496  17.809  0.00  0.00    +0.000 C 
ATOM      2  N   UNL     1       5.437   4.296  19.108  0.00  0.00    +0.000 NA
ATOM      3  C   UNL     1       6.362   5.375  19.464  0.00  0.00    +0.000 C 
ATOM      4  C   UNL     1       7.409   5.682  18.388  0.00  0.00    +0.000 C 
ATOM      5  C   UNL     1       6.730   5.932  17.037  0.00  0.00    +0.000 C 
ATOM      6  C   UNL     1       5.789   4.772  16.686  0.00  0.00    +0.000 C 
ATOM      7  H   UNL     1       5.930   3.397  19.070  0.00  0.00    +0.000 HD
ENDROOT
BRANCH   4   8
ATOM      8  O   UNL     1       8.206   6.804  18.781  0.00  0.00    +0.000 OA
ATOM      9  H   UNL     1       8.419   6.717  19.726  0.00  0.00    +0.000 HD
ENDBRANCH   4   8
BRANCH   5  10
ATOM     10  O   UNL     1       7.706   6.065  15.981  0.00  0.00    +0.000 OA
ATOM     11  H   UNL     1       7.666   5.265  15.431  0.00  0.00    +0.000 HD
ENDBRANCH   5  10
BRANCH   6  12
ATOM     12  O   UNL     1       5.134   5.010  15.435  0.00  0.00    +0.000 OA
ATOM     13  H   UNL     1       4.867   4.140  15.082  0.00  0.00    +0.000 HD
ENDBRANCH   6  12
BRANCH   1  14
ATOM     14  C   UNL     1       3.693   5.652  17.929  0.00  0.00    +0.000 C 
BRANCH  14  15
ATOM     15  C   UNL     1       2.313   5.194  18.430  0.00  0.00    +0.000 C 
BRANCH  15  16
ATOM     16  C   UNL     1       2.060   5.572  19.891  0.00  0.00    +0.000 C 
BRANCH  16  17
ATOM     17  C   UNL     1       1.096   4.571  20.532  0.00  0.00    +0.000 C 
BRANCH  17  19
ATOM     18  C   UNL     1       1.827   2.590  21.890  0.00  0.00    +0.000 C 
ATOM     19  C   UNL     1       1.636   3.144  20.487  0.00  0.00    +0.000 C 
ENDBRANCH  17  19
ENDBRANCH  16  17
ENDBRANCH  15  16
ENDBRANCH  14  15
ENDBRANCH   1  14
BRANCH   1  20
ATOM     20  C   UNL     1       3.988   3.178  17.441  0.00  0.00    +0.000 C 
BRANCH  20  21
ATOM     21  O   UNL     1       4.334   2.110  18.329  0.00  0.00    +0.000 OA
ATOM     22  H   UNL     1       3.944   1.303  17.946  0.00  0.00    +0.000 HD
ENDBRANCH  20  21
ENDBRANCH   1  20
TORSDOF 10
ENDMDL
