MODEL 1
REMARK VINA RESULT:      -8.3      0.000      0.000
REMARK  Name = 
REMARK  7 active torsions:
REMARK  status: ('A' for Active; 'I' for Inactive)
REMARK    1  A    between atoms: C_1  and  C_2
REMARK    2  A    between atoms: C_2  and  C_3
REMARK    3  A    between atoms: N_18  and  C_19
REMARK    4  A    between atoms: C_19  and  C_20
REMARK    5  A    between atoms: C_20  and  N_21
REMARK    6  A    between atoms: N_21  and  C_22
REMARK    7  A    between atoms: N_21  and  C_23
REMARK                            x       y       z     vdW  Elec       q    Type
REMARK                         _______ _______ _______ _____ _____    ______ ____
ROOT
ATOM      1  C   UNL     1       1.272   9.428  18.800  0.00  0.00    +0.000 A 
ATOM      2  C   UNL     1       2.024   8.743  17.863  0.00  0.00    +0.000 A 
ATOM      3  C   UNL     1       2.602   7.532  18.385  0.00  0.00    +0.000 A 
ATOM      4  C   UNL     1       2.250   7.361  19.710  0.00  0.00    +0.000 A 
ATOM      5  S   UNL     1       1.385   8.692  20.337  0.00  0.00    +0.000 S 
ATOM      6  N   UNL     1       2.478   6.278  20.501  0.00  0.00    +0.000 N 
ATOM      7  C   UNL     1       2.115   5.012  19.965  0.00  0.00    +0.000 A 
ATOM      8  C   UNL     1       1.225   4.210  20.705  0.00  0.00    +0.000 A 
ATOM      9  C   UNL     1       0.733   3.018  20.175  0.00  0.00    +0.000 A 
ATOM     10  C   UNL     1       1.149   2.612  18.916  0.00  0.00    +0.000 A 
ATOM     11  F   UNL     1       0.677   1.468  18.404  0.00  0.00    +0.000 F 
ATOM     12  C   UNL     1       2.037   3.380  18.175  0.00  0.00    +0.000 A 
ATOM     13  C   UNL     1       2.511   4.599  18.673  0.00  0.00    +0.000 A 
ATOM     14  N   UNL     1       3.410   5.285  17.839  0.00  0.00    +0.000 NA
ATOM     15  C   UNL     1       3.442   6.572  17.675  0.00  0.00    +0.000 C 
ATOM     16  N   UNL     1       4.329   7.159  16.799  0.00  0.00    +0.000 N 
ATOM     17  H   UNL     1       2.176   6.379  21.464  0.00  0.00    +0.000 HD
ATOM     18  H   UNL     1       4.484   8.158  16.899  0.00  0.00    +0.000 HD
ENDROOT
BRANCH   1  20
ATOM     19  C   UNL     1      -0.055  11.214  19.950  0.00  0.00    +0.000 C 
ATOM     20  C   UNL     1       0.418  10.644  18.622  0.00  0.00    +0.000 C 
ENDBRANCH   1  20
BRANCH  16  21
ATOM     21  C   UNL     1       5.560   6.440  16.477  0.00  0.00    +0.000 C 
BRANCH  21  22
ATOM     22  C   UNL     1       6.746   6.928  17.329  0.00  0.00    +0.000 C 
BRANCH  22  23
ATOM     23  N   UNL     1       7.697   5.876  17.763  0.00  0.00    +0.000 NA
ATOM     24  C   UNL     1       7.740   5.749  19.223  0.00  0.00    +0.000 C 
ATOM     25  C   UNL     1       7.288   4.592  17.178  0.00  0.00    +0.000 C 
ENDBRANCH  22  23
ENDBRANCH  21  22
ENDBRANCH  16  21
TORSDOF 4
ENDMDL
MODEL 2
REMARK VINA RESULT:      -8.1      1.095      1.542
REMARK  Name = 
REMARK  7 active torsions:
REMARK  status: ('A' for Active; 'I' for Inactive)
REMARK    1  A    between atoms: C_1  and  C_2
REMARK    2  A    between atoms: C_2  and  C_3
REMARK    3  A    between atoms: N_18  and  C_19
REMARK    4  A    between atoms: C_19  and  C_20
REMARK    5  A    between atoms: C_20  and  N_21
REMARK    6  A    between atoms: N_21  and  C_22
REMARK    7  A    between atoms: N_21  and  C_23
REMARK                            x       y       z     vdW  Elec       q    Type
REMARK                         _______ _______ _______ _____ _____    ______ ____
ROOT
ATOM      1  C   UNL     1       1.126   9.532  18.892  0.00  0.00    +0.000 A 
ATOM      2  C   UNL     1       1.914   8.875  17.966  0.00  0.00    +0.000 A 
ATOM      3  C   UNL     1       2.500   7.667  18.486  0.00  0.00    +0.000 A 
ATOM      4  C   UNL     1       2.118   7.471  19.799  0.00  0.00    +0.000 A 
ATOM      5  S   UNL     1       1.213   8.777  20.421  0.00  0.00    +0.000 S 
ATOM      6  N   UNL     1       2.344   6.381  20.580  0.00  0.00    +0.000 N 
ATOM      7  C   UNL     1       2.019   5.116  20.018  0.00  0.00    +0.000 A 
ATOM      8  C   UNL     1       1.125   4.288  20.723  0.00  0.00    +0.000 A 
ATOM      9  C   UNL     1       0.668   3.095  20.165  0.00  0.00    +0.000 A 
ATOM     10  C   UNL     1       1.124   2.715  18.911  0.00  0.00    +0.000 A 
ATOM     11  F   UNL     1       0.686   1.569  18.372  0.00  0.00    +0.000 F 
ATOM     12  C   UNL     1       2.016   3.509  18.205  0.00  0.00    +0.000 A 
ATOM     13  C   UNL     1       2.455   4.729  18.731  0.00  0.00    +0.000 A 
ATOM     14  N   UNL     1       3.362   5.442  17.930  0.00  0.00    +0.000 NA
ATOM     15  C   UNL     1       3.375   6.732  17.785  0.00  0.00    +0.000 C 
ATOM     16  N   UNL     1       4.274   7.347  16.940  0.00  0.00    +0.000 N 
ATOM     17  H   UNL     1       2.016   6.463  21.537  0.00  0.00    +0.000 HD
ATOM     18  H   UNL     1       4.408   8.347  17.058  0.00  0.00    +0.000 HD
ENDROOT
BRANCH   1  20
ATOM     19  C   UNL     1      -1.215  10.367  18.577  0.00  0.00    +0.000 C 
ATOM     20  C   UNL     1       0.254  10.735  18.709  0.00  0.00    +0.000 C 
ENDBRANCH   1  20
BRANCH  16  21
ATOM     21  C   UNL     1       5.525   6.655  16.640  0.00  0.00    +0.000 C 
BRANCH  21  22
ATOM     22  C   UNL     1       5.438   5.864  15.321  0.00  0.00    +0.000 C 
BRANCH  22  23
ATOM     23  N   UNL     1       5.931   4.466  15.381  0.00  0.00    +0.000 NA
ATOM     24  C   UNL     1       6.362   3.984  14.065  0.00  0.00    +0.000 C 
ATOM     25  C   UNL     1       7.064   4.399  16.314  0.00  0.00    +0.000 C 
ENDBRANCH  22  23
ENDBRANCH  21  22
ENDBRANCH  16  21
TORSDOF 4
ENDMDL
MODEL 3
REMARK VINA RESULT:      -7.8      2.415      4.951
REMARK  Name = 
REMARK  7 active torsions:
REMARK  status: ('A' for Active; 'I' for Inactive)
REMARK    1  A    between atoms: C_1  and  C_2
REMARK    2  A    between atoms: C_2  and  C_3
REMARK    3  A    between atoms: N_18  and  C_19
REMARK    4  A    between atoms: C_19  and  C_20
REMARK    5  A    between atoms: C_20  and  N_21
REMARK    6  A    between atoms: N_21  and  C_22
REMARK    7  A    between atoms: N_21  and  C_23
REMARK                            x       y       z     vdW  Elec       q    Type
REMARK                         _______ _______ _______ _____ _____    ______ ____
ROOT
ATOM      1  C   UNL     1       1.431   8.861  19.611  0.00  0.00    +0.000 A 
ATOM      2  C   UNL     1       1.676   7.669  20.267  0.00  0.00    +0.000 A 
ATOM      3  C   UNL     1       2.485   6.761  19.497  0.00  0.00    +0.000 A 
ATOM      4  C   UNL     1       2.814   7.323  18.279  0.00  0.00    +0.000 A 
ATOM      5  S   UNL     1       2.047   8.824  18.019  0.00  0.00    +0.000 S 
ATOM      6  N   UNL     1       3.677   6.840  17.343  0.00  0.00    +0.000 N 
ATOM      7  C   UNL     1       4.959   6.440  17.806  0.00  0.00    +0.000 A 
ATOM      8  C   UNL     1       6.092   7.026  17.210  0.00  0.00    +0.000 A 
ATOM      9  C   UNL     1       7.370   6.772  17.705  0.00  0.00    +0.000 A 
ATOM     10  C   UNL     1       7.521   5.911  18.782  0.00  0.00    +0.000 A 
ATOM     11  F   UNL     1       8.748   5.665  19.261  0.00  0.00    +0.000 F 
ATOM     12  C   UNL     1       6.420   5.311  19.376  0.00  0.00    +0.000 A 
ATOM     13  C   UNL     1       5.126   5.585  18.919  0.00  0.00    +0.000 A 
ATOM     14  N   UNL     1       4.091   4.914  19.592  0.00  0.00    +0.000 NA
ATOM     15  C   UNL     1       2.935   5.427  19.884  0.00  0.00    +0.000 C 
ATOM     16  N   UNL     1       1.993   4.711  20.589  0.00  0.00    +0.000 N 
ATOM     17  H   UNL     1       3.738   7.390  16.493  0.00  0.00    +0.000 HD
ATOM     18  H   UNL     1       1.039   5.056  20.566  0.00  0.00    +0.000 HD
ENDROOT
BRANCH   1  20
ATOM     19  C   UNL     1      -0.397  10.527  19.214  0.00  0.00    +0.000 C 
ATOM     20  C   UNL     1       0.751  10.096  20.113  0.00  0.00    +0.000 C 
ENDBRANCH   1  20
BRANCH  16  21
ATOM     21  C   UNL     1       2.052   3.252  20.538  0.00  0.00    +0.000 C 
BRANCH  21  22
ATOM     22  C   UNL     1       1.250   2.689  19.350  0.00  0.00    +0.000 C 
BRANCH  22  23
ATOM     23  N   UNL     1       2.058   2.139  18.235  0.00  0.00    +0.000 NA
ATOM     24  C   UNL     1       2.345   3.154  17.218  0.00  0.00    +0.000 C 
ATOM     25  C   UNL     1       3.325   1.623  18.773  0.00  0.00    +0.000 C 
ENDBRANCH  22  23
ENDBRANCH  21  22
ENDBRANCH  16  21
TORSDOF 4
ENDMDL
MODEL 4
REMARK VINA RESULT:      -7.5      3.679      5.107
REMARK  Name = 
REMARK  7 active torsions:
REMARK  status: ('A' for Active; 'I' for Inactive)
REMARK    1  A    between atoms: C_1  and  C_2
REMARK    2  A    between atoms: C_2  and  C_3
REMARK    3  A    between atoms: N_18  and  C_19
REMARK    4  A    between atoms: C_19  and  C_20
REMARK    5  A    between atoms: C_20  and  N_21
REMARK    6  A    between atoms: N_21  and  C_22
REMARK    7  A    between atoms: N_21  and  C_23
REMARK                            x       y       z     vdW  Elec       q    Type
REMARK                         _______ _______ _______ _____ _____    ______ ____
ROOT
ATOM      1  C   UNL     1       7.661   6.984  18.127  0.00  0.00    +0.000 A 
ATOM      2  C   UNL     1       6.853   6.717  17.038  0.00  0.00    +0.000 A 
ATOM      3  C   UNL     1       6.162   5.459  17.147  0.00  0.00    +0.000 A 
ATOM      4  C   UNL     1       6.488   4.830  18.332  0.00  0.00    +0.000 A 
ATOM      5  S   UNL     1       7.700   5.659  19.204  0.00  0.00    +0.000 S 
ATOM      6  N   UNL     1       5.936   3.704  18.860  0.00  0.00    +0.000 N 
ATOM      7  C   UNL     1       4.516   3.659  18.917  0.00  0.00    +0.000 A 
ATOM      8  C   UNL     1       3.911   3.430  20.168  0.00  0.00    +0.000 A 
ATOM      9  C   UNL     1       2.526   3.501  20.312  0.00  0.00    +0.000 A 
ATOM     10  C   UNL     1       1.742   3.777  19.202  0.00  0.00    +0.000 A 
ATOM     11  F   UNL     1       0.411   3.847  19.338  0.00  0.00    +0.000 F 
ATOM     12  C   UNL     1       2.316   3.992  17.958  0.00  0.00    +0.000 A 
ATOM     13  C   UNL     1       3.706   3.964  17.800  0.00  0.00    +0.000 A 
ATOM     14  N   UNL     1       4.172   4.188  16.494  0.00  0.00    +0.000 NA
ATOM     15  C   UNL     1       5.232   4.871  16.187  0.00  0.00    +0.000 C 
ATOM     16  N   UNL     1       5.591   5.081  14.873  0.00  0.00    +0.000 N 
ATOM     17  H   UNL     1       6.358   3.384  19.725  0.00  0.00    +0.000 HD
ATOM     18  H   UNL     1       6.542   5.393  14.699  0.00  0.00    +0.000 HD
ENDROOT
BRANCH   1  20
ATOM     19  C   UNL     1       7.975   9.420  17.633  0.00  0.00    +0.000 C 
ATOM     20  C   UNL     1       8.434   8.224  18.452  0.00  0.00    +0.000 C 
ENDBRANCH   1  20
BRANCH  16  21
ATOM     21  C   UNL     1       5.133   4.123  13.869  0.00  0.00    +0.000 C 
BRANCH  21  22
ATOM     22  C   UNL     1       6.272   3.696  12.925  0.00  0.00    +0.000 C 
BRANCH  22  23
ATOM     23  N   UNL     1       5.844   3.123  11.626  0.00  0.00    +0.000 NA
ATOM     24  C   UNL     1       6.277   1.730  11.477  0.00  0.00    +0.000 C 
ATOM     25  C   UNL     1       4.378   3.184  11.536  0.00  0.00    +0.000 C 
ENDBRANCH  22  23
ENDBRANCH  21  22
ENDBRANCH  16  21
TORSDOF 4
ENDMDL
MODEL 5
REMARK VINA RESULT:      -7.5      3.843      5.317
REMARK  Name = 
REMARK  7 active torsions:
REMARK  status: ('A' for Active; 'I' for Inactive)
REMARK    1  A    between atoms: C_1  and  C_2
REMARK    2  A    between atoms: C_2  and  C_3
REMARK    3  A    between atoms: N_18  and  C_19
REMARK    4  A    between atoms: C_19  and  C_20
REMARK    5  A    between atoms: C_20  and  N_21
REMARK    6  A    between atoms: N_21  and  C_22
REMARK    7  A    between atoms: N_21  and  C_23
REMARK                            x       y       z     vdW  Elec       q    Type
REMARK                         _______ _______ _______ _____ _____    ______ ____
ROOT
ATOM      1  C   UNL     1       7.801   7.026  18.114  0.00  0.00    +0.000 A 
ATOM      2  C   UNL     1       7.235   6.639  16.913  0.00  0.00    +0.000 A 
ATOM      3  C   UNL     1       6.583   5.357  16.988  0.00  0.00    +0.000 A 
ATOM      4  C   UNL     1       6.692   4.834  18.262  0.00  0.00    +0.000 A 
ATOM      5  S   UNL     1       7.676   5.785  19.281  0.00  0.00    +0.000 S 
ATOM      6  N   UNL     1       6.088   3.722  18.761  0.00  0.00    +0.000 N 
ATOM      7  C   UNL     1       4.688   3.607  18.546  0.00  0.00    +0.000 A 
ATOM      8  C   UNL     1       3.857   3.437  19.670  0.00  0.00    +0.000 A 
ATOM      9  C   UNL     1       2.469   3.447  19.537  0.00  0.00    +0.000 A 
ATOM     10  C   UNL     1       1.909   3.600  18.277  0.00  0.00    +0.000 A 
ATOM     11  F   UNL     1       0.576   3.610  18.146  0.00  0.00    +0.000 F 
ATOM     12  C   UNL     1       2.709   3.754  17.154  0.00  0.00    +0.000 A 
ATOM     13  C   UNL     1       4.103   3.788  17.272  0.00  0.00    +0.000 A 
ATOM     14  N   UNL     1       4.810   3.940  16.067  0.00  0.00    +0.000 NA
ATOM     15  C   UNL     1       5.884   4.654  15.917  0.00  0.00    +0.000 C 
ATOM     16  N   UNL     1       6.487   4.787  14.685  0.00  0.00    +0.000 N 
ATOM     17  H   UNL     1       6.343   3.487  19.715  0.00  0.00    +0.000 HD
ATOM     18  H   UNL     1       7.441   5.134  14.674  0.00  0.00    +0.000 HD
ENDROOT
BRANCH   1  20
ATOM     19  C   UNL     1       7.955   9.477  17.620  0.00  0.00    +0.000 C 
ATOM     20  C   UNL     1       8.448   8.324  18.480  0.00  0.00    +0.000 C 
ENDBRANCH   1  20
BRANCH  16  21
ATOM     21  C   UNL     1       6.271   3.736  13.693  0.00  0.00    +0.000 C 
BRANCH  21  22
ATOM     22  C   UNL     1       5.185   4.128  12.673  0.00  0.00    +0.000 C 
BRANCH  22  23
ATOM     23  N   UNL     1       4.589   3.005  11.910  0.00  0.00    +0.000 NA
ATOM     24  C   UNL     1       3.869   3.474  10.723  0.00  0.00    +0.000 C 
ATOM     25  C   UNL     1       5.661   2.089  11.493  0.00  0.00    +0.000 C 
ENDBRANCH  22  23
ENDBRANCH  21  22
ENDBRANCH  16  21
TORSDOF 4
ENDMDL
MODEL 6
REMARK VINA RESULT:      -7.1      2.620      6.023
REMARK  Name = 
REMARK  7 active torsions:
REMARK  status: ('A' for Active; 'I' for Inactive)
REMARK    1  A    between atoms: C_1  and  C_2
REMARK    2  A    between atoms: C_2  and  C_3
REMARK    3  A    between atoms: N_18  and  C_19
REMARK    4  A    between atoms: C_19  and  C_20
REMARK    5  A    between atoms: C_20  and  N_21
REMARK    6  A    between atoms: N_21  and  C_22
REMARK    7  A    between atoms: N_21  and  C_23
REMARK                            x       y       z     vdW  Elec       q    Type
REMARK                         _______ _______ _______ _____ _____    ______ ____
ROOT
ATOM      1  C   UNL     1       2.024   3.949  20.010  0.00  0.00    +0.000 A 
ATOM      2  C   UNL     1       1.792   5.025  19.175  0.00  0.00    +0.000 A 
ATOM      3  C   UNL     1       3.003   5.691  18.768  0.00  0.00    +0.000 A 
ATOM      4  C   UNL     1       4.104   5.072  19.327  0.00  0.00    +0.000 A 
ATOM      5  S   UNL     1       3.678   3.833  20.420  0.00  0.00    +0.000 S 
ATOM      6  N   UNL     1       5.418   5.314  19.068  0.00  0.00    +0.000 N 
ATOM      7  C   UNL     1       5.801   5.352  17.699  0.00  0.00    +0.000 A 
ATOM      8  C   UNL     1       6.829   4.489  17.275  0.00  0.00    +0.000 A 
ATOM      9  C   UNL     1       7.161   4.387  15.924  0.00  0.00    +0.000 A 
ATOM     10  C   UNL     1       6.483   5.167  14.999  0.00  0.00    +0.000 A 
ATOM     11  F   UNL     1       6.800   5.071  13.701  0.00  0.00    +0.000 F 
ATOM     12  C   UNL     1       5.476   6.035  15.397  0.00  0.00    +0.000 A 
ATOM     13  C   UNL     1       5.101   6.121  16.742  0.00  0.00    +0.000 A 
ATOM     14  N   UNL     1       4.076   7.039  17.027  0.00  0.00    +0.000 NA
ATOM     15  C   UNL     1       3.126   6.851  17.891  0.00  0.00    +0.000 C 
ATOM     16  N   UNL     1       2.131   7.788  18.074  0.00  0.00    +0.000 N 
ATOM     17  H   UNL     1       6.071   4.775  19.626  0.00  0.00    +0.000 HD
ATOM     18  H   UNL     1       1.575   7.710  18.921  0.00  0.00    +0.000 HD
ENDROOT
BRANCH   1  20
ATOM     19  C   UNL     1       1.407   2.492  21.952  0.00  0.00    +0.000 C 
ATOM     20  C   UNL     1       1.058   2.937  20.541  0.00  0.00    +0.000 C 
ENDBRANCH   1  20
BRANCH  16  21
ATOM     21  C   UNL     1       2.418   9.178  17.728  0.00  0.00    +0.000 C 
BRANCH  21  22
ATOM     22  C   UNL     1       1.626  10.161  18.609  0.00  0.00    +0.000 C 
BRANCH  22  23
ATOM     23  N   UNL     1       0.542   9.559  19.424  0.00  0.00    +0.000 NA
ATOM     24  C   UNL     1       0.769   9.752  20.859  0.00  0.00    +0.000 C 
ATOM     25  C   UNL     1      -0.736  10.180  19.050  0.00  0.00    +0.000 C 
ENDBRANCH  22  23
ENDBRANCH  21  22
ENDBRANCH  16  21
TORSDOF 4
ENDMDL
MODEL 7
REMARK VINA RESULT:      -7.0      2.253      5.389
REMARK  Name = 
REMARK  7 active torsions:
REMARK  status: ('A' for Active; 'I' for Inactive)
REMARK    1  A    between atoms: C_1  and  C_2
REMARK    2  A    between atoms: C_2  and  C_3
REMARK    3  A    between atoms: N_18  and  C_19
REMARK    4  A    between atoms: C_19  and  C_20
REMARK    5  A    between atoms: C_20  and  N_21
REMARK    6  A    between atoms: N_21  and  C_22
REMARK    7  A    between atoms: N_21  and  C_23
REMARK                            x       y       z     vdW  Elec       q    Type
REMARK                         _______ _______ _______ _____ _____    ______ ____
ROOT
ATOM      1  C   UNL     1       6.225   6.451  17.294  0.00  0.00    +0.000 A 
ATOM      2  C   UNL     1       5.191   7.178  17.854  0.00  0.00    +0.000 A 
ATOM      3  C   UNL     1       3.931   6.483  17.810  0.00  0.00    +0.000 A 
ATOM      4  C   UNL     1       4.081   5.248  17.210  0.00  0.00    +0.000 A 
ATOM      5  S   UNL     1       5.651   5.006  16.588  0.00  0.00    +0.000 S 
ATOM      6  N   UNL     1       3.161   4.250  17.115  0.00  0.00    +0.000 N 
ATOM      7  C   UNL     1       2.493   3.882  18.315  0.00  0.00    +0.000 A 
ATOM      8  C   UNL     1       2.553   2.535  18.720  0.00  0.00    +0.000 A 
ATOM      9  C   UNL     1       2.029   2.138  19.950  0.00  0.00    +0.000 A 
ATOM     10  C   UNL     1       1.422   3.082  20.765  0.00  0.00    +0.000 A 
ATOM     11  F   UNL     1       0.918   2.703  21.947  0.00  0.00    +0.000 F 
ATOM     12  C   UNL     1       1.339   4.412  20.379  0.00  0.00    +0.000 A 
ATOM     13  C   UNL     1       1.895   4.837  19.167  0.00  0.00    +0.000 A 
ATOM     14  N   UNL     1       1.744   6.204  18.879  0.00  0.00    +0.000 NA
ATOM     15  C   UNL     1       2.642   6.951  18.312  0.00  0.00    +0.000 C 
ATOM     16  N   UNL     1       2.427   8.297  18.109  0.00  0.00    +0.000 N 
ATOM     17  H   UNL     1       3.464   3.437  16.589  0.00  0.00    +0.000 HD
ATOM     18  H   UNL     1       3.039   8.767  17.448  0.00  0.00    +0.000 HD
ENDROOT
BRANCH   1  20
ATOM     19  C   UNL     1       7.991   8.170  17.744  0.00  0.00    +0.000 C 
ATOM     20  C   UNL     1       7.689   6.761  17.258  0.00  0.00    +0.000 C 
ENDBRANCH   1  20
BRANCH  16  21
ATOM     21  C   UNL     1       1.049   8.771  18.017  0.00  0.00    +0.000 C 
BRANCH  21  22
ATOM     22  C   UNL     1       0.807  10.002  18.912  0.00  0.00    +0.000 C 
BRANCH  22  23
ATOM     23  N   UNL     1      -0.139   9.800  20.035  0.00  0.00    +0.000 NA
ATOM     24  C   UNL     1       0.441   8.967  21.093  0.00  0.00    +0.000 C 
ATOM     25  C   UNL     1      -0.501  11.109  20.596  0.00  0.00    +0.000 C 
ENDBRANCH  22  23
ENDBRANCH  21  22
ENDBRANCH  16  21
TORSDOF 4
ENDMDL
MODEL 8
REMARK VINA RESULT:      -6.9      1.332      1.756
REMARK  Name = 
REMARK  7 active torsions:
REMARK  status: ('A' for Active; 'I' for Inactive)
REMARK    1  A    between atoms: C_1  and  C_2
REMARK    2  A    between atoms: C_2  and  C_3
REMARK    3  A    between atoms: N_18  and  C_19
REMARK    4  A    between atoms: C_19  and  C_20
REMARK    5  A    between atoms: C_20  and  N_21
REMARK    6  A    between atoms: N_21  and  C_22
REMARK    7  A    between atoms: N_21  and  C_23
REMARK                            x       y       z     vdW  Elec       q    Type
REMARK                         _______ _______ _______ _____ _____    ______ ____
ROOT
ATOM      1  C   UNL     1       1.840   8.948  18.304  0.00  0.00    +0.000 A 
ATOM      2  C   UNL     1       2.812   8.182  17.690  0.00  0.00    +0.000 A 
ATOM      3  C   UNL     1       3.230   7.060  18.490  0.00  0.00    +0.000 A 
ATOM      4  C   UNL     1       2.540   7.037  19.686  0.00  0.00    +0.000 A 
ATOM      5  S   UNL     1       1.541   8.404  19.895  0.00  0.00    +0.000 S 
ATOM      6  N   UNL     1       2.549   6.062  20.636  0.00  0.00    +0.000 N 
ATOM      7  C   UNL     1       2.340   4.731  20.183  0.00  0.00    +0.000 A 
ATOM      8  C   UNL     1       1.286   3.994  20.755  0.00  0.00    +0.000 A 
ATOM      9  C   UNL     1       0.950   2.733  20.265  0.00  0.00    +0.000 A 
ATOM     10  C   UNL     1       1.685   2.195  19.220  0.00  0.00    +0.000 A 
ATOM     11  F   UNL     1       1.364   0.983  18.746  0.00  0.00    +0.000 F 
ATOM     12  C   UNL     1       2.737   2.896  18.650  0.00  0.00    +0.000 A 
ATOM     13  C   UNL     1       3.063   4.180  19.101  0.00  0.00    +0.000 A 
ATOM     14  N   UNL     1       4.152   4.790  18.456  0.00  0.00    +0.000 NA
ATOM     15  C   UNL     1       4.227   6.050  18.149  0.00  0.00    +0.000 C 
ATOM     16  N   UNL     1       5.316   6.556  17.472  0.00  0.00    +0.000 N 
ATOM     17  H   UNL     1       2.003   6.267  21.466  0.00  0.00    +0.000 HD
ATOM     18  H   UNL     1       5.439   7.564  17.486  0.00  0.00    +0.000 HD
ENDROOT
BRANCH   1  20
ATOM     19  C   UNL     1      -0.364  10.140  18.283  0.00  0.00    +0.000 C 
ATOM     20  C   UNL     1       1.064  10.107  17.760  0.00  0.00    +0.000 C 
ENDBRANCH   1  20
BRANCH  16  21
ATOM     21  C   UNL     1       6.587   5.844  17.575  0.00  0.00    +0.000 C 
BRANCH  21  22
ATOM     22  C   UNL     1       6.779   4.848  16.416  0.00  0.00    +0.000 C 
BRANCH  22  23
ATOM     23  N   UNL     1       6.321   5.318  15.086  0.00  0.00    +0.000 NA
ATOM     24  C   UNL     1       7.359   5.158  14.064  0.00  0.00    +0.000 C 
ATOM     25  C   UNL     1       5.133   4.549  14.691  0.00  0.00    +0.000 C 
ENDBRANCH  22  23
ENDBRANCH  21  22
ENDBRANCH  16  21
TORSDOF 4
ENDMDL
MODEL 9
REMARK VINA RESULT:      -6.8      0.931      1.172
REMARK  Name = 
REMARK  7 active torsions:
REMARK  status: ('A' for Active; 'I' for Inactive)
REMARK    1  A    between atoms: C_1  and  C_2
REMARK    2  A    between atoms: C_2  and  C_3
REMARK    3  A    between atoms: N_18  and  C_19
REMARK    4  A    between atoms: C_19  and  C_20
REMARK    5  A    between atoms: C_20  and  N_21
REMARK    6  A    between atoms: N_21  and  C_22
REMARK    7  A    between atoms: N_21  and  C_23
REMARK                            x       y       z     vdW  Elec       q    Type
REMARK                         _______ _______ _______ _____ _____    ______ ____
ROOT
ATOM      1  C   UNL     1       1.035   9.386  19.707  0.00  0.00    +0.000 A 
ATOM      2  C   UNL     1       1.648   8.843  18.594  0.00  0.00    +0.000 A 
ATOM      3  C   UNL     1       2.272   7.573  18.860  0.00  0.00    +0.000 A 
ATOM      4  C   UNL     1       2.093   7.216  20.183  0.00  0.00    +0.000 A 
ATOM      5  S   UNL     1       1.336   8.441  21.098  0.00  0.00    +0.000 S 
ATOM      6  N   UNL     1       2.405   6.032  20.777  0.00  0.00    +0.000 N 
ATOM      7  C   UNL     1       1.958   4.853  20.121  0.00  0.00    +0.000 A 
ATOM      8  C   UNL     1       1.160   3.951  20.850  0.00  0.00    +0.000 A 
ATOM      9  C   UNL     1       0.586   2.844  20.227  0.00  0.00    +0.000 A 
ATOM     10  C   UNL     1       0.829   2.622  18.880  0.00  0.00    +0.000 A 
ATOM     11  F   UNL     1       0.278   1.559  18.279  0.00  0.00    +0.000 F 
ATOM     12  C   UNL     1       1.624   3.490  18.145  0.00  0.00    +0.000 A 
ATOM     13  C   UNL     1       2.176   4.628  18.743  0.00  0.00    +0.000 A 
ATOM     14  N   UNL     1       2.969   5.428  17.903  0.00  0.00    +0.000 NA
ATOM     15  C   UNL     1       2.998   6.726  17.919  0.00  0.00    +0.000 C 
ATOM     16  N   UNL     1       3.773   7.434  17.026  0.00  0.00    +0.000 N 
ATOM     17  H   UNL     1       2.233   5.995  21.776  0.00  0.00    +0.000 HD
ATOM     18  H   UNL     1       3.953   8.409  17.244  0.00  0.00    +0.000 HD
ENDROOT
BRANCH   1  20
ATOM     19  C   UNL     1       0.668  11.732  18.910  0.00  0.00    +0.000 C 
ATOM     20  C   UNL     1       0.182  10.611  19.815  0.00  0.00    +0.000 C 
ENDBRANCH   1  20
BRANCH  16  21
ATOM     21  C   UNL     1       4.940   6.774  16.447  0.00  0.00    +0.000 C 
BRANCH  21  22
ATOM     22  C   UNL     1       5.781   6.057  17.520  0.00  0.00    +0.000 C 
BRANCH  22  23
ATOM     23  N   UNL     1       6.346   4.746  17.119  0.00  0.00    +0.000 NA
ATOM     24  C   UNL     1       5.325   3.865  16.544  0.00  0.00    +0.000 C 
ATOM     25  C   UNL     1       7.408   4.967  16.127  0.00  0.00    +0.000 C 
ENDBRANCH  22  23
ENDBRANCH  21  22
ENDBRANCH  16  21
TORSDOF 4
ENDMDL
