MODEL 1
REMARK VINA RESULT:      -7.8      0.000      0.000
REMARK  Name = 
REMARK  7 active torsions:
REMARK  status: ('A' for Active; 'I' for Inactive)
REMARK    1  A    between atoms: C_1  and  C_2
REMARK    2  A    between atoms: C_2  and  C_3
REMARK    3  A    between atoms: C_3  and  C_4
REMARK    4  A    between atoms: C_4  and  C_5
REMARK    5  A    between atoms: C_5  and  C_6
REMARK    6  A    between atoms: C_6  and  S_7
REMARK    7  A    between atoms: S_7  and  C_8
REMARK                            x       y       z     vdW  Elec       q    Type
REMARK                         _______ _______ _______ _____ _____    ______ ____
ROOT
ATOM      1  C   UNL     1       5.903   4.277  16.539  0.00  0.00    +0.000 A 
ATOM      2  N   UNL     1       6.413   4.513  17.778  0.00  0.00    +0.000 NA
ATOM      3  N   UNL     1       5.668   4.341  18.878  0.00  0.00    +0.000 NA
ATOM      4  C   UNL     1       4.389   3.933  18.677  0.00  0.00    +0.000 A 
ATOM      5  C   UNL     1       3.940   3.698  17.390  0.00  0.00    +0.000 A 
ATOM      6  N   UNL     1       4.651   3.850  16.261  0.00  0.00    +0.000 NA
ATOM      7  N   UNL     1       2.638   3.292  17.469  0.00  0.00    +0.000 N 
ATOM      8  C   UNL     1       2.224   3.273  18.785  0.00  0.00    +0.000 A 
ATOM      9  C   UNL     1       0.983   2.934  19.336  0.00  0.00    +0.000 A 
ATOM     10  C   UNL     1       0.846   3.017  20.725  0.00  0.00    +0.000 A 
ATOM     11  C   UNL     1       1.909   3.423  21.530  0.00  0.00    +0.000 A 
ATOM     12  C   UNL     1       3.146   3.756  20.966  0.00  0.00    +0.000 A 
ATOM     13  C   UNL     1       3.312   3.679  19.569  0.00  0.00    +0.000 A 
ATOM     14  H   UNL     1       2.069   3.058  16.670  0.00  0.00    +0.000 HD
ENDROOT
BRANCH   1  15
ATOM     15  S   UNL     1       6.914   4.678  15.130  0.00  0.00    +0.000 S 
BRANCH  15  16
ATOM     16  C   UNL     1       5.761   4.270  13.778  0.00  0.00    +0.000 C 
BRANCH  16  17
ATOM     17  C   UNL     1       6.551   3.641  12.627  0.00  0.00    +0.000 C 
BRANCH  17  18
ATOM     18  C   UNL     1       5.643   2.896  11.642  0.00  0.00    +0.000 C 
BRANCH  18  19
ATOM     19  C   UNL     1       4.176   3.299  11.830  0.00  0.00    +0.000 C 
BRANCH  19  21
ATOM     20  C   UNL     1       3.043   4.134   9.733  0.00  0.00    +0.000 C 
ATOM     21  C   UNL     1       3.326   2.925  10.614  0.00  0.00    +0.000 C 
ENDBRANCH  19  21
ENDBRANCH  18  19
ENDBRANCH  17  18
ENDBRANCH  16  17
ENDBRANCH  15  16
ENDBRANCH   1  15
TORSDOF 6
ENDMDL
MODEL 2
REMARK VINA RESULT:      -7.1      0.837      1.202
REMARK  Name = 
REMARK  7 active torsions:
REMARK  status: ('A' for Active; 'I' for Inactive)
REMARK    1  A    between atoms: C_1  and  C_2
REMARK    2  A    between atoms: C_2  and  C_3
REMARK    3  A    between atoms: C_3  and  C_4
REMARK    4  A    between atoms: C_4  and  C_5
REMARK    5  A    between atoms: C_5  and  C_6
REMARK    6  A    between atoms: C_6  and  S_7
REMARK    7  A    between atoms: S_7  and  C_8
REMARK                            x       y       z     vdW  Elec       q    Type
REMARK                         _______ _______ _______ _____ _____    ______ ____
ROOT
ATOM      1  C   UNL     1       6.074   4.500  17.078  0.00  0.00    +0.000 A 
ATOM      2  N   UNL     1       6.496   4.378  18.366  0.00  0.00    +0.000 NA
ATOM      3  N   UNL     1       5.649   4.021  19.341  0.00  0.00    +0.000 NA
ATOM      4  C   UNL     1       4.363   3.803  18.966  0.00  0.00    +0.000 A 
ATOM      5  C   UNL     1       4.006   3.931  17.637  0.00  0.00    +0.000 A 
ATOM      6  N   UNL     1       4.820   4.279  16.626  0.00  0.00    +0.000 NA
ATOM      7  N   UNL     1       2.673   3.650  17.532  0.00  0.00    +0.000 N 
ATOM      8  C   UNL     1       2.149   3.356  18.773  0.00  0.00    +0.000 A 
ATOM      9  C   UNL     1       0.843   3.020  19.145  0.00  0.00    +0.000 A 
ATOM     10  C   UNL     1       0.596   2.779  20.500  0.00  0.00    +0.000 A 
ATOM     11  C   UNL     1       1.617   2.871  21.445  0.00  0.00    +0.000 A 
ATOM     12  C   UNL     1       2.919   3.205  21.059  0.00  0.00    +0.000 A 
ATOM     13  C   UNL     1       3.197   3.450  19.699  0.00  0.00    +0.000 A 
ATOM     14  H   UNL     1       2.157   3.674  16.666  0.00  0.00    +0.000 HD
ENDROOT
BRANCH   1  15
ATOM     15  S   UNL     1       7.230   5.125  15.878  0.00  0.00    +0.000 S 
BRANCH  15  16
ATOM     16  C   UNL     1       6.455   4.527  14.340  0.00  0.00    +0.000 C 
BRANCH  16  17
ATOM     17  C   UNL     1       7.437   4.726  13.182  0.00  0.00    +0.000 C 
BRANCH  17  18
ATOM     18  C   UNL     1       6.873   4.213  11.852  0.00  0.00    +0.000 C 
BRANCH  18  19
ATOM     19  C   UNL     1       6.829   2.681  11.823  0.00  0.00    +0.000 C 
BRANCH  19  21
ATOM     20  C   UNL     1       4.400   3.276  11.475  0.00  0.00    +0.000 C 
ATOM     21  C   UNL     1       5.437   2.161  11.460  0.00  0.00    +0.000 C 
ENDBRANCH  19  21
ENDBRANCH  18  19
ENDBRANCH  17  18
ENDBRANCH  16  17
ENDBRANCH  15  16
ENDBRANCH   1  15
TORSDOF 6
ENDMDL
MODEL 3
REMARK VINA RESULT:      -7.1      3.966      6.973
REMARK  Name = 
REMARK  7 active torsions:
REMARK  status: ('A' for Active; 'I' for Inactive)
REMARK    1  A    between atoms: C_1  and  C_2
REMARK    2  A    between atoms: C_2  and  C_3
REMARK    3  A    between atoms: C_3  and  C_4
REMARK    4  A    between atoms: C_4  and  C_5
REMARK    5  A    between atoms: C_5  and  C_6
REMARK    6  A    between atoms: C_6  and  S_7
REMARK    7  A    between atoms: S_7  and  C_8
REMARK                            x       y       z     vdW  Elec       q    Type
REMARK                         _______ _______ _______ _____ _____    ______ ____
ROOT
ATOM      1  C   UNL     1       3.267   3.047  18.139  0.00  0.00    +0.000 A 
ATOM      2  N   UNL     1       2.979   3.963  17.175  0.00  0.00    +0.000 NA
ATOM      3  N   UNL     1       3.794   5.000  16.940  0.00  0.00    +0.000 NA
ATOM      4  C   UNL     1       4.902   5.080  17.720  0.00  0.00    +0.000 A 
ATOM      5  C   UNL     1       5.140   4.106  18.672  0.00  0.00    +0.000 A 
ATOM      6  N   UNL     1       4.358   3.047  18.938  0.00  0.00    +0.000 NA
ATOM      7  N   UNL     1       6.312   4.415  19.303  0.00  0.00    +0.000 N 
ATOM      8  C   UNL     1       6.835   5.583  18.790  0.00  0.00    +0.000 A 
ATOM      9  C   UNL     1       8.002   6.277  19.132  0.00  0.00    +0.000 A 
ATOM     10  C   UNL     1       8.281   7.458  18.438  0.00  0.00    +0.000 A 
ATOM     11  C   UNL     1       7.425   7.928  17.443  0.00  0.00    +0.000 A 
ATOM     12  C   UNL     1       6.263   7.223  17.109  0.00  0.00    +0.000 A 
ATOM     13  C   UNL     1       5.959   6.027  17.790  0.00  0.00    +0.000 A 
ATOM     14  H   UNL     1       6.716   3.866  20.046  0.00  0.00    +0.000 HD
ENDROOT
BRANCH   1  15
ATOM     15  S   UNL     1       2.054   1.791  18.486  0.00  0.00    +0.000 S 
BRANCH  15  16
ATOM     16  C   UNL     1       0.972   2.698  19.639  0.00  0.00    +0.000 C 
BRANCH  16  17
ATOM     17  C   UNL     1       1.637   2.730  21.019  0.00  0.00    +0.000 C 
BRANCH  17  18
ATOM     18  C   UNL     1       2.036   4.151  21.435  0.00  0.00    +0.000 C 
BRANCH  18  19
ATOM     19  C   UNL     1       1.349   5.199  20.552  0.00  0.00    +0.000 C 
BRANCH  19  21
ATOM     20  C   UNL     1       1.877   7.655  20.300  0.00  0.00    +0.000 C 
ATOM     21  C   UNL     1       2.344   6.233  20.022  0.00  0.00    +0.000 C 
ENDBRANCH  19  21
ENDBRANCH  18  19
ENDBRANCH  17  18
ENDBRANCH  16  17
ENDBRANCH  15  16
ENDBRANCH   1  15
TORSDOF 6
ENDMDL
MODEL 4
REMARK VINA RESULT:      -7.0      1.083      1.667
REMARK  Name = 
REMARK  7 active torsions:
REMARK  status: ('A' for Active; 'I' for Inactive)
REMARK    1  A    between atoms: C_1  and  C_2
REMARK    2  A    between atoms: C_2  and  C_3
REMARK    3  A    between atoms: C_3  and  C_4
REMARK    4  A    between atoms: C_4  and  C_5
REMARK    5  A    between atoms: C_5  and  C_6
REMARK    6  A    between atoms: C_6  and  S_7
REMARK    7  A    between atoms: S_7  and  C_8
REMARK                            x       y       z     vdW  Elec       q    Type
REMARK                         _______ _______ _______ _____ _____    ______ ____
ROOT
ATOM      1  C   UNL     1       5.888   4.762  16.895  0.00  0.00    +0.000 A 
ATOM      2  N   UNL     1       4.739   5.447  16.643  0.00  0.00    +0.000 NA
ATOM      3  N   UNL     1       3.655   5.287  17.414  0.00  0.00    +0.000 NA
ATOM      4  C   UNL     1       3.774   4.404  18.439  0.00  0.00    +0.000 A 
ATOM      5  C   UNL     1       4.976   3.753  18.645  0.00  0.00    +0.000 A 
ATOM      6  N   UNL     1       6.089   3.886  17.905  0.00  0.00    +0.000 NA
ATOM      7  N   UNL     1       4.831   2.941  19.733  0.00  0.00    +0.000 N 
ATOM      8  C   UNL     1       3.548   3.038  20.232  0.00  0.00    +0.000 A 
ATOM      9  C   UNL     1       2.951   2.390  21.319  0.00  0.00    +0.000 A 
ATOM     10  C   UNL     1       1.610   2.681  21.591  0.00  0.00    +0.000 A 
ATOM     11  C   UNL     1       0.896   3.584  20.805  0.00  0.00    +0.000 A 
ATOM     12  C   UNL     1       1.507   4.227  19.723  0.00  0.00    +0.000 A 
ATOM     13  C   UNL     1       2.858   3.954  19.428  0.00  0.00    +0.000 A 
ATOM     14  H   UNL     1       5.560   2.348  20.099  0.00  0.00    +0.000 HD
ENDROOT
BRANCH   1  15
ATOM     15  S   UNL     1       7.225   4.921  15.731  0.00  0.00    +0.000 S 
BRANCH  15  16
ATOM     16  C   UNL     1       6.284   5.115  14.182  0.00  0.00    +0.000 C 
BRANCH  16  17
ATOM     17  C   UNL     1       6.676   3.989  13.220  0.00  0.00    +0.000 C 
BRANCH  17  18
ATOM     18  C   UNL     1       5.472   3.133  12.812  0.00  0.00    +0.000 C 
BRANCH  18  19
ATOM     19  C   UNL     1       5.093   3.375  11.346  0.00  0.00    +0.000 C 
BRANCH  19  21
ATOM     20  C   UNL     1       3.163   3.972   9.831  0.00  0.00    +0.000 C 
ATOM     21  C   UNL     1       3.580   3.302  11.133  0.00  0.00    +0.000 C 
ENDBRANCH  19  21
ENDBRANCH  18  19
ENDBRANCH  17  18
ENDBRANCH  16  17
ENDBRANCH  15  16
ENDBRANCH   1  15
TORSDOF 6
ENDMDL
MODEL 5
REMARK VINA RESULT:      -7.0      2.035      7.371
REMARK  Name = 
REMARK  7 active torsions:
REMARK  status: ('A' for Active; 'I' for Inactive)
REMARK    1  A    between atoms: C_1  and  C_2
REMARK    2  A    between atoms: C_2  and  C_3
REMARK    3  A    between atoms: C_3  and  C_4
REMARK    4  A    between atoms: C_4  and  C_5
REMARK    5  A    between atoms: C_5  and  C_6
REMARK    6  A    between atoms: C_6  and  S_7
REMARK    7  A    between atoms: S_7  and  C_8
REMARK                            x       y       z     vdW  Elec       q    Type
REMARK                         _______ _______ _______ _____ _____    ______ ____
ROOT
ATOM      1  C   UNL     1       4.850   4.771  18.080  0.00  0.00    +0.000 A 
ATOM      2  N   UNL     1       4.096   3.857  17.409  0.00  0.00    +0.000 NA
ATOM      3  N   UNL     1       4.364   3.540  16.136  0.00  0.00    +0.000 NA
ATOM      4  C   UNL     1       5.412   4.186  15.566  0.00  0.00    +0.000 A 
ATOM      5  C   UNL     1       6.145   5.093  16.310  0.00  0.00    +0.000 A 
ATOM      6  N   UNL     1       5.918   5.437  17.588  0.00  0.00    +0.000 NA
ATOM      7  N   UNL     1       7.137   5.586  15.511  0.00  0.00    +0.000 N 
ATOM      8  C   UNL     1       7.056   5.028  14.252  0.00  0.00    +0.000 A 
ATOM      9  C   UNL     1       7.850   5.239  13.119  0.00  0.00    +0.000 A 
ATOM     10  C   UNL     1       7.523   4.530  11.958  0.00  0.00    +0.000 A 
ATOM     11  C   UNL     1       6.445   3.648  11.933  0.00  0.00    +0.000 A 
ATOM     12  C   UNL     1       5.662   3.444  13.074  0.00  0.00    +0.000 A 
ATOM     13  C   UNL     1       5.970   4.143  14.259  0.00  0.00    +0.000 A 
ATOM     14  H   UNL     1       7.815   6.270  15.809  0.00  0.00    +0.000 HD
ENDROOT
BRANCH   1  15
ATOM     15  S   UNL     1       4.329   5.243  19.715  0.00  0.00    +0.000 S 
BRANCH  15  16
ATOM     16  C   UNL     1       2.708   5.987  19.336  0.00  0.00    +0.000 C 
BRANCH  16  17
ATOM     17  C   UNL     1       1.696   5.531  20.391  0.00  0.00    +0.000 C 
BRANCH  17  18
ATOM     18  C   UNL     1       2.233   4.378  21.246  0.00  0.00    +0.000 C 
BRANCH  18  19
ATOM     19  C   UNL     1       1.382   3.114  21.068  0.00  0.00    +0.000 C 
BRANCH  19  21
ATOM     20  C   UNL     1       0.739   2.428  18.725  0.00  0.00    +0.000 C 
ATOM     21  C   UNL     1       1.791   2.328  19.821  0.00  0.00    +0.000 C 
ENDBRANCH  19  21
ENDBRANCH  18  19
ENDBRANCH  17  18
ENDBRANCH  16  17
ENDBRANCH  15  16
ENDBRANCH   1  15
TORSDOF 6
ENDMDL
MODEL 6
REMARK VINA RESULT:      -7.0      2.109      2.358
REMARK  Name = 
REMARK  7 active torsions:
REMARK  status: ('A' for Active; 'I' for Inactive)
REMARK    1  A    between atoms: C_1  and  C_2
REMARK    2  A    between atoms: C_2  and  C_3
REMARK    3  A    between atoms: C_3  and  C_4
REMARK    4  A    between atoms: C_4  and  C_5
REMARK    5  A    between atoms: C_5  and  C_6
REMARK    6  A    between atoms: C_6  and  S_7
REMARK    7  A    between atoms: S_7  and  C_8
REMARK                            x       y       z     vdW  Elec       q    Type
REMARK                         _______ _______ _______ _____ _____    ______ ____
ROOT
ATOM      1  C   UNL     1       5.487   5.091  15.727  0.00  0.00    +0.000 A 
ATOM      2  N   UNL     1       5.130   3.928  16.337  0.00  0.00    +0.000 NA
ATOM      3  N   UNL     1       4.295   3.924  17.385  0.00  0.00    +0.000 NA
ATOM      4  C   UNL     1       3.846   5.137  17.797  0.00  0.00    +0.000 A 
ATOM      5  C   UNL     1       4.239   6.278  17.121  0.00  0.00    +0.000 A 
ATOM      6  N   UNL     1       5.066   6.330  16.065  0.00  0.00    +0.000 NA
ATOM      7  N   UNL     1       3.644   7.348  17.726  0.00  0.00    +0.000 N 
ATOM      8  C   UNL     1       2.881   6.928  18.796  0.00  0.00    +0.000 A 
ATOM      9  C   UNL     1       2.108   7.666  19.700  0.00  0.00    +0.000 A 
ATOM     10  C   UNL     1       1.438   6.962  20.705  0.00  0.00    +0.000 A 
ATOM     11  C   UNL     1       1.538   5.576  20.803  0.00  0.00    +0.000 A 
ATOM     12  C   UNL     1       2.312   4.849  19.891  0.00  0.00    +0.000 A 
ATOM     13  C   UNL     1       2.996   5.533  18.865  0.00  0.00    +0.000 A 
ATOM     14  H   UNL     1       3.766   8.305  17.431  0.00  0.00    +0.000 HD
ENDROOT
BRANCH   1  15
ATOM     15  S   UNL     1       6.717   5.015  14.442  0.00  0.00    +0.000 S 
BRANCH  15  16
ATOM     16  C   UNL     1       6.265   3.434  13.655  0.00  0.00    +0.000 C 
BRANCH  16  17
ATOM     17  C   UNL     1       6.559   3.527  12.155  0.00  0.00    +0.000 C 
BRANCH  17  18
ATOM     18  C   UNL     1       5.515   2.781  11.315  0.00  0.00    +0.000 C 
BRANCH  18  19
ATOM     19  C   UNL     1       4.114   3.365  11.529  0.00  0.00    +0.000 C 
BRANCH  19  21
ATOM     20  C   UNL     1       2.894   4.324   9.537  0.00  0.00    +0.000 C 
ATOM     21  C   UNL     1       3.191   3.069  10.346  0.00  0.00    +0.000 C 
ENDBRANCH  19  21
ENDBRANCH  18  19
ENDBRANCH  17  18
ENDBRANCH  16  17
ENDBRANCH  15  16
ENDBRANCH   1  15
TORSDOF 6
ENDMDL
MODEL 7
REMARK VINA RESULT:      -6.9      4.115      6.353
REMARK  Name = 
REMARK  7 active torsions:
REMARK  status: ('A' for Active; 'I' for Inactive)
REMARK    1  A    between atoms: C_1  and  C_2
REMARK    2  A    between atoms: C_2  and  C_3
REMARK    3  A    between atoms: C_3  and  C_4
REMARK    4  A    between atoms: C_4  and  C_5
REMARK    5  A    between atoms: C_5  and  C_6
REMARK    6  A    between atoms: C_6  and  S_7
REMARK    7  A    between atoms: S_7  and  C_8
REMARK                            x       y       z     vdW  Elec       q    Type
REMARK                         _______ _______ _______ _____ _____    ______ ____
ROOT
ATOM      1  C   UNL     1       4.103   5.708  18.391  0.00  0.00    +0.000 A 
ATOM      2  N   UNL     1       3.912   6.654  17.431  0.00  0.00    +0.000 NA
ATOM      3  N   UNL     1       3.089   7.691  17.637  0.00  0.00    +0.000 NA
ATOM      4  C   UNL     1       2.463   7.729  18.840  0.00  0.00    +0.000 A 
ATOM      5  C   UNL     1       2.715   6.742  19.775  0.00  0.00    +0.000 A 
ATOM      6  N   UNL     1       3.534   5.690  19.617  0.00  0.00    +0.000 NA
ATOM      7  N   UNL     1       1.974   7.020  20.888  0.00  0.00    +0.000 N 
ATOM      8  C   UNL     1       1.230   8.165  20.691  0.00  0.00    +0.000 A 
ATOM      9  C   UNL     1       0.331   8.815  21.545  0.00  0.00    +0.000 A 
ATOM     10  C   UNL     1      -0.295   9.971  21.067  0.00  0.00    +0.000 A 
ATOM     11  C   UNL     1      -0.034  10.454  19.787  0.00  0.00    +0.000 A 
ATOM     12  C   UNL     1       0.869   9.796  18.945  0.00  0.00    +0.000 A 
ATOM     13  C   UNL     1       1.517   8.630  19.402  0.00  0.00    +0.000 A 
ATOM     14  H   UNL     1       1.970   6.452  21.722  0.00  0.00    +0.000 HD
ENDROOT
BRANCH   1  15
ATOM     15  S   UNL     1       5.092   4.287  17.975  0.00  0.00    +0.000 S 
BRANCH  15  16
ATOM     16  C   UNL     1       3.837   2.972  18.102  0.00  0.00    +0.000 C 
BRANCH  16  17
ATOM     17  C   UNL     1       2.647   3.336  17.209  0.00  0.00    +0.000 C 
BRANCH  17  18
ATOM     18  C   UNL     1       1.336   3.419  17.998  0.00  0.00    +0.000 C 
BRANCH  18  19
ATOM     19  C   UNL     1       1.382   2.523  19.242  0.00  0.00    +0.000 C 
BRANCH  19  21
ATOM     20  C   UNL     1       1.896   2.890  21.686  0.00  0.00    +0.000 C 
ATOM     21  C   UNL     1       1.019   3.297  20.511  0.00  0.00    +0.000 C 
ENDBRANCH  19  21
ENDBRANCH  18  19
ENDBRANCH  17  18
ENDBRANCH  16  17
ENDBRANCH  15  16
ENDBRANCH   1  15
TORSDOF 6
ENDMDL
MODEL 8
REMARK VINA RESULT:      -6.9      1.512      2.000
REMARK  Name = 
REMARK  7 active torsions:
REMARK  status: ('A' for Active; 'I' for Inactive)
REMARK    1  A    between atoms: C_1  and  C_2
REMARK    2  A    between atoms: C_2  and  C_3
REMARK    3  A    between atoms: C_3  and  C_4
REMARK    4  A    between atoms: C_4  and  C_5
REMARK    5  A    between atoms: C_5  and  C_6
REMARK    6  A    between atoms: C_6  and  S_7
REMARK    7  A    between atoms: S_7  and  C_8
REMARK                            x       y       z     vdW  Elec       q    Type
REMARK                         _______ _______ _______ _____ _____    ______ ____
ROOT
ATOM      1  C   UNL     1       5.564   5.071  16.037  0.00  0.00    +0.000 A 
ATOM      2  N   UNL     1       4.974   6.198  16.522  0.00  0.00    +0.000 NA
ATOM      3  N   UNL     1       4.053   6.133  17.492  0.00  0.00    +0.000 NA
ATOM      4  C   UNL     1       3.745   4.890  17.943  0.00  0.00    +0.000 A 
ATOM      5  C   UNL     1       4.394   3.790  17.415  0.00  0.00    +0.000 A 
ATOM      6  N   UNL     1       5.326   3.806  16.449  0.00  0.00    +0.000 NA
ATOM      7  N   UNL     1       3.911   2.677  18.044  0.00  0.00    +0.000 N 
ATOM      8  C   UNL     1       2.945   3.031  18.963  0.00  0.00    +0.000 A 
ATOM      9  C   UNL     1       2.180   2.233  19.822  0.00  0.00    +0.000 A 
ATOM     10  C   UNL     1       1.256   2.875  20.652  0.00  0.00    +0.000 A 
ATOM     11  C   UNL     1       1.103   4.260  20.623  0.00  0.00    +0.000 A 
ATOM     12  C   UNL     1       1.877   5.047  19.762  0.00  0.00    +0.000 A 
ATOM     13  C   UNL     1       2.818   4.426  18.916  0.00  0.00    +0.000 A 
ATOM     14  H   UNL     1       4.215   1.737  17.843  0.00  0.00    +0.000 HD
ENDROOT
BRANCH   1  15
ATOM     15  S   UNL     1       6.663   5.238  14.646  0.00  0.00    +0.000 S 
BRANCH  15  16
ATOM     16  C   UNL     1       6.558   3.558  13.948  0.00  0.00    +0.000 C 
BRANCH  16  17
ATOM     17  C   UNL     1       6.408   3.662  12.427  0.00  0.00    +0.000 C 
BRANCH  17  18
ATOM     18  C   UNL     1       5.004   3.266  11.956  0.00  0.00    +0.000 C 
BRANCH  18  19
ATOM     19  C   UNL     1       5.055   2.043  11.033  0.00  0.00    +0.000 C 
BRANCH  19  21
ATOM     20  C   UNL     1       6.133  -0.223  11.302  0.00  0.00    +0.000 C 
ATOM     21  C   UNL     1       6.369   1.275  11.182  0.00  0.00    +0.000 C 
ENDBRANCH  19  21
ENDBRANCH  18  19
ENDBRANCH  17  18
ENDBRANCH  16  17
ENDBRANCH  15  16
ENDBRANCH   1  15
TORSDOF 6
ENDMDL
MODEL 9
REMARK VINA RESULT:      -6.9      4.161      6.423
REMARK  Name = 
REMARK  7 active torsions:
REMARK  status: ('A' for Active; 'I' for Inactive)
REMARK    1  A    between atoms: C_1  and  C_2
REMARK    2  A    between atoms: C_2  and  C_3
REMARK    3  A    between atoms: C_3  and  C_4
REMARK    4  A    between atoms: C_4  and  C_5
REMARK    5  A    between atoms: C_5  and  C_6
REMARK    6  A    between atoms: C_6  and  S_7
REMARK    7  A    between atoms: S_7  and  C_8
REMARK                            x       y       z     vdW  Elec       q    Type
REMARK                         _______ _______ _______ _____ _____    ______ ____
ROOT
ATOM      1  C   UNL     1       5.912   5.770  17.134  0.00  0.00    +0.000 A 
ATOM      2  N   UNL     1       5.336   4.874  16.287  0.00  0.00    +0.000 NA
ATOM      3  N   UNL     1       4.247   4.182  16.647  0.00  0.00    +0.000 NA
ATOM      4  C   UNL     1       3.772   4.421  17.896  0.00  0.00    +0.000 A 
ATOM      5  C   UNL     1       4.398   5.356  18.699  0.00  0.00    +0.000 A 
ATOM      6  N   UNL     1       5.485   6.077  18.379  0.00  0.00    +0.000 NA
ATOM      7  N   UNL     1       3.721   5.410  19.885  0.00  0.00    +0.000 N 
ATOM      8  C   UNL     1       2.672   4.515  19.875  0.00  0.00    +0.000 A 
ATOM      9  C   UNL     1       1.724   4.224  20.863  0.00  0.00    +0.000 A 
ATOM     10  C   UNL     1       0.765   3.248  20.574  0.00  0.00    +0.000 A 
ATOM     11  C   UNL     1       0.757   2.589  19.346  0.00  0.00    +0.000 A 
ATOM     12  C   UNL     1       1.708   2.891  18.366  0.00  0.00    +0.000 A 
ATOM     13  C   UNL     1       2.685   3.873  18.629  0.00  0.00    +0.000 A 
ATOM     14  H   UNL     1       3.974   6.012  20.653  0.00  0.00    +0.000 HD
ENDROOT
BRANCH   1  15
ATOM     15  S   UNL     1       7.441   6.530  16.631  0.00  0.00    +0.000 S 
BRANCH  15  16
ATOM     16  C   UNL     1       7.890   7.401  18.168  0.00  0.00    +0.000 C 
BRANCH  16  17
ATOM     17  C   UNL     1       8.024   8.897  17.867  0.00  0.00    +0.000 C 
BRANCH  17  18
ATOM     18  C   UNL     1       8.930   9.610  18.878  0.00  0.00    +0.000 C 
BRANCH  18  19
ATOM     19  C   UNL     1       9.445  10.940  18.317  0.00  0.00    +0.000 C 
BRANCH  19  21
ATOM     20  C   UNL     1      10.477  11.791  20.458  0.00  0.00    +0.000 C 
ATOM     21  C   UNL     1      10.732  11.388  19.013  0.00  0.00    +0.000 C 
ENDBRANCH  19  21
ENDBRANCH  18  19
ENDBRANCH  17  18
ENDBRANCH  16  17
ENDBRANCH  15  16
ENDBRANCH   1  15
TORSDOF 6
ENDMDL
