MODEL 1
REMARK VINA RESULT:      -8.3      0.000      0.000
REMARK  Name = 
REMARK  6 active torsions:
REMARK  status: ('A' for Active; 'I' for Inactive)
REMARK    1  A    between atoms: C_1  and  C_2
REMARK    2  A    between atoms: C_6  and  C_7
REMARK    3  A    between atoms: C_7  and  N_8
REMARK    4  A    between atoms: C_9  and  N_10
REMARK    5  A    between atoms: C_15  and  C_16
REMARK    6  A    between atoms: C_18  and  C_19
REMARK                            x       y       z     vdW  Elec       q    Type
REMARK                         _______ _______ _______ _____ _____    ______ ____
ROOT
ATOM      1  C   UNL     1       2.778   2.596  21.496  0.00  0.00    +0.000 C 
ATOM      2  C   UNL     1       2.188   3.457  20.409  0.00  0.00    +0.000 C 
ATOM      3  O   UNL     1       0.976   3.659  20.327  0.00  0.00    +0.000 OA
ATOM      4  N   UNL     1       3.100   4.006  19.539  0.00  0.00    +0.000 N 
ATOM      5  N   UNL     1       4.421   3.671  19.517  0.00  0.00    +0.000 NA
ATOM      6  C   UNL     1       4.862   4.246  18.443  0.00  0.00    +0.000 C 
ATOM      7  O   UNL     1       3.979   4.949  17.694  0.00  0.00    +0.000 OA
ATOM      8  C   UNL     1       2.754   4.868  18.430  0.00  0.00    +0.000 C 
ENDROOT
BRANCH   8   9
ATOM      9  C   UNL     1       2.331   6.257  18.859  0.00  0.00    +0.000 A 
ATOM     10  C   UNL     1       1.944   6.503  20.200  0.00  0.00    +0.000 A 
ATOM     11  C   UNL     1       1.552   7.781  20.618  0.00  0.00    +0.000 A 
ATOM     12  C   UNL     1       1.552   8.791  19.680  0.00  0.00    +0.000 A 
ATOM     13  C   UNL     1       1.927   8.567  18.378  0.00  0.00    +0.000 A 
ATOM     14  C   UNL     1       2.322   7.323  17.939  0.00  0.00    +0.000 A 
ATOM     15  O   UNL     1       1.859   9.690  17.614  0.00  0.00    +0.000 OA
ATOM     16  C   UNL     1       1.356  10.639  18.577  0.00  0.00    +0.000 C 
ATOM     17  O   UNL     1       1.197  10.085  19.901  0.00  0.00    +0.000 OA
ENDBRANCH   8   9
BRANCH   6  18
ATOM     18  C   UNL     1       6.262   4.149  17.944  0.00  0.00    +0.000 C 
BRANCH  18  19
ATOM     19  N   UNL     1       6.876   5.460  17.852  0.00  0.00    +0.000 N 
ATOM     20  C   UNL     1       6.854   6.364  16.815  0.00  0.00    +0.000 A 
ATOM     21  C   UNL     1       7.646   7.414  17.203  0.00  0.00    +0.000 A 
ATOM     22  N   UNL     1       8.139   7.197  18.459  0.00  0.00    +0.000 NA
ATOM     23  C   UNL     1       7.665   6.029  18.844  0.00  0.00    +0.000 A 
ATOM     24  C   UNL     1       7.944   5.404  20.167  0.00  0.00    +0.000 C 
BRANCH  20  25
ATOM     25  N   UNL     1       6.153   6.232  15.582  0.00  0.00    +0.000 N 
ATOM     26  O   UNL     1       6.605   5.449  14.742  0.00  0.00    +0.000 OA
ATOM     27  O   UNL     1       5.132   6.915  15.452  0.00  0.00    +0.000 OA
ENDBRANCH  20  25
ENDBRANCH  18  19
ENDBRANCH   6  18
TORSDOF 4
ENDMDL
MODEL 2
REMARK VINA RESULT:      -8.3      0.659      1.390
REMARK  Name = 
REMARK  6 active torsions:
REMARK  status: ('A' for Active; 'I' for Inactive)
REMARK    1  A    between atoms: C_1  and  C_2
REMARK    2  A    between atoms: C_6  and  C_7
REMARK    3  A    between atoms: C_7  and  N_8
REMARK    4  A    between atoms: C_9  and  N_10
REMARK    5  A    between atoms: C_15  and  C_16
REMARK    6  A    between atoms: C_18  and  C_19
REMARK                            x       y       z     vdW  Elec       q    Type
REMARK                         _______ _______ _______ _____ _____    ______ ____
ROOT
ATOM      1  C   UNL     1       2.549   2.831  21.533  0.00  0.00    +0.000 C 
ATOM      2  C   UNL     1       1.991   3.689  20.428  0.00  0.00    +0.000 C 
ATOM      3  O   UNL     1       0.786   3.925  20.335  0.00  0.00    +0.000 OA
ATOM      4  N   UNL     1       2.923   4.195  19.553  0.00  0.00    +0.000 N 
ATOM      5  N   UNL     1       4.234   3.820  19.544  0.00  0.00    +0.000 NA
ATOM      6  C   UNL     1       4.697   4.362  18.463  0.00  0.00    +0.000 C 
ATOM      7  O   UNL     1       3.840   5.077  17.696  0.00  0.00    +0.000 OA
ATOM      8  C   UNL     1       2.609   5.046  18.426  0.00  0.00    +0.000 C 
ENDROOT
BRANCH   8   9
ATOM      9  C   UNL     1       2.226   6.455  18.828  0.00  0.00    +0.000 A 
ATOM     10  C   UNL     1       2.180   7.486  17.858  0.00  0.00    +0.000 A 
ATOM     11  C   UNL     1       1.825   8.795  18.209  0.00  0.00    +0.000 A 
ATOM     12  C   UNL     1       1.526   9.047  19.530  0.00  0.00    +0.000 A 
ATOM     13  C   UNL     1       1.564   8.056  20.480  0.00  0.00    +0.000 A 
ATOM     14  C   UNL     1       1.904   6.759  20.165  0.00  0.00    +0.000 A 
ATOM     15  O   UNL     1       1.236   8.508  21.720  0.00  0.00    +0.000 OA
ATOM     16  C   UNL     1       1.028   9.910  21.448  0.00  0.00    +0.000 C 
ATOM     17  O   UNL     1       1.171  10.251  20.053  0.00  0.00    +0.000 OA
ENDBRANCH   8   9
BRANCH   6  18
ATOM     18  C   UNL     1       6.097   4.214  17.974  0.00  0.00    +0.000 C 
BRANCH  18  19
ATOM     19  N   UNL     1       6.743   5.506  17.842  0.00  0.00    +0.000 N 
ATOM     20  C   UNL     1       6.730   6.386  16.785  0.00  0.00    +0.000 A 
ATOM     21  C   UNL     1       7.554   7.424  17.137  0.00  0.00    +0.000 A 
ATOM     22  N   UNL     1       8.060   7.222  18.390  0.00  0.00    +0.000 NA
ATOM     23  C   UNL     1       7.562   6.077  18.810  0.00  0.00    +0.000 A 
ATOM     24  C   UNL     1       7.842   5.476  20.143  0.00  0.00    +0.000 C 
BRANCH  20  25
ATOM     25  N   UNL     1       6.008   6.244  15.565  0.00  0.00    +0.000 N 
ATOM     26  O   UNL     1       6.426   5.430  14.738  0.00  0.00    +0.000 OA
ATOM     27  O   UNL     1       5.004   6.952  15.433  0.00  0.00    +0.000 OA
ENDBRANCH  20  25
ENDBRANCH  18  19
ENDBRANCH   6  18
TORSDOF 4
ENDMDL
MODEL 3
REMARK VINA RESULT:      -8.1      2.640      6.830
REMARK  Name = 
REMARK  6 active torsions:
REMARK  status: ('A' for Active; 'I' for Inactive)
REMARK    1  A    between atoms: C_1  and  C_2
REMARK    2  A    between atoms: C_6  and  C_7
REMARK    3  A    between atoms: C_7  and  N_8
REMARK    4  A    between atoms: C_9  and  N_10
REMARK    5  A    between atoms: C_15  and  C_16
REMARK    6  A    between atoms: C_18  and  C_19
REMARK                            x       y       z     vdW  Elec       q    Type
REMARK                         _______ _______ _______ _____ _____    ______ ____
ROOT
ATOM      1  C   UNL     1       8.032   5.286  20.154  0.00  0.00    +0.000 C 
ATOM      2  C   UNL     1       7.507   5.901  18.883  0.00  0.00    +0.000 C 
ATOM      3  O   UNL     1       8.251   6.456  18.075  0.00  0.00    +0.000 OA
ATOM      4  N   UNL     1       6.151   5.778  18.692  0.00  0.00    +0.000 N 
ATOM      5  N   UNL     1       5.292   5.309  19.641  0.00  0.00    +0.000 NA
ATOM      6  C   UNL     1       4.123   5.550  19.138  0.00  0.00    +0.000 C 
ATOM      7  O   UNL     1       4.067   6.154  17.927  0.00  0.00    +0.000 OA
ATOM      8  C   UNL     1       5.439   6.287  17.540  0.00  0.00    +0.000 C 
ENDROOT
BRANCH   8   9
ATOM      9  C   UNL     1       5.687   5.484  16.279  0.00  0.00    +0.000 A 
ATOM     10  C   UNL     1       5.002   4.263  16.065  0.00  0.00    +0.000 A 
ATOM     11  C   UNL     1       5.216   3.507  14.905  0.00  0.00    +0.000 A 
ATOM     12  C   UNL     1       6.117   3.989  13.981  0.00  0.00    +0.000 A 
ATOM     13  C   UNL     1       6.785   5.173  14.175  0.00  0.00    +0.000 A 
ATOM     14  C   UNL     1       6.593   5.941  15.303  0.00  0.00    +0.000 A 
ATOM     15  O   UNL     1       7.627   5.473  13.150  0.00  0.00    +0.000 OA
ATOM     16  C   UNL     1       7.441   4.317  12.306  0.00  0.00    +0.000 C 
ATOM     17  O   UNL     1       6.455   3.392  12.807  0.00  0.00    +0.000 OA
ENDBRANCH   8   9
BRANCH   6  18
ATOM     18  C   UNL     1       2.831   5.255  19.819  0.00  0.00    +0.000 C 
BRANCH  18  19
ATOM     19  N   UNL     1       2.327   3.949  19.439  0.00  0.00    +0.000 N 
ATOM     20  C   UNL     1       2.456   2.742  20.085  0.00  0.00    +0.000 A 
ATOM     21  C   UNL     1       1.862   1.806  19.276  0.00  0.00    +0.000 A 
ATOM     22  N   UNL     1       1.350   2.404  18.159  0.00  0.00    +0.000 NA
ATOM     23  C   UNL     1       1.623   3.688  18.269  0.00  0.00    +0.000 A 
ATOM     24  C   UNL     1       1.232   4.720  17.269  0.00  0.00    +0.000 C 
BRANCH  20  25
ATOM     25  N   UNL     1       3.086   2.508  21.341  0.00  0.00    +0.000 N 
ATOM     26  O   UNL     1       4.234   2.054  21.336  0.00  0.00    +0.000 OA
ATOM     27  O   UNL     1       2.428   2.788  22.349  0.00  0.00    +0.000 OA
ENDBRANCH  20  25
ENDBRANCH  18  19
ENDBRANCH   6  18
TORSDOF 4
ENDMDL
MODEL 4
REMARK VINA RESULT:      -7.9      1.397      2.185
REMARK  Name = 
REMARK  6 active torsions:
REMARK  status: ('A' for Active; 'I' for Inactive)
REMARK    1  A    between atoms: C_1  and  C_2
REMARK    2  A    between atoms: C_6  and  C_7
REMARK    3  A    between atoms: C_7  and  N_8
REMARK    4  A    between atoms: C_9  and  N_10
REMARK    5  A    between atoms: C_15  and  C_16
REMARK    6  A    between atoms: C_18  and  C_19
REMARK                            x       y       z     vdW  Elec       q    Type
REMARK                         _______ _______ _______ _____ _____    ______ ____
ROOT
ATOM      1  C   UNL     1       2.284   2.274  20.990  0.00  0.00    +0.000 C 
ATOM      2  C   UNL     1       1.743   3.249  19.977  0.00  0.00    +0.000 C 
ATOM      3  O   UNL     1       0.567   3.613  19.990  0.00  0.00    +0.000 OA
ATOM      4  N   UNL     1       2.659   3.708  19.061  0.00  0.00    +0.000 N 
ATOM      5  N   UNL     1       3.918   3.202  18.931  0.00  0.00    +0.000 NA
ATOM      6  C   UNL     1       4.359   3.757  17.847  0.00  0.00    +0.000 C 
ATOM      7  O   UNL     1       3.530   4.601  17.186  0.00  0.00    +0.000 OA
ATOM      8  C   UNL     1       2.358   4.652  18.007  0.00  0.00    +0.000 C 
ENDROOT
BRANCH   8   9
ATOM      9  C   UNL     1       2.157   6.067  18.510  0.00  0.00    +0.000 A 
ATOM     10  C   UNL     1       1.989   6.315  19.894  0.00  0.00    +0.000 A 
ATOM     11  C   UNL     1       1.804   7.616  20.380  0.00  0.00    +0.000 A 
ATOM     12  C   UNL     1       1.787   8.646  19.465  0.00  0.00    +0.000 A 
ATOM     13  C   UNL     1       1.952   8.420  18.121  0.00  0.00    +0.000 A 
ATOM     14  C   UNL     1       2.141   7.153  17.614  0.00  0.00    +0.000 A 
ATOM     15  O   UNL     1       1.906   9.565  17.388  0.00  0.00    +0.000 OA
ATOM     16  C   UNL     1       1.650  10.535  18.425  0.00  0.00    +0.000 C 
ATOM     17  O   UNL     1       1.614   9.964  19.750  0.00  0.00    +0.000 OA
ENDBRANCH   8   9
BRANCH   6  18
ATOM     18  C   UNL     1       5.696   3.495  17.244  0.00  0.00    +0.000 C 
BRANCH  18  19
ATOM     19  N   UNL     1       6.444   4.727  17.080  0.00  0.00    +0.000 N 
ATOM     20  C   UNL     1       6.846   5.637  18.029  0.00  0.00    +0.000 A 
ATOM     21  C   UNL     1       7.458   6.659  17.349  0.00  0.00    +0.000 A 
ATOM     22  N   UNL     1       7.466   6.396  16.008  0.00  0.00    +0.000 NA
ATOM     23  C   UNL     1       6.866   5.233  15.856  0.00  0.00    +0.000 A 
ATOM     24  C   UNL     1       6.666   4.555  14.545  0.00  0.00    +0.000 C 
BRANCH  20  25
ATOM     25  N   UNL     1       6.659   5.541  19.438  0.00  0.00    +0.000 N 
ATOM     26  O   UNL     1       7.646   5.299  20.138  0.00  0.00    +0.000 OA
ATOM     27  O   UNL     1       5.508   5.717  19.855  0.00  0.00    +0.000 OA
ENDBRANCH  20  25
ENDBRANCH  18  19
ENDBRANCH   6  18
TORSDOF 4
ENDMDL
MODEL 5
REMARK VINA RESULT:      -7.6      1.541      2.619
REMARK  Name = 
REMARK  6 active torsions:
REMARK  status: ('A' for Active; 'I' for Inactive)
REMARK    1  A    between atoms: C_1  and  C_2
REMARK    2  A    between atoms: C_6  and  C_7
REMARK    3  A    between atoms: C_7  and  N_8
REMARK    4  A    between atoms: C_9  and  N_10
REMARK    5  A    between atoms: C_15  and  C_16
REMARK    6  A    between atoms: C_18  and  C_19
REMARK                            x       y       z     vdW  Elec       q    Type
REMARK                         _______ _______ _______ _____ _____    ______ ____
ROOT
ATOM      1  C   UNL     1       2.587   2.405  21.357  0.00  0.00    +0.000 C 
ATOM      2  C   UNL     1       1.924   3.283  20.328  0.00  0.00    +0.000 C 
ATOM      3  O   UNL     1       0.741   3.610  20.419  0.00  0.00    +0.000 OA
ATOM      4  N   UNL     1       2.739   3.697  19.302  0.00  0.00    +0.000 N 
ATOM      5  N   UNL     1       4.000   3.221  19.098  0.00  0.00    +0.000 NA
ATOM      6  C   UNL     1       4.324   3.705  17.940  0.00  0.00    +0.000 C 
ATOM      7  O   UNL     1       3.411   4.470  17.296  0.00  0.00    +0.000 OA
ATOM      8  C   UNL     1       2.313   4.548  18.212  0.00  0.00    +0.000 C 
ENDROOT
BRANCH   8   9
ATOM      9  C   UNL     1       2.105   5.991  18.625  0.00  0.00    +0.000 A 
ATOM     10  C   UNL     1       2.205   7.029  17.667  0.00  0.00    +0.000 A 
ATOM     11  C   UNL     1       2.013   8.369  18.028  0.00  0.00    +0.000 A 
ATOM     12  C   UNL     1       1.727   8.644  19.348  0.00  0.00    +0.000 A 
ATOM     13  C   UNL     1       1.625   7.647  20.286  0.00  0.00    +0.000 A 
ATOM     14  C   UNL     1       1.803   6.320  19.961  0.00  0.00    +0.000 A 
ATOM     15  O   UNL     1       1.337   8.123  21.527  0.00  0.00    +0.000 OA
ATOM     16  C   UNL     1       1.311   9.543  21.268  0.00  0.00    +0.000 C 
ATOM     17  O   UNL     1       1.518   9.878  19.880  0.00  0.00    +0.000 OA
ENDBRANCH   8   9
BRANCH   6  18
ATOM     18  C   UNL     1       5.612   3.438  17.241  0.00  0.00    +0.000 C 
BRANCH  18  19
ATOM     19  N   UNL     1       6.372   4.661  17.062  0.00  0.00    +0.000 N 
ATOM     20  C   UNL     1       6.770   5.587  17.998  0.00  0.00    +0.000 A 
ATOM     21  C   UNL     1       7.397   6.591  17.305  0.00  0.00    +0.000 A 
ATOM     22  N   UNL     1       7.417   6.303  15.969  0.00  0.00    +0.000 NA
ATOM     23  C   UNL     1       6.811   5.141  15.833  0.00  0.00    +0.000 A 
ATOM     24  C   UNL     1       6.620   4.439  14.534  0.00  0.00    +0.000 C 
BRANCH  20  25
ATOM     25  N   UNL     1       6.566   5.519  19.406  0.00  0.00    +0.000 N 
ATOM     26  O   UNL     1       5.450   5.815  19.844  0.00  0.00    +0.000 OA
ATOM     27  O   UNL     1       7.532   5.159  20.087  0.00  0.00    +0.000 OA
ENDBRANCH  20  25
ENDBRANCH  18  19
ENDBRANCH   6  18
TORSDOF 4
ENDMDL
MODEL 6
REMARK VINA RESULT:      -7.6      1.518      2.264
REMARK  Name = 
REMARK  6 active torsions:
REMARK  status: ('A' for Active; 'I' for Inactive)
REMARK    1  A    between atoms: C_1  and  C_2
REMARK    2  A    between atoms: C_6  and  C_7
REMARK    3  A    between atoms: C_7  and  N_8
REMARK    4  A    between atoms: C_9  and  N_10
REMARK    5  A    between atoms: C_15  and  C_16
REMARK    6  A    between atoms: C_18  and  C_19
REMARK                            x       y       z     vdW  Elec       q    Type
REMARK                         _______ _______ _______ _____ _____    ______ ____
ROOT
ATOM      1  C   UNL     1       2.531   2.829  21.432  0.00  0.00    +0.000 C 
ATOM      2  C   UNL     1       1.891   3.720  20.399  0.00  0.00    +0.000 C 
ATOM      3  O   UNL     1       0.693   4.000  20.436  0.00  0.00    +0.000 OA
ATOM      4  N   UNL     1       2.745   4.203  19.436  0.00  0.00    +0.000 N 
ATOM      5  N   UNL     1       4.033   3.782  19.285  0.00  0.00    +0.000 NA
ATOM      6  C   UNL     1       4.400   4.321  18.166  0.00  0.00    +0.000 C 
ATOM      7  O   UNL     1       3.494   5.075  17.500  0.00  0.00    +0.000 OA
ATOM      8  C   UNL     1       2.346   5.079  18.355  0.00  0.00    +0.000 C 
ENDROOT
BRANCH   8   9
ATOM      9  C   UNL     1       2.059   6.496  18.807  0.00  0.00    +0.000 A 
ATOM     10  C   UNL     1       1.754   6.764  20.164  0.00  0.00    +0.000 A 
ATOM     11  C   UNL     1       1.489   8.067  20.603  0.00  0.00    +0.000 A 
ATOM     12  C   UNL     1       1.530   9.080  19.670  0.00  0.00    +0.000 A 
ATOM     13  C   UNL     1       1.826   8.834  18.352  0.00  0.00    +0.000 A 
ATOM     14  C   UNL     1       2.098   7.565  17.891  0.00  0.00    +0.000 A 
ATOM     15  O   UNL     1       1.817   9.964  17.594  0.00  0.00    +0.000 OA
ATOM     16  C   UNL     1       1.438  10.945  18.582  0.00  0.00    +0.000 C 
ATOM     17  O   UNL     1       1.293  10.397  19.910  0.00  0.00    +0.000 OA
ENDBRANCH   8   9
BRANCH   6  18
ATOM     18  C   UNL     1       5.734   4.128  17.531  0.00  0.00    +0.000 C 
BRANCH  18  19
ATOM     19  N   UNL     1       6.465   5.380  17.462  0.00  0.00    +0.000 N 
ATOM     20  C   UNL     1       7.359   5.919  18.358  0.00  0.00    +0.000 A 
ATOM     21  C   UNL     1       7.709   7.149  17.860  0.00  0.00    +0.000 A 
ATOM     22  N   UNL     1       7.074   7.376  16.672  0.00  0.00    +0.000 NA
ATOM     23  C   UNL     1       6.339   6.308  16.435  0.00  0.00    +0.000 A 
ATOM     24  C   UNL     1       5.486   6.125  15.229  0.00  0.00    +0.000 C 
BRANCH  20  25
ATOM     25  N   UNL     1       7.824   5.322  19.565  0.00  0.00    +0.000 N 
ATOM     26  O   UNL     1       7.032   5.234  20.508  0.00  0.00    +0.000 OA
ATOM     27  O   UNL     1       8.995   4.929  19.570  0.00  0.00    +0.000 OA
ENDBRANCH  20  25
ENDBRANCH  18  19
ENDBRANCH   6  18
TORSDOF 4
ENDMDL
MODEL 7
REMARK VINA RESULT:      -7.6      2.092      2.936
REMARK  Name = 
REMARK  6 active torsions:
REMARK  status: ('A' for Active; 'I' for Inactive)
REMARK    1  A    between atoms: C_1  and  C_2
REMARK    2  A    between atoms: C_6  and  C_7
REMARK    3  A    between atoms: C_7  and  N_8
REMARK    4  A    between atoms: C_9  and  N_10
REMARK    5  A    between atoms: C_15  and  C_16
REMARK    6  A    between atoms: C_18  and  C_19
REMARK                            x       y       z     vdW  Elec       q    Type
REMARK                         _______ _______ _______ _____ _____    ______ ____
ROOT
ATOM      1  C   UNL     1       3.125   3.716  20.204  0.00  0.00    +0.000 C 
ATOM      2  C   UNL     1       2.224   4.801  19.674  0.00  0.00    +0.000 C 
ATOM      3  O   UNL     1       1.012   4.801  19.889  0.00  0.00    +0.000 OA
ATOM      4  N   UNL     1       2.858   5.786  18.955  0.00  0.00    +0.000 N 
ATOM      5  N   UNL     1       4.165   5.724  18.574  0.00  0.00    +0.000 NA
ATOM      6  C   UNL     1       4.294   6.726  17.763  0.00  0.00    +0.000 C 
ATOM      7  O   UNL     1       3.201   7.490  17.523  0.00  0.00    +0.000 OA
ATOM      8  C   UNL     1       2.189   6.924  18.363  0.00  0.00    +0.000 C 
ENDROOT
BRANCH   8   9
ATOM      9  C   UNL     1       1.745   7.955  19.380  0.00  0.00    +0.000 A 
ATOM     10  C   UNL     1       1.747   7.641  20.762  0.00  0.00    +0.000 A 
ATOM     11  C   UNL     1       1.343   8.581  21.719  0.00  0.00    +0.000 A 
ATOM     12  C   UNL     1       0.938   9.819  21.271  0.00  0.00    +0.000 A 
ATOM     13  C   UNL     1       0.933  10.137  19.935  0.00  0.00    +0.000 A 
ATOM     14  C   UNL     1       1.330   9.237  18.971  0.00  0.00    +0.000 A 
ATOM     15  O   UNL     1       0.501  11.405  19.701  0.00  0.00    +0.000 OA
ATOM     16  C   UNL     1       0.195  11.836  21.044  0.00  0.00    +0.000 C 
ATOM     17  O   UNL     1       0.507  10.848  22.049  0.00  0.00    +0.000 OA
ENDBRANCH   8   9
BRANCH   6  18
ATOM     18  C   UNL     1       5.547   7.071  17.035  0.00  0.00    +0.000 C 
BRANCH  18  19
ATOM     19  N   UNL     1       6.430   5.924  16.943  0.00  0.00    +0.000 N 
ATOM     20  C   UNL     1       7.417   5.511  17.807  0.00  0.00    +0.000 A 
ATOM     21  C   UNL     1       8.003   4.415  17.227  0.00  0.00    +0.000 A 
ATOM     22  N   UNL     1       7.392   4.125  16.039  0.00  0.00    +0.000 NA
ATOM     23  C   UNL     1       6.445   5.027  15.881  0.00  0.00    +0.000 A 
ATOM     24  C   UNL     1       5.517   5.077  14.718  0.00  0.00    +0.000 C 
BRANCH  20  25
ATOM     25  N   UNL     1       7.765   6.106  19.053  0.00  0.00    +0.000 N 
ATOM     26  O   UNL     1       7.446   5.512  20.087  0.00  0.00    +0.000 OA
ATOM     27  O   UNL     1       8.373   7.181  19.001  0.00  0.00    +0.000 OA
ENDBRANCH  20  25
ENDBRANCH  18  19
ENDBRANCH   6  18
TORSDOF 4
ENDMDL
MODEL 8
REMARK VINA RESULT:      -7.5      1.695      2.643
REMARK  Name = 
REMARK  6 active torsions:
REMARK  status: ('A' for Active; 'I' for Inactive)
REMARK    1  A    between atoms: C_1  and  C_2
REMARK    2  A    between atoms: C_6  and  C_7
REMARK    3  A    between atoms: C_7  and  N_8
REMARK    4  A    between atoms: C_9  and  N_10
REMARK    5  A    between atoms: C_15  and  C_16
REMARK    6  A    between atoms: C_18  and  C_19
REMARK                            x       y       z     vdW  Elec       q    Type
REMARK                         _______ _______ _______ _____ _____    ______ ____
ROOT
ATOM      1  C   UNL     1       2.593   3.238  21.559  0.00  0.00    +0.000 C 
ATOM      2  C   UNL     1       1.912   4.053  20.490  0.00  0.00    +0.000 C 
ATOM      3  O   UNL     1       0.708   4.304  20.534  0.00  0.00    +0.000 OA
ATOM      4  N   UNL     1       2.736   4.500  19.484  0.00  0.00    +0.000 N 
ATOM      5  N   UNL     1       4.031   4.104  19.333  0.00  0.00    +0.000 NA
ATOM      6  C   UNL     1       4.364   4.586  18.178  0.00  0.00    +0.000 C 
ATOM      7  O   UNL     1       3.427   5.279  17.488  0.00  0.00    +0.000 OA
ATOM      8  C   UNL     1       2.295   5.303  18.364  0.00  0.00    +0.000 C 
ENDROOT
BRANCH   8   9
ATOM      9  C   UNL     1       1.980   6.736  18.740  0.00  0.00    +0.000 A 
ATOM     10  C   UNL     1       1.933   7.741  17.744  0.00  0.00    +0.000 A 
ATOM     11  C   UNL     1       1.641   9.072  18.071  0.00  0.00    +0.000 A 
ATOM     12  C   UNL     1       1.404   9.370  19.395  0.00  0.00    +0.000 A 
ATOM     13  C   UNL     1       1.444   8.405  20.371  0.00  0.00    +0.000 A 
ATOM     14  C   UNL     1       1.723   7.088  20.079  0.00  0.00    +0.000 A 
ATOM     15  O   UNL     1       1.183   8.901  21.609  0.00  0.00    +0.000 OA
ATOM     16  C   UNL     1       1.015  10.302  21.305  0.00  0.00    +0.000 C 
ATOM     17  O   UNL     1       1.114  10.600  19.897  0.00  0.00    +0.000 OA
ENDBRANCH   8   9
BRANCH   6  18
ATOM     18  C   UNL     1       5.691   4.391  17.529  0.00  0.00    +0.000 C 
BRANCH  18  19
ATOM     19  N   UNL     1       6.448   5.628  17.508  0.00  0.00    +0.000 N 
ATOM     20  C   UNL     1       7.441   6.059  18.357  0.00  0.00    +0.000 A 
ATOM     21  C   UNL     1       7.777   7.324  17.947  0.00  0.00    +0.000 A 
ATOM     22  N   UNL     1       7.037   7.679  16.854  0.00  0.00    +0.000 NA
ATOM     23  C   UNL     1       6.250   6.655  16.592  0.00  0.00    +0.000 A 
ATOM     24  C   UNL     1       5.279   6.607  15.464  0.00  0.00    +0.000 C 
BRANCH  20  25
ATOM     25  N   UNL     1       8.003   5.338  19.449  0.00  0.00    +0.000 N 
ATOM     26  O   UNL     1       7.574   5.576  20.582  0.00  0.00    +0.000 OA
ATOM     27  O   UNL     1       8.883   4.515  19.173  0.00  0.00    +0.000 OA
ENDBRANCH  20  25
ENDBRANCH  18  19
ENDBRANCH   6  18
TORSDOF 4
ENDMDL
MODEL 9
REMARK VINA RESULT:      -7.4      3.049      7.007
REMARK  Name = 
REMARK  6 active torsions:
REMARK  status: ('A' for Active; 'I' for Inactive)
REMARK    1  A    between atoms: C_1  and  C_2
REMARK    2  A    between atoms: C_6  and  C_7
REMARK    3  A    between atoms: C_7  and  N_8
REMARK    4  A    between atoms: C_9  and  N_10
REMARK    5  A    between atoms: C_15  and  C_16
REMARK    6  A    between atoms: C_18  and  C_19
REMARK                            x       y       z     vdW  Elec       q    Type
REMARK                         _______ _______ _______ _____ _____    ______ ____
ROOT
ATOM      1  C   UNL     1       8.253   6.923  18.905  0.00  0.00    +0.000 C 
ATOM      2  C   UNL     1       7.196   6.857  17.833  0.00  0.00    +0.000 C 
ATOM      3  O   UNL     1       7.140   7.686  16.925  0.00  0.00    +0.000 OA
ATOM      4  N   UNL     1       6.322   5.801  17.940  0.00  0.00    +0.000 N 
ATOM      5  N   UNL     1       6.269   4.968  19.017  0.00  0.00    +0.000 NA
ATOM      6  C   UNL     1       5.200   4.266  18.807  0.00  0.00    +0.000 C 
ATOM      7  O   UNL     1       4.482   4.527  17.688  0.00  0.00    +0.000 OA
ATOM      8  C   UNL     1       5.238   5.541  17.018  0.00  0.00    +0.000 C 
ENDROOT
BRANCH   8   9
ATOM      9  C   UNL     1       5.705   5.016  15.676  0.00  0.00    +0.000 A 
ATOM     10  C   UNL     1       7.071   5.104  15.311  0.00  0.00    +0.000 A 
ATOM     11  C   UNL     1       7.524   4.623  14.076  0.00  0.00    +0.000 A 
ATOM     12  C   UNL     1       6.595   4.064  13.226  0.00  0.00    +0.000 A 
ATOM     13  C   UNL     1       5.269   3.970  13.567  0.00  0.00    +0.000 A 
ATOM     14  C   UNL     1       4.794   4.430  14.776  0.00  0.00    +0.000 A 
ATOM     15  O   UNL     1       4.518   3.388  12.594  0.00  0.00    +0.000 OA
ATOM     16  C   UNL     1       5.521   3.164  11.581  0.00  0.00    +0.000 C 
ATOM     17  O   UNL     1       6.848   3.554  11.991  0.00  0.00    +0.000 OA
ENDBRANCH   8   9
BRANCH   6  18
ATOM     18  C   UNL     1       4.674   3.225  19.733  0.00  0.00    +0.000 C 
BRANCH  18  19
ATOM     19  N   UNL     1       3.280   2.935  19.455  0.00  0.00    +0.000 N 
ATOM     20  C   UNL     1       2.149   3.404  20.080  0.00  0.00    +0.000 A 
ATOM     21  C   UNL     1       1.088   2.770  19.485  0.00  0.00    +0.000 A 
ATOM     22  N   UNL     1       1.529   1.938  18.495  0.00  0.00    +0.000 NA
ATOM     23  C   UNL     1       2.842   2.050  18.476  0.00  0.00    +0.000 A 
ATOM     24  C   UNL     1       3.735   1.322  17.533  0.00  0.00    +0.000 C 
BRANCH  20  25
ATOM     25  N   UNL     1       2.091   4.355  21.139  0.00  0.00    +0.000 N 
ATOM     26  O   UNL     1       1.866   5.533  20.846  0.00  0.00    +0.000 OA
ATOM     27  O   UNL     1       2.267   3.920  22.282  0.00  0.00    +0.000 OA
ENDBRANCH  20  25
ENDBRANCH  18  19
ENDBRANCH   6  18
TORSDOF 4
ENDMDL
