MODEL 1
REMARK VINA RESULT:      -7.8      0.000      0.000
REMARK  Name = 
REMARK  12 active torsions:
REMARK  status: ('A' for Active; 'I' for Inactive)
REMARK    1  A    between atoms: C_1  and  O_2
REMARK    2  A    between atoms: O_2  and  C_3
REMARK    3  A    between atoms: C_5  and  C_6
REMARK    4  A    between atoms: C_6  and  C_8
REMARK    5  A    between atoms: C_8  and  C_9
REMARK    6  A    between atoms: N_11  and  N_12
REMARK    7  A    between atoms: N_12  and  C_13
REMARK    8  A    between atoms: C_16  and  C_17
REMARK    9  A    between atoms: C_24  and  O_25
REMARK   10  A    between atoms: O_25  and  C_26
REMARK   11  A    between atoms: C_27  and  O_28
REMARK   12  A    between atoms: O_28  and  C_29
REMARK                            x       y       z     vdW  Elec       q    Type
REMARK                         _______ _______ _______ _____ _____    ______ ____
ROOT
ATOM      1  C   UNL     1       7.431   6.750  17.943  0.00  0.00    +0.000 C 
ATOM      2  N   UNL     1       7.943   7.949  17.839  0.00  0.00    +0.000 NA
ENDROOT
BRANCH   1   3
ATOM      3  C   UNL     1       6.497   6.220  16.888  0.00  0.00    +0.000 C 
ATOM      4  O   UNL     1       6.939   6.146  15.745  0.00  0.00    +0.000 OA
BRANCH   3   7
ATOM      5  C   UNL     1       3.697   3.742  17.539  0.00  0.00    +0.000 A 
ATOM      6  C   UNL     1       4.908   4.321  17.107  0.00  0.00    +0.000 A 
ATOM      7  C   UNL     1       5.130   5.699  17.193  0.00  0.00    +0.000 A 
ATOM      8  C   UNL     1       4.083   6.502  17.625  0.00  0.00    +0.000 A 
ATOM      9  C   UNL     1       2.837   5.959  17.984  0.00  0.00    +0.000 A 
ATOM     10  C   UNL     1       2.624   4.565  17.946  0.00  0.00    +0.000 A 
BRANCH   5  12
ATOM     11  C   UNL     1       3.778   1.735  18.802  0.00  0.00    +0.000 C 
ATOM     12  O   UNL     1       3.546   2.377  17.545  0.00  0.00    +0.000 OA
ENDBRANCH   5  12
BRANCH   9  13
ATOM     13  O   UNL     1       1.975   6.955  18.366  0.00  0.00    +0.000 OA
ATOM     14  C   UNL     1       2.238   8.302  18.011  0.00  0.00    +0.000 C 
ENDBRANCH   9  13
BRANCH  10  15
ATOM     15  O   UNL     1       1.367   4.149  18.282  0.00  0.00    +0.000 OA
ATOM     16  C   UNL     1       1.028   3.804  19.614  0.00  0.00    +0.000 C 
ENDBRANCH  10  15
ENDBRANCH   3   7
ENDBRANCH   1   3
BRANCH   1  17
ATOM     17  C   UNL     1       7.797   5.947  19.085  0.00  0.00    +0.000 C 
ATOM     18  N   UNL     1       8.150   5.269  19.967  0.00  0.00    +0.000 NA
ENDBRANCH   1  17
BRANCH   2  19
ATOM     19  N   UNL     1       8.775   8.438  18.795  0.00  0.00    +0.000 N 
ATOM     20  H   UNL     1       9.145   7.888  19.573  0.00  0.00    +0.000 HD
BRANCH  19  21
ATOM     21  C   UNL     1       9.004   9.826  18.875  0.00  0.00    +0.000 A 
ATOM     22  C   UNL     1       9.467  10.443  20.042  0.00  0.00    +0.000 A 
ATOM     23  C   UNL     1       9.646  11.830  20.108  0.00  0.00    +0.000 A 
ATOM     24  C   UNL     1       9.348  12.638  19.004  0.00  0.00    +0.000 A 
ATOM     25  C   UNL     1       8.867  12.028  17.838  0.00  0.00    +0.000 A 
ATOM     26  C   UNL     1       8.697  10.641  17.776  0.00  0.00    +0.000 A 
BRANCH  24  27
ATOM     27  C   UNL     1       9.527  14.137  19.066  0.00  0.00    +0.000 C 
ATOM     28  F   UNL     1      10.134  14.568  20.206  0.00  0.00    +0.000 F 
ATOM     29  F   UNL     1      10.287  14.610  18.039  0.00  0.00    +0.000 F 
ATOM     30  F   UNL     1       8.344  14.809  18.996  0.00  0.00    +0.000 F 
ENDBRANCH  24  27
ENDBRANCH  19  21
ENDBRANCH   2  19
TORSDOF 9
ENDMDL
MODEL 2
REMARK VINA RESULT:      -7.8      0.259      2.512
REMARK  Name = 
REMARK  12 active torsions:
REMARK  status: ('A' for Active; 'I' for Inactive)
REMARK    1  A    between atoms: C_1  and  O_2
REMARK    2  A    between atoms: O_2  and  C_3
REMARK    3  A    between atoms: C_5  and  C_6
REMARK    4  A    between atoms: C_6  and  C_8
REMARK    5  A    between atoms: C_8  and  C_9
REMARK    6  A    between atoms: N_11  and  N_12
REMARK    7  A    between atoms: N_12  and  C_13
REMARK    8  A    between atoms: C_16  and  C_17
REMARK    9  A    between atoms: C_24  and  O_25
REMARK   10  A    between atoms: O_25  and  C_26
REMARK   11  A    between atoms: C_27  and  O_28
REMARK   12  A    between atoms: O_28  and  C_29
REMARK                            x       y       z     vdW  Elec       q    Type
REMARK                         _______ _______ _______ _____ _____    ______ ____
ROOT
ATOM      1  C   UNL     1       7.587   6.679  18.217  0.00  0.00    +0.000 C 
ATOM      2  N   UNL     1       8.085   7.877  18.056  0.00  0.00    +0.000 NA
ENDROOT
BRANCH   1   3
ATOM      3  C   UNL     1       6.696   6.070  17.167  0.00  0.00    +0.000 C 
ATOM      4  O   UNL     1       7.174   5.940  16.045  0.00  0.00    +0.000 OA
BRANCH   3   7
ATOM      5  C   UNL     1       2.984   6.048  17.961  0.00  0.00    +0.000 A 
ATOM      6  C   UNL     1       4.330   6.448  17.831  0.00  0.00    +0.000 A 
ATOM      7  C   UNL     1       5.329   5.542  17.461  0.00  0.00    +0.000 A 
ATOM      8  C   UNL     1       4.977   4.206  17.321  0.00  0.00    +0.000 A 
ATOM      9  C   UNL     1       3.658   3.766  17.525  0.00  0.00    +0.000 A 
ATOM     10  C   UNL     1       2.637   4.684  17.850  0.00  0.00    +0.000 A 
BRANCH   5  12
ATOM     11  C   UNL     1       2.318   8.321  17.840  0.00  0.00    +0.000 C 
ATOM     12  O   UNL     1       2.007   6.978  18.218  0.00  0.00    +0.000 OA
ENDBRANCH   5  12
BRANCH   9  13
ATOM     13  O   UNL     1       3.573   2.410  17.334  0.00  0.00    +0.000 OA
ATOM     14  C   UNL     1       3.662   1.527  18.439  0.00  0.00    +0.000 C 
ENDBRANCH   9  13
BRANCH  10  15
ATOM     15  O   UNL     1       1.401   4.142  18.059  0.00  0.00    +0.000 OA
ATOM     16  C   UNL     1       0.981   3.721  19.346  0.00  0.00    +0.000 C 
ENDBRANCH  10  15
ENDBRANCH   3   7
ENDBRANCH   1   3
BRANCH   1  17
ATOM     17  C   UNL     1       7.927   5.952  19.417  0.00  0.00    +0.000 C 
ATOM     18  N   UNL     1       8.176   5.302  20.354  0.00  0.00    +0.000 NA
ENDBRANCH   1  17
BRANCH   2  19
ATOM     19  N   UNL     1       8.879   8.437  19.006  0.00  0.00    +0.000 N 
ATOM     20  H   UNL     1       9.238   7.939  19.824  0.00  0.00    +0.000 HD
BRANCH  19  21
ATOM     21  C   UNL     1       9.075   9.831  19.017  0.00  0.00    +0.000 A 
ATOM     22  C   UNL     1       9.492  10.522  20.160  0.00  0.00    +0.000 A 
ATOM     23  C   UNL     1       9.638  11.914  20.155  0.00  0.00    +0.000 A 
ATOM     24  C   UNL     1       9.353  12.654  19.000  0.00  0.00    +0.000 A 
ATOM     25  C   UNL     1       8.918  11.971  17.858  0.00  0.00    +0.000 A 
ATOM     26  C   UNL     1       8.781  10.579  17.867  0.00  0.00    +0.000 A 
BRANCH  24  27
ATOM     27  C   UNL     1       9.498  14.158  18.985  0.00  0.00    +0.000 C 
ATOM     28  F   UNL     1      10.015  14.646  17.824  0.00  0.00    +0.000 F 
ATOM     29  F   UNL     1       8.305  14.794  19.157  0.00  0.00    +0.000 F 
ATOM     30  F   UNL     1      10.311  14.616  19.978  0.00  0.00    +0.000 F 
ENDBRANCH  24  27
ENDBRANCH  19  21
ENDBRANCH   2  19
TORSDOF 9
ENDMDL
MODEL 3
REMARK VINA RESULT:      -7.7      1.020      1.494
REMARK  Name = 
REMARK  12 active torsions:
REMARK  status: ('A' for Active; 'I' for Inactive)
REMARK    1  A    between atoms: C_1  and  O_2
REMARK    2  A    between atoms: O_2  and  C_3
REMARK    3  A    between atoms: C_5  and  C_6
REMARK    4  A    between atoms: C_6  and  C_8
REMARK    5  A    between atoms: C_8  and  C_9
REMARK    6  A    between atoms: N_11  and  N_12
REMARK    7  A    between atoms: N_12  and  C_13
REMARK    8  A    between atoms: C_16  and  C_17
REMARK    9  A    between atoms: C_24  and  O_25
REMARK   10  A    between atoms: O_25  and  C_26
REMARK   11  A    between atoms: C_27  and  O_28
REMARK   12  A    between atoms: O_28  and  C_29
REMARK                            x       y       z     vdW  Elec       q    Type
REMARK                         _______ _______ _______ _____ _____    ______ ____
ROOT
ATOM      1  C   UNL     1       6.658   6.877  17.517  0.00  0.00    +0.000 C 
ATOM      2  N   UNL     1       7.195   8.064  17.404  0.00  0.00    +0.000 NA
ENDROOT
BRANCH   1   3
ATOM      3  C   UNL     1       5.366   6.548  16.820  0.00  0.00    +0.000 C 
ATOM      4  O   UNL     1       5.332   6.726  15.606  0.00  0.00    +0.000 OA
BRANCH   3   7
ATOM      5  C   UNL     1       2.817   3.937  17.864  0.00  0.00    +0.000 A 
ATOM      6  C   UNL     1       3.801   4.643  17.143  0.00  0.00    +0.000 A 
ATOM      7  C   UNL     1       4.195   5.933  17.516  0.00  0.00    +0.000 A 
ATOM      8  C   UNL     1       3.517   6.544  18.561  0.00  0.00    +0.000 A 
ATOM      9  C   UNL     1       2.475   5.894  19.244  0.00  0.00    +0.000 A 
ATOM     10  C   UNL     1       2.107   4.575  18.905  0.00  0.00    +0.000 A 
BRANCH   5  12
ATOM     11  C   UNL     1       3.402   1.650  18.105  0.00  0.00    +0.000 C 
ATOM     12  O   UNL     1       2.527   2.633  17.545  0.00  0.00    +0.000 OA
ENDBRANCH   5  12
BRANCH   9  13
ATOM     13  O   UNL     1       1.966   6.708  20.224  0.00  0.00    +0.000 OA
ATOM     14  C   UNL     1       1.802   8.096  19.984  0.00  0.00    +0.000 C 
ENDBRANCH   9  13
BRANCH  10  15
ATOM     15  O   UNL     1       1.061   4.053  19.611  0.00  0.00    +0.000 OA
ATOM     16  C   UNL     1       1.264   3.266  20.772  0.00  0.00    +0.000 C 
ENDBRANCH  10  15
ENDBRANCH   3   7
ENDBRANCH   1   3
BRANCH   1  17
ATOM     17  C   UNL     1       7.347   5.889  18.314  0.00  0.00    +0.000 C 
ATOM     18  N   UNL     1       7.918   5.145  19.009  0.00  0.00    +0.000 NA
ENDBRANCH   1  17
BRANCH   2  19
ATOM     19  N   UNL     1       8.354   8.372  18.043  0.00  0.00    +0.000 N 
ATOM     20  H   UNL     1       8.991   7.680  18.444  0.00  0.00    +0.000 HD
BRANCH  19  21
ATOM     21  C   UNL     1       8.632   9.712  18.374  0.00  0.00    +0.000 A 
ATOM     22  C   UNL     1       8.371  10.771  17.498  0.00  0.00    +0.000 A 
ATOM     23  C   UNL     1       8.697  12.090  17.835  0.00  0.00    +0.000 A 
ATOM     24  C   UNL     1       9.312  12.378  19.060  0.00  0.00    +0.000 A 
ATOM     25  C   UNL     1       9.593  11.321  19.934  0.00  0.00    +0.000 A 
ATOM     26  C   UNL     1       9.258  10.005  19.594  0.00  0.00    +0.000 A 
BRANCH  24  27
ATOM     27  C   UNL     1       9.678  13.796  19.431  0.00  0.00    +0.000 C 
ATOM     28  F   UNL     1       8.649  14.502  19.976  0.00  0.00    +0.000 F 
ATOM     29  F   UNL     1      10.688  13.848  20.345  0.00  0.00    +0.000 F 
ATOM     30  F   UNL     1      10.104  14.524  18.362  0.00  0.00    +0.000 F 
ENDBRANCH  24  27
ENDBRANCH  19  21
ENDBRANCH   2  19
TORSDOF 9
ENDMDL
MODEL 4
REMARK VINA RESULT:      -7.6      7.557     10.104
REMARK  Name = 
REMARK  12 active torsions:
REMARK  status: ('A' for Active; 'I' for Inactive)
REMARK    1  A    between atoms: C_1  and  O_2
REMARK    2  A    between atoms: O_2  and  C_3
REMARK    3  A    between atoms: C_5  and  C_6
REMARK    4  A    between atoms: C_6  and  C_8
REMARK    5  A    between atoms: C_8  and  C_9
REMARK    6  A    between atoms: N_11  and  N_12
REMARK    7  A    between atoms: N_12  and  C_13
REMARK    8  A    between atoms: C_16  and  C_17
REMARK    9  A    between atoms: C_24  and  O_25
REMARK   10  A    between atoms: O_25  and  C_26
REMARK   11  A    between atoms: C_27  and  O_28
REMARK   12  A    between atoms: O_28  and  C_29
REMARK                            x       y       z     vdW  Elec       q    Type
REMARK                         _______ _______ _______ _____ _____    ______ ____
ROOT
ATOM      1  C   UNL     1       0.849   9.592  20.024  0.00  0.00    +0.000 C 
ATOM      2  N   UNL     1       1.693   8.699  19.577  0.00  0.00    +0.000 NA
ENDROOT
BRANCH   1   3
ATOM      3  C   UNL     1       0.398  10.730  19.148  0.00  0.00    +0.000 C 
ATOM      4  O   UNL     1       1.276  11.451  18.683  0.00  0.00    +0.000 OA
BRANCH   3   7
ATOM      5  C   UNL     1      -2.864  10.335  17.249  0.00  0.00    +0.000 A 
ATOM      6  C   UNL     1      -1.497  10.317  17.593  0.00  0.00    +0.000 A 
ATOM      7  C   UNL     1      -1.027  10.942  18.752  0.00  0.00    +0.000 A 
ATOM      8  C   UNL     1      -1.932  11.672  19.510  0.00  0.00    +0.000 A 
ATOM      9  C   UNL     1      -3.285  11.776  19.145  0.00  0.00    +0.000 A 
ATOM     10  C   UNL     1      -3.774  11.106  18.004  0.00  0.00    +0.000 A 
BRANCH   5  12
ATOM     11  C   UNL     1      -3.017  10.187  14.886  0.00  0.00    +0.000 C 
ATOM     12  O   UNL     1      -3.315   9.622  16.165  0.00  0.00    +0.000 OA
ENDBRANCH   5  12
BRANCH   9  13
ATOM     13  O   UNL     1      -3.965  12.554  20.048  0.00  0.00    +0.000 OA
ATOM     14  C   UNL     1      -3.294  13.086  21.178  0.00  0.00    +0.000 C 
ENDBRANCH   9  13
BRANCH  10  15
ATOM     15  O   UNL     1      -5.096  11.303  17.724  0.00  0.00    +0.000 OA
ATOM     16  C   UNL     1      -5.534  12.388  16.925  0.00  0.00    +0.000 C 
ENDBRANCH  10  15
ENDBRANCH   3   7
ENDBRANCH   1   3
BRANCH   1  17
ATOM     17  C   UNL     1       0.351   9.448  21.372  0.00  0.00    +0.000 C 
ATOM     18  N   UNL     1      -0.003   9.275  22.470  0.00  0.00    +0.000 NA
ENDBRANCH   1  17
BRANCH   2  19
ATOM     19  N   UNL     1       2.114   7.677  20.368  0.00  0.00    +0.000 N 
ATOM     20  H   UNL     1       2.676   7.798  21.213  0.00  0.00    +0.000 HD
BRANCH  19  21
ATOM     21  C   UNL     1       1.966   6.348  19.928  0.00  0.00    +0.000 A 
ATOM     22  C   UNL     1       1.490   5.330  20.762  0.00  0.00    +0.000 A 
ATOM     23  C   UNL     1       1.393   4.008  20.311  0.00  0.00    +0.000 A 
ATOM     24  C   UNL     1       1.788   3.670  19.011  0.00  0.00    +0.000 A 
ATOM     25  C   UNL     1       2.281   4.681  18.177  0.00  0.00    +0.000 A 
ATOM     26  C   UNL     1       2.369   6.002  18.630  0.00  0.00    +0.000 A 
BRANCH  24  27
ATOM     27  C   UNL     1       1.697   2.245  18.516  0.00  0.00    +0.000 C 
ATOM     28  F   UNL     1       2.256   2.056  17.290  0.00  0.00    +0.000 F 
ATOM     29  F   UNL     1       2.324   1.368  19.349  0.00  0.00    +0.000 F 
ATOM     30  F   UNL     1       0.411   1.808  18.413  0.00  0.00    +0.000 F 
ENDBRANCH  24  27
ENDBRANCH  19  21
ENDBRANCH   2  19
TORSDOF 9
ENDMDL
MODEL 5
REMARK VINA RESULT:      -7.6      7.605     10.365
REMARK  Name = 
REMARK  12 active torsions:
REMARK  status: ('A' for Active; 'I' for Inactive)
REMARK    1  A    between atoms: C_1  and  O_2
REMARK    2  A    between atoms: O_2  and  C_3
REMARK    3  A    between atoms: C_5  and  C_6
REMARK    4  A    between atoms: C_6  and  C_8
REMARK    5  A    between atoms: C_8  and  C_9
REMARK    6  A    between atoms: N_11  and  N_12
REMARK    7  A    between atoms: N_12  and  C_13
REMARK    8  A    between atoms: C_16  and  C_17
REMARK    9  A    between atoms: C_24  and  O_25
REMARK   10  A    between atoms: O_25  and  C_26
REMARK   11  A    between atoms: C_27  and  O_28
REMARK   12  A    between atoms: O_28  and  C_29
REMARK                            x       y       z     vdW  Elec       q    Type
REMARK                         _______ _______ _______ _____ _____    ______ ____
ROOT
ATOM      1  C   UNL     1       0.761   9.565  19.989  0.00  0.00    +0.000 C 
ATOM      2  N   UNL     1       1.689   8.772  19.520  0.00  0.00    +0.000 NA
ENDROOT
BRANCH   1   3
ATOM      3  C   UNL     1       0.213  10.688  19.150  0.00  0.00    +0.000 C 
ATOM      4  O   UNL     1       1.029  11.471  18.674  0.00  0.00    +0.000 OA
BRANCH   3   7
ATOM      5  C   UNL     1      -3.355  11.982  19.190  0.00  0.00    +0.000 A 
ATOM      6  C   UNL     1      -2.028  11.683  19.561  0.00  0.00    +0.000 A 
ATOM      7  C   UNL     1      -1.235  10.816  18.801  0.00  0.00    +0.000 A 
ATOM      8  C   UNL     1      -1.823  10.175  17.720  0.00  0.00    +0.000 A 
ATOM      9  C   UNL     1      -3.168  10.391  17.377  0.00  0.00    +0.000 A 
ATOM     10  C   UNL     1      -3.959  11.302  18.109  0.00  0.00    +0.000 A 
BRANCH   5  12
ATOM     11  C   UNL     1      -4.865  12.411  20.968  0.00  0.00    +0.000 C 
ATOM     12  O   UNL     1      -4.075  12.918  19.890  0.00  0.00    +0.000 OA
ENDBRANCH   5  12
BRANCH   9  13
ATOM     13  O   UNL     1      -3.509   9.638  16.281  0.00  0.00    +0.000 OA
ATOM     14  C   UNL     1      -3.232  10.114  14.975  0.00  0.00    +0.000 C 
ENDBRANCH   9  13
BRANCH  10  15
ATOM     15  O   UNL     1      -5.261  11.409  17.711  0.00  0.00    +0.000 OA
ATOM     16  C   UNL     1      -5.714  12.506  16.936  0.00  0.00    +0.000 C 
ENDBRANCH  10  15
ENDBRANCH   3   7
ENDBRANCH   1   3
BRANCH   1  17
ATOM     17  C   UNL     1       0.268   9.325  21.325  0.00  0.00    +0.000 C 
ATOM     18  N   UNL     1      -0.077   9.078  22.412  0.00  0.00    +0.000 NA
ENDBRANCH   1  17
BRANCH   2  19
ATOM     19  N   UNL     1       2.197   7.766  20.279  0.00  0.00    +0.000 N 
ATOM     20  H   UNL     1       2.811   7.906  21.084  0.00  0.00    +0.000 HD
BRANCH  19  21
ATOM     21  C   UNL     1       2.065   6.432  19.846  0.00  0.00    +0.000 A 
ATOM     22  C   UNL     1       2.300   6.047  18.522  0.00  0.00    +0.000 A 
ATOM     23  C   UNL     1       2.120   4.721  18.108  0.00  0.00    +0.000 A 
ATOM     24  C   UNL     1       1.682   3.748  19.015  0.00  0.00    +0.000 A 
ATOM     25  C   UNL     1       1.428   4.131  20.338  0.00  0.00    +0.000 A 
ATOM     26  C   UNL     1       1.616   5.456  20.747  0.00  0.00    +0.000 A 
BRANCH  24  27
ATOM     27  C   UNL     1       1.474   2.316  18.579  0.00  0.00    +0.000 C 
ATOM     28  F   UNL     1       0.167   1.989  18.384  0.00  0.00    +0.000 F 
ATOM     29  F   UNL     1       2.106   2.037  17.404  0.00  0.00    +0.000 F 
ATOM     30  F   UNL     1       1.953   1.418  19.483  0.00  0.00    +0.000 F 
ENDBRANCH  24  27
ENDBRANCH  19  21
ENDBRANCH   2  19
TORSDOF 9
ENDMDL
MODEL 6
REMARK VINA RESULT:      -7.5      7.187     10.003
REMARK  Name = 
REMARK  12 active torsions:
REMARK  status: ('A' for Active; 'I' for Inactive)
REMARK    1  A    between atoms: C_1  and  O_2
REMARK    2  A    between atoms: O_2  and  C_3
REMARK    3  A    between atoms: C_5  and  C_6
REMARK    4  A    between atoms: C_6  and  C_8
REMARK    5  A    between atoms: C_8  and  C_9
REMARK    6  A    between atoms: N_11  and  N_12
REMARK    7  A    between atoms: N_12  and  C_13
REMARK    8  A    between atoms: C_16  and  C_17
REMARK    9  A    between atoms: C_24  and  O_25
REMARK   10  A    between atoms: O_25  and  C_26
REMARK   11  A    between atoms: C_27  and  O_28
REMARK   12  A    between atoms: O_28  and  C_29
REMARK                            x       y       z     vdW  Elec       q    Type
REMARK                         _______ _______ _______ _____ _____    ______ ____
ROOT
ATOM      1  C   UNL     1       0.757   9.769  20.806  0.00  0.00    +0.000 C 
ATOM      2  N   UNL     1       1.310   8.759  20.185  0.00  0.00    +0.000 NA
ENDROOT
BRANCH   1   3
ATOM      3  C   UNL     1       0.288  10.977  20.042  0.00  0.00    +0.000 C 
ATOM      4  O   UNL     1       1.129  11.837  19.798  0.00  0.00    +0.000 OA
BRANCH   3   7
ATOM      5  C   UNL     1      -3.244  12.290  19.591  0.00  0.00    +0.000 A 
ATOM      6  C   UNL     1      -1.982  11.984  20.141  0.00  0.00    +0.000 A 
ATOM      7  C   UNL     1      -1.097  11.114  19.497  0.00  0.00    +0.000 A 
ATOM      8  C   UNL     1      -1.533  10.476  18.344  0.00  0.00    +0.000 A 
ATOM      9  C   UNL     1      -2.817  10.700  17.819  0.00  0.00    +0.000 A 
ATOM     10  C   UNL     1      -3.696  11.614  18.437  0.00  0.00    +0.000 A 
BRANCH   5  12
ATOM     11  C   UNL     1      -4.741  12.796  21.361  0.00  0.00    +0.000 C 
ATOM     12  O   UNL     1      -4.049  13.229  20.186  0.00  0.00    +0.000 OA
ENDBRANCH   5  12
BRANCH   9  13
ATOM     13  O   UNL     1      -3.007   9.949  16.686  0.00  0.00    +0.000 OA
ATOM     14  C   UNL     1      -2.840  10.536  15.406  0.00  0.00    +0.000 C 
ENDBRANCH   9  13
BRANCH  10  15
ATOM     15  O   UNL     1      -4.930  11.728  17.862  0.00  0.00    +0.000 OA
ATOM     16  C   UNL     1      -6.026  10.937  18.290  0.00  0.00    +0.000 C 
ENDBRANCH  10  15
ENDBRANCH   3   7
ENDBRANCH   1   3
BRANCH   1  17
ATOM     17  C   UNL     1       0.596   9.684  22.238  0.00  0.00    +0.000 C 
ATOM     18  N   UNL     1       0.510   9.556  23.395  0.00  0.00    +0.000 NA
ENDBRANCH   1  17
BRANCH   2  19
ATOM     19  N   UNL     1       1.748   7.671  20.872  0.00  0.00    +0.000 N 
ATOM     20  H   UNL     1       2.015   7.682  21.858  0.00  0.00    +0.000 HD
BRANCH  19  21
ATOM     21  C   UNL     1       2.063   6.488  20.175  0.00  0.00    +0.000 A 
ATOM     22  C   UNL     1       1.945   5.221  20.757  0.00  0.00    +0.000 A 
ATOM     23  C   UNL     1       2.306   4.064  20.057  0.00  0.00    +0.000 A 
ATOM     24  C   UNL     1       2.811   4.151  18.753  0.00  0.00    +0.000 A 
ATOM     25  C   UNL     1       2.948   5.417  18.172  0.00  0.00    +0.000 A 
ATOM     26  C   UNL     1       2.580   6.570  18.874  0.00  0.00    +0.000 A 
BRANCH  24  27
ATOM     27  C   UNL     1       3.213   2.910  17.991  0.00  0.00    +0.000 C 
ATOM     28  F   UNL     1       2.307   2.531  17.049  0.00  0.00    +0.000 F 
ATOM     29  F   UNL     1       4.393   3.070  17.328  0.00  0.00    +0.000 F 
ATOM     30  F   UNL     1       3.384   1.829  18.802  0.00  0.00    +0.000 F 
ENDBRANCH  24  27
ENDBRANCH  19  21
ENDBRANCH   2  19
TORSDOF 9
ENDMDL
MODEL 7
REMARK VINA RESULT:      -7.5      0.799      2.709
REMARK  Name = 
REMARK  12 active torsions:
REMARK  status: ('A' for Active; 'I' for Inactive)
REMARK    1  A    between atoms: C_1  and  O_2
REMARK    2  A    between atoms: O_2  and  C_3
REMARK    3  A    between atoms: C_5  and  C_6
REMARK    4  A    between atoms: C_6  and  C_8
REMARK    5  A    between atoms: C_8  and  C_9
REMARK    6  A    between atoms: N_11  and  N_12
REMARK    7  A    between atoms: N_12  and  C_13
REMARK    8  A    between atoms: C_16  and  C_17
REMARK    9  A    between atoms: C_24  and  O_25
REMARK   10  A    between atoms: O_25  and  C_26
REMARK   11  A    between atoms: C_27  and  O_28
REMARK   12  A    between atoms: O_28  and  C_29
REMARK                            x       y       z     vdW  Elec       q    Type
REMARK                         _______ _______ _______ _____ _____    ______ ____
ROOT
ATOM      1  C   UNL     1       7.076   6.866  17.962  0.00  0.00    +0.000 C 
ATOM      2  N   UNL     1       7.579   8.063  17.813  0.00  0.00    +0.000 NA
ENDROOT
BRANCH   1   3
ATOM      3  C   UNL     1       5.892   6.422  17.145  0.00  0.00    +0.000 C 
ATOM      4  O   UNL     1       5.987   6.539  15.927  0.00  0.00    +0.000 OA
BRANCH   3   7
ATOM      5  C   UNL     1       2.678   6.016  19.122  0.00  0.00    +0.000 A 
ATOM      6  C   UNL     1       3.915   6.501  18.650  0.00  0.00    +0.000 A 
ATOM      7  C   UNL     1       4.686   5.771  17.740  0.00  0.00    +0.000 A 
ATOM      8  C   UNL     1       4.248   4.502  17.386  0.00  0.00    +0.000 A 
ATOM      9  C   UNL     1       3.060   3.961  17.906  0.00  0.00    +0.000 A 
ATOM     10  C   UNL     1       2.253   4.712  18.786  0.00  0.00    +0.000 A 
BRANCH   5  12
ATOM     11  C   UNL     1       1.887   8.197  19.621  0.00  0.00    +0.000 C 
ATOM     12  O   UNL     1       1.890   6.800  19.929  0.00  0.00    +0.000 OA
ENDBRANCH   5  12
BRANCH   9  13
ATOM     13  O   UNL     1       2.853   2.698  17.411  0.00  0.00    +0.000 OA
ATOM     14  C   UNL     1       3.429   1.575  18.057  0.00  0.00    +0.000 C 
ENDBRANCH   9  13
BRANCH  10  15
ATOM     15  O   UNL     1       1.139   4.077  19.256  0.00  0.00    +0.000 OA
ATOM     16  C   UNL     1       1.152   3.360  20.479  0.00  0.00    +0.000 C 
ENDBRANCH  10  15
ENDBRANCH   3   7
ENDBRANCH   1   3
BRANCH   1  17
ATOM     17  C   UNL     1       7.695   5.978  18.918  0.00  0.00    +0.000 C 
ATOM     18  N   UNL     1       8.263   5.283  19.664  0.00  0.00    +0.000 NA
ENDBRANCH   1  17
BRANCH   2  19
ATOM     19  N   UNL     1       8.639   8.474  18.558  0.00  0.00    +0.000 N 
ATOM     20  H   UNL     1       9.186   7.862  19.167  0.00  0.00    +0.000 HD
BRANCH  19  21
ATOM     21  C   UNL     1       8.906   9.850  18.689  0.00  0.00    +0.000 A 
ATOM     22  C   UNL     1       8.522  10.785  17.721  0.00  0.00    +0.000 A 
ATOM     23  C   UNL     1       8.839  12.142  17.856  0.00  0.00    +0.000 A 
ATOM     24  C   UNL     1       9.567  12.595  18.964  0.00  0.00    +0.000 A 
ATOM     25  C   UNL     1       9.970  11.662  19.927  0.00  0.00    +0.000 A 
ATOM     26  C   UNL     1       9.644  10.308  19.791  0.00  0.00    +0.000 A 
BRANCH  24  27
ATOM     27  C   UNL     1       9.923  14.055  19.115  0.00  0.00    +0.000 C 
ATOM     28  F   UNL     1      10.029  14.717  17.930  0.00  0.00    +0.000 F 
ATOM     29  F   UNL     1       8.996  14.741  19.841  0.00  0.00    +0.000 F 
ATOM     30  F   UNL     1      11.111  14.241  19.755  0.00  0.00    +0.000 F 
ENDBRANCH  24  27
ENDBRANCH  19  21
ENDBRANCH   2  19
TORSDOF 9
ENDMDL
MODEL 8
REMARK VINA RESULT:      -7.5      0.668      1.330
REMARK  Name = 
REMARK  12 active torsions:
REMARK  status: ('A' for Active; 'I' for Inactive)
REMARK    1  A    between atoms: C_1  and  O_2
REMARK    2  A    between atoms: O_2  and  C_3
REMARK    3  A    between atoms: C_5  and  C_6
REMARK    4  A    between atoms: C_6  and  C_8
REMARK    5  A    between atoms: C_8  and  C_9
REMARK    6  A    between atoms: N_11  and  N_12
REMARK    7  A    between atoms: N_12  and  C_13
REMARK    8  A    between atoms: C_16  and  C_17
REMARK    9  A    between atoms: C_24  and  O_25
REMARK   10  A    between atoms: O_25  and  C_26
REMARK   11  A    between atoms: C_27  and  O_28
REMARK   12  A    between atoms: O_28  and  C_29
REMARK                            x       y       z     vdW  Elec       q    Type
REMARK                         _______ _______ _______ _____ _____    ______ ____
ROOT
ATOM      1  C   UNL     1       7.544   6.818  18.210  0.00  0.00    +0.000 C 
ATOM      2  N   UNL     1       8.020   8.025  18.048  0.00  0.00    +0.000 NA
ENDROOT
BRANCH   1   3
ATOM      3  C   UNL     1       6.569   6.237  17.222  0.00  0.00    +0.000 C 
ATOM      4  O   UNL     1       6.972   6.084  16.073  0.00  0.00    +0.000 OA
BRANCH   3   7
ATOM      5  C   UNL     1       3.831   3.938  18.497  0.00  0.00    +0.000 A 
ATOM      6  C   UNL     1       5.047   4.419  17.968  0.00  0.00    +0.000 A 
ATOM      7  C   UNL     1       5.205   5.760  17.604  0.00  0.00    +0.000 A 
ATOM      8  C   UNL     1       4.096   6.591  17.683  0.00  0.00    +0.000 A 
ATOM      9  C   UNL     1       2.850   6.118  18.129  0.00  0.00    +0.000 A 
ATOM     10  C   UNL     1       2.698   4.779  18.544  0.00  0.00    +0.000 A 
BRANCH   5  12
ATOM     11  C   UNL     1       3.271   1.689  17.991  0.00  0.00    +0.000 C 
ATOM     12  O   UNL     1       3.736   2.645  18.948  0.00  0.00    +0.000 OA
ENDBRANCH   5  12
BRANCH   9  13
ATOM     13  O   UNL     1       1.921   7.128  18.108  0.00  0.00    +0.000 OA
ATOM     14  C   UNL     1       1.937   8.133  19.108  0.00  0.00    +0.000 C 
ENDBRANCH   9  13
BRANCH  10  15
ATOM     15  O   UNL     1       1.437   4.418  18.926  0.00  0.00    +0.000 OA
ATOM     16  C   UNL     1       1.072   4.321  20.292  0.00  0.00    +0.000 C 
ENDBRANCH  10  15
ENDBRANCH   3   7
ENDBRANCH   1   3
BRANCH   1  17
ATOM     17  C   UNL     1       7.992   6.055  19.352  0.00  0.00    +0.000 C 
ATOM     18  N   UNL     1       8.283   5.413  20.281  0.00  0.00    +0.000 NA
ENDBRANCH   1  17
BRANCH   2  19
ATOM     19  N   UNL     1       8.890   8.560  18.944  0.00  0.00    +0.000 N 
ATOM     20  H   UNL     1       9.330   8.035  19.703  0.00  0.00    +0.000 HD
BRANCH  19  21
ATOM     21  C   UNL     1       9.066   9.956  18.996  0.00  0.00    +0.000 A 
ATOM     22  C   UNL     1       8.952  10.769  17.862  0.00  0.00    +0.000 A 
ATOM     23  C   UNL     1       9.175  12.150  17.933  0.00  0.00    +0.000 A 
ATOM     24  C   UNL     1       9.534  12.750  19.147  0.00  0.00    +0.000 A 
ATOM     25  C   UNL     1       9.666  11.940  20.281  0.00  0.00    +0.000 A 
ATOM     26  C   UNL     1       9.436  10.561  20.206  0.00  0.00    +0.000 A 
BRANCH  24  27
ATOM     27  C   UNL     1       9.786  14.237  19.234  0.00  0.00    +0.000 C 
ATOM     28  F   UNL     1       9.546  14.901  18.070  0.00  0.00    +0.000 F 
ATOM     29  F   UNL     1       9.004  14.840  20.174  0.00  0.00    +0.000 F 
ATOM     30  F   UNL     1      11.072  14.531  19.574  0.00  0.00    +0.000 F 
ENDBRANCH  24  27
ENDBRANCH  19  21
ENDBRANCH   2  19
TORSDOF 9
ENDMDL
MODEL 9
REMARK VINA RESULT:      -7.4      6.185      9.031
REMARK  Name = 
REMARK  12 active torsions:
REMARK  status: ('A' for Active; 'I' for Inactive)
REMARK    1  A    between atoms: C_1  and  O_2
REMARK    2  A    between atoms: O_2  and  C_3
REMARK    3  A    between atoms: C_5  and  C_6
REMARK    4  A    between atoms: C_6  and  C_8
REMARK    5  A    between atoms: C_8  and  C_9
REMARK    6  A    between atoms: N_11  and  N_12
REMARK    7  A    between atoms: N_12  and  C_13
REMARK    8  A    between atoms: C_16  and  C_17
REMARK    9  A    between atoms: C_24  and  O_25
REMARK   10  A    between atoms: O_25  and  C_26
REMARK   11  A    between atoms: C_27  and  O_28
REMARK   12  A    between atoms: O_28  and  C_29
REMARK                            x       y       z     vdW  Elec       q    Type
REMARK                         _______ _______ _______ _____ _____    ______ ____
ROOT
ATOM      1  C   UNL     1       1.308   9.196  19.253  0.00  0.00    +0.000 C 
ATOM      2  N   UNL     1       1.952   8.427  18.413  0.00  0.00    +0.000 NA
ENDROOT
BRANCH   1   3
ATOM      3  C   UNL     1       0.676  10.481  18.789  0.00  0.00    +0.000 C 
ATOM      4  O   UNL     1       1.439  11.400  18.506  0.00  0.00    +0.000 OA
BRANCH   3   7
ATOM      5  C   UNL     1      -2.860  11.799  19.188  0.00  0.00    +0.000 A 
ATOM      6  C   UNL     1      -1.510  11.473  19.432  0.00  0.00    +0.000 A 
ATOM      7  C   UNL     1      -0.794  10.637  18.569  0.00  0.00    +0.000 A 
ATOM      8  C   UNL     1      -1.477  10.052  17.512  0.00  0.00    +0.000 A 
ATOM      9  C   UNL     1      -2.844  10.294  17.294  0.00  0.00    +0.000 A 
ATOM     10  C   UNL     1      -3.560  11.175  18.132  0.00  0.00    +0.000 A 
BRANCH   5  12
ATOM     11  C   UNL     1      -3.151  12.676  21.373  0.00  0.00    +0.000 C 
ATOM     12  O   UNL     1      -3.508  12.707  19.988  0.00  0.00    +0.000 OA
ENDBRANCH   5  12
BRANCH   9  13
ATOM     13  O   UNL     1      -3.283   9.596  16.197  0.00  0.00    +0.000 OA
ATOM     14  C   UNL     1      -3.024  10.084  14.891  0.00  0.00    +0.000 C 
ENDBRANCH   9  13
BRANCH  10  15
ATOM     15  O   UNL     1      -4.889  11.311  17.849  0.00  0.00    +0.000 OA
ATOM     16  C   UNL     1      -5.357  12.268  16.913  0.00  0.00    +0.000 C 
ENDBRANCH  10  15
ENDBRANCH   3   7
ENDBRANCH   1   3
BRANCH   1  17
ATOM     17  C   UNL     1       1.206   8.770  20.629  0.00  0.00    +0.000 C 
ATOM     18  N   UNL     1       1.197   8.409  21.738  0.00  0.00    +0.000 NA
ENDBRANCH   1  17
BRANCH   2  19
ATOM     19  N   UNL     1       2.536   7.273  18.829  0.00  0.00    +0.000 N 
ATOM     20  H   UNL     1       2.523   6.936  19.794  0.00  0.00    +0.000 HD
BRANCH  19  21
ATOM     21  C   UNL     1       3.394   6.574  17.959  0.00  0.00    +0.000 A 
ATOM     22  C   UNL     1       4.319   7.224  17.135  0.00  0.00    +0.000 A 
ATOM     23  C   UNL     1       5.131   6.507  16.247  0.00  0.00    +0.000 A 
ATOM     24  C   UNL     1       5.022   5.114  16.152  0.00  0.00    +0.000 A 
ATOM     25  C   UNL     1       4.086   4.459  16.961  0.00  0.00    +0.000 A 
ATOM     26  C   UNL     1       3.283   5.180  17.852  0.00  0.00    +0.000 A 
BRANCH  24  27
ATOM     27  C   UNL     1       5.885   4.331  15.191  0.00  0.00    +0.000 C 
ATOM     28  F   UNL     1       7.143   4.833  15.052  0.00  0.00    +0.000 F 
ATOM     29  F   UNL     1       6.045   3.034  15.578  0.00  0.00    +0.000 F 
ATOM     30  F   UNL     1       5.361   4.284  13.935  0.00  0.00    +0.000 F 
ENDBRANCH  24  27
ENDBRANCH  19  21
ENDBRANCH   2  19
TORSDOF 9
ENDMDL
