MODEL 1
REMARK VINA RESULT:      -7.3      0.000      0.000
REMARK  Name = 
REMARK  9 active torsions:
REMARK  status: ('A' for Active; 'I' for Inactive)
REMARK    1  A    between atoms: C_1  and  O_2
REMARK    2  A    between atoms: O_2  and  C_3
REMARK    3  A    between atoms: C_5  and  C_6
REMARK    4  A    between atoms: C_7  and  C_8
REMARK    5  A    between atoms: C_11  and  O_12
REMARK    6  A    between atoms: O_12  and  C_13
REMARK    7  A    between atoms: C_15  and  O_16
REMARK    8  A    between atoms: C_18  and  O_19
REMARK    9  A    between atoms: O_19  and  C_20
REMARK                            x       y       z     vdW  Elec       q    Type
REMARK                         _______ _______ _______ _____ _____    ______ ____
ROOT
ATOM      1  C   UNL     1       8.420   9.312  18.161  0.00  0.00    +0.000 C 
ATOM      2  C   UNL     1       8.478   8.045  18.605  0.00  0.00    +0.000 C 
ENDROOT
BRANCH   1   5
ATOM      3  C   UNL     1      10.005  11.798  20.504  0.00  0.00    +0.000 A 
ATOM      4  C   UNL     1       9.173  10.803  19.980  0.00  0.00    +0.000 A 
ATOM      5  C   UNL     1       9.258  10.422  18.634  0.00  0.00    +0.000 A 
ATOM      6  C   UNL     1      10.204  11.051  17.820  0.00  0.00    +0.000 A 
ATOM      7  C   UNL     1      11.044  12.044  18.332  0.00  0.00    +0.000 A 
ATOM      8  C   UNL     1      10.939  12.419  19.674  0.00  0.00    +0.000 A 
BRANCH   3  10
ATOM      9  C   UNL     1       8.489  11.945  22.332  0.00  0.00    +0.000 C 
ATOM     10  O   UNL     1       9.817  12.059  21.836  0.00  0.00    +0.000 OA
ENDBRANCH   3  10
BRANCH   7  11
ATOM     11  O   UNL     1      11.935  12.558  17.427  0.00  0.00    +0.000 OA
ATOM     12  C   UNL     1      11.585  13.789  16.807  0.00  0.00    +0.000 C 
ENDBRANCH   7  11
ENDBRANCH   1   5
BRANCH   2  13
ATOM     13  C   UNL     1       7.596   6.970  18.113  0.00  0.00    +0.000 A 
ATOM     14  C   UNL     1       6.860   7.127  16.930  0.00  0.00    +0.000 A 
ATOM     15  C   UNL     1       6.026   6.107  16.465  0.00  0.00    +0.000 A 
ATOM     16  C   UNL     1       5.923   4.901  17.156  0.00  0.00    +0.000 A 
ATOM     17  C   UNL     1       6.666   4.716  18.322  0.00  0.00    +0.000 A 
ATOM     18  C   UNL     1       7.499   5.743  18.788  0.00  0.00    +0.000 A 
BRANCH  16  19
ATOM     19  O   UNL     1       5.075   3.993  16.585  0.00  0.00    +0.000 OA
ATOM     20  C   UNL     1       4.135   3.359  17.441  0.00  0.00    +0.000 C 
ENDBRANCH  16  19
BRANCH  18  21
ATOM     21  O   UNL     1       8.229   5.547  19.933  0.00  0.00    +0.000 OA
ATOM     22  H   UNL     1       7.682   5.083  20.584  0.00  0.00    +0.000 HD
ENDBRANCH  18  21
ENDBRANCH   2  13
TORSDOF 6
ENDMDL
MODEL 2
REMARK VINA RESULT:      -7.1      0.636      2.816
REMARK  Name = 
REMARK  9 active torsions:
REMARK  status: ('A' for Active; 'I' for Inactive)
REMARK    1  A    between atoms: C_1  and  O_2
REMARK    2  A    between atoms: O_2  and  C_3
REMARK    3  A    between atoms: C_5  and  C_6
REMARK    4  A    between atoms: C_7  and  C_8
REMARK    5  A    between atoms: C_11  and  O_12
REMARK    6  A    between atoms: O_12  and  C_13
REMARK    7  A    between atoms: C_15  and  O_16
REMARK    8  A    between atoms: C_18  and  O_19
REMARK    9  A    between atoms: O_19  and  C_20
REMARK                            x       y       z     vdW  Elec       q    Type
REMARK                         _______ _______ _______ _____ _____    ______ ____
ROOT
ATOM      1  C   UNL     1       8.570   9.404  18.271  0.00  0.00    +0.000 C 
ATOM      2  C   UNL     1       8.579   8.137  18.720  0.00  0.00    +0.000 C 
ENDROOT
BRANCH   1   5
ATOM      3  C   UNL     1      10.919  12.345  18.384  0.00  0.00    +0.000 A 
ATOM      4  C   UNL     1      10.195  11.234  17.939  0.00  0.00    +0.000 A 
ATOM      5  C   UNL     1       9.374  10.508  18.813  0.00  0.00    +0.000 A 
ATOM      6  C   UNL     1       9.283  10.922  20.144  0.00  0.00    +0.000 A 
ATOM      7  C   UNL     1       9.998  12.033  20.601  0.00  0.00    +0.000 A 
ATOM      8  C   UNL     1      10.819  12.740  19.718  0.00  0.00    +0.000 A 
BRANCH   3  10
ATOM      9  C   UNL     1      11.202  14.221  16.948  0.00  0.00    +0.000 C 
ATOM     10  O   UNL     1      11.670  12.962  17.418  0.00  0.00    +0.000 OA
ENDBRANCH   3  10
BRANCH   7  11
ATOM     11  O   UNL     1       9.796  12.337  21.921  0.00  0.00    +0.000 OA
ATOM     12  C   UNL     1       8.509  12.058  22.457  0.00  0.00    +0.000 C 
ENDBRANCH   7  11
ENDBRANCH   1   5
BRANCH   2  13
ATOM     13  C   UNL     1       7.733   7.069  18.155  0.00  0.00    +0.000 A 
ATOM     14  C   UNL     1       6.996   7.278  16.981  0.00  0.00    +0.000 A 
ATOM     15  C   UNL     1       6.196   6.265  16.447  0.00  0.00    +0.000 A 
ATOM     16  C   UNL     1       6.130   5.014  17.058  0.00  0.00    +0.000 A 
ATOM     17  C   UNL     1       6.874   4.777  18.213  0.00  0.00    +0.000 A 
ATOM     18  C   UNL     1       7.672   5.798  18.748  0.00  0.00    +0.000 A 
BRANCH  16  19
ATOM     19  O   UNL     1       5.313   4.118  16.425  0.00  0.00    +0.000 OA
ATOM     20  C   UNL     1       5.747   3.624  15.166  0.00  0.00    +0.000 C 
ENDBRANCH  16  19
BRANCH  18  21
ATOM     21  O   UNL     1       8.405   5.552  19.882  0.00  0.00    +0.000 OA
ATOM     22  H   UNL     1       8.048   6.079  20.613  0.00  0.00    +0.000 HD
ENDBRANCH  18  21
ENDBRANCH   2  13
TORSDOF 6
ENDMDL
MODEL 3
REMARK VINA RESULT:      -6.9      6.405      9.478
REMARK  Name = 
REMARK  9 active torsions:
REMARK  status: ('A' for Active; 'I' for Inactive)
REMARK    1  A    between atoms: C_1  and  O_2
REMARK    2  A    between atoms: O_2  and  C_3
REMARK    3  A    between atoms: C_5  and  C_6
REMARK    4  A    between atoms: C_7  and  C_8
REMARK    5  A    between atoms: C_11  and  O_12
REMARK    6  A    between atoms: O_12  and  C_13
REMARK    7  A    between atoms: C_15  and  O_16
REMARK    8  A    between atoms: C_18  and  O_19
REMARK    9  A    between atoms: O_19  and  C_20
REMARK                            x       y       z     vdW  Elec       q    Type
REMARK                         _______ _______ _______ _____ _____    ______ ____
ROOT
ATOM      1  C   UNL     1       2.890   6.826  18.807  0.00  0.00    +0.000 C 
ATOM      2  C   UNL     1       2.244   7.921  18.371  0.00  0.00    +0.000 C 
ENDROOT
BRANCH   1   5
ATOM      3  C   UNL     1       5.121   5.256  16.213  0.00  0.00    +0.000 A 
ATOM      4  C   UNL     1       4.446   6.197  16.996  0.00  0.00    +0.000 A 
ATOM      5  C   UNL     1       3.503   5.799  17.953  0.00  0.00    +0.000 A 
ATOM      6  C   UNL     1       3.254   4.434  18.120  0.00  0.00    +0.000 A 
ATOM      7  C   UNL     1       3.925   3.483  17.347  0.00  0.00    +0.000 A 
ATOM      8  C   UNL     1       4.855   3.897  16.389  0.00  0.00    +0.000 A 
BRANCH   3  10
ATOM      9  C   UNL     1       6.879   4.872  14.656  0.00  0.00    +0.000 C 
ATOM     10  O   UNL     1       6.020   5.787  15.326  0.00  0.00    +0.000 OA
ENDBRANCH   3  10
BRANCH   7  11
ATOM     11  O   UNL     1       3.597   2.183  17.632  0.00  0.00    +0.000 OA
ATOM     12  C   UNL     1       2.437   1.971  18.426  0.00  0.00    +0.000 C 
ENDBRANCH   7  11
ENDBRANCH   1   5
BRANCH   2  13
ATOM     13  C   UNL     1       1.624   8.911  19.272  0.00  0.00    +0.000 A 
ATOM     14  C   UNL     1       1.305   8.580  20.597  0.00  0.00    +0.000 A 
ATOM     15  C   UNL     1       0.719   9.519  21.449  0.00  0.00    +0.000 A 
ATOM     16  C   UNL     1       0.457  10.815  21.007  0.00  0.00    +0.000 A 
ATOM     17  C   UNL     1       0.789  11.172  19.700  0.00  0.00    +0.000 A 
ATOM     18  C   UNL     1       1.374  10.225  18.847  0.00  0.00    +0.000 A 
BRANCH  16  19
ATOM     19  O   UNL     1      -0.114  11.628  21.947  0.00  0.00    +0.000 OA
ATOM     20  C   UNL     1      -0.983  11.015  22.888  0.00  0.00    +0.000 C 
ENDBRANCH  16  19
BRANCH  18  21
ATOM     21  O   UNL     1       1.701  10.589  17.565  0.00  0.00    +0.000 OA
ATOM     22  H   UNL     1       1.309   9.958  16.944  0.00  0.00    +0.000 HD
ENDBRANCH  18  21
ENDBRANCH   2  13
TORSDOF 6
ENDMDL
MODEL 4
REMARK VINA RESULT:      -6.8      5.342      7.959
REMARK  Name = 
REMARK  9 active torsions:
REMARK  status: ('A' for Active; 'I' for Inactive)
REMARK    1  A    between atoms: C_1  and  O_2
REMARK    2  A    between atoms: O_2  and  C_3
REMARK    3  A    between atoms: C_5  and  C_6
REMARK    4  A    between atoms: C_7  and  C_8
REMARK    5  A    between atoms: C_11  and  O_12
REMARK    6  A    between atoms: O_12  and  C_13
REMARK    7  A    between atoms: C_15  and  O_16
REMARK    8  A    between atoms: C_18  and  O_19
REMARK    9  A    between atoms: O_19  and  C_20
REMARK                            x       y       z     vdW  Elec       q    Type
REMARK                         _______ _______ _______ _____ _____    ______ ____
ROOT
ATOM      1  C   UNL     1       4.155   7.309  17.509  0.00  0.00    +0.000 C 
ATOM      2  C   UNL     1       3.034   7.031  18.195  0.00  0.00    +0.000 C 
ENDROOT
BRANCH   1   5
ATOM      3  C   UNL     1       7.029   4.881  17.350  0.00  0.00    +0.000 A 
ATOM      4  C   UNL     1       6.153   5.883  17.780  0.00  0.00    +0.000 A 
ATOM      5  C   UNL     1       5.095   6.316  16.970  0.00  0.00    +0.000 A 
ATOM      6  C   UNL     1       4.923   5.719  15.718  0.00  0.00    +0.000 A 
ATOM      7  C   UNL     1       5.789   4.714  15.278  0.00  0.00    +0.000 A 
ATOM      8  C   UNL     1       6.845   4.300  16.095  0.00  0.00    +0.000 A 
BRANCH   3  10
ATOM      9  C   UNL     1       8.160   5.408  19.377  0.00  0.00    +0.000 C 
ATOM     10  O   UNL     1       8.009   4.552  18.250  0.00  0.00    +0.000 OA
ENDBRANCH   3  10
BRANCH   7  11
ATOM     11  O   UNL     1       5.489   4.205  14.042  0.00  0.00    +0.000 OA
ATOM     12  C   UNL     1       6.585   3.876  13.198  0.00  0.00    +0.000 C 
ENDBRANCH   7  11
ENDBRANCH   1   5
BRANCH   2  13
ATOM     13  C   UNL     1       2.134   8.067  18.737  0.00  0.00    +0.000 A 
ATOM     14  C   UNL     1       1.645   9.096  17.918  0.00  0.00    +0.000 A 
ATOM     15  C   UNL     1       0.792  10.076  18.432  0.00  0.00    +0.000 A 
ATOM     16  C   UNL     1       0.390  10.040  19.767  0.00  0.00    +0.000 A 
ATOM     17  C   UNL     1       0.846   9.012  20.591  0.00  0.00    +0.000 A 
ATOM     18  C   UNL     1       1.705   8.033  20.072  0.00  0.00    +0.000 A 
BRANCH  16  19
ATOM     19  O   UNL     1      -0.448  11.058  20.131  0.00  0.00    +0.000 OA
ATOM     20  C   UNL     1      -1.432  11.455  19.187  0.00  0.00    +0.000 C 
ENDBRANCH  16  19
BRANCH  18  21
ATOM     21  O   UNL     1       2.143   7.023  20.891  0.00  0.00    +0.000 OA
ATOM     22  H   UNL     1       2.911   7.331  21.395  0.00  0.00    +0.000 HD
ENDBRANCH  18  21
ENDBRANCH   2  13
TORSDOF 6
ENDMDL
MODEL 5
REMARK VINA RESULT:      -6.7      1.862      8.031
REMARK  Name = 
REMARK  9 active torsions:
REMARK  status: ('A' for Active; 'I' for Inactive)
REMARK    1  A    between atoms: C_1  and  O_2
REMARK    2  A    between atoms: O_2  and  C_3
REMARK    3  A    between atoms: C_5  and  C_6
REMARK    4  A    between atoms: C_7  and  C_8
REMARK    5  A    between atoms: C_11  and  O_12
REMARK    6  A    between atoms: O_12  and  C_13
REMARK    7  A    between atoms: C_15  and  O_16
REMARK    8  A    between atoms: C_18  and  O_19
REMARK    9  A    between atoms: O_19  and  C_20
REMARK                            x       y       z     vdW  Elec       q    Type
REMARK                         _______ _______ _______ _____ _____    ______ ____
ROOT
ATOM      1  C   UNL     1       8.207   8.132  18.375  0.00  0.00    +0.000 C 
ATOM      2  C   UNL     1       8.174   9.351  17.810  0.00  0.00    +0.000 C 
ENDROOT
BRANCH   1   5
ATOM      3  C   UNL     1       6.336   4.865  18.358  0.00  0.00    +0.000 A 
ATOM      4  C   UNL     1       7.064   5.981  18.781  0.00  0.00    +0.000 A 
ATOM      5  C   UNL     1       7.523   6.935  17.864  0.00  0.00    +0.000 A 
ATOM      6  C   UNL     1       7.231   6.756  16.510  0.00  0.00    +0.000 A 
ATOM      7  C   UNL     1       6.501   5.647  16.074  0.00  0.00    +0.000 A 
ATOM      8  C   UNL     1       6.058   4.699  17.001  0.00  0.00    +0.000 A 
BRANCH   3  10
ATOM      9  C   UNL     1       4.577   3.622  19.372  0.00  0.00    +0.000 C 
ATOM     10  O   UNL     1       5.943   4.022  19.365  0.00  0.00    +0.000 OA
ENDBRANCH   3  10
BRANCH   7  11
ATOM     11  O   UNL     1       6.271   5.611  14.724  0.00  0.00    +0.000 OA
ATOM     12  C   UNL     1       6.637   4.420  14.040  0.00  0.00    +0.000 C 
ENDBRANCH   7  11
ENDBRANCH   1   5
BRANCH   2  13
ATOM     13  C   UNL     1       8.860  10.528  18.377  0.00  0.00    +0.000 A 
ATOM     14  C   UNL     1       9.838  10.382  19.371  0.00  0.00    +0.000 A 
ATOM     15  C   UNL     1      10.487  11.498  19.906  0.00  0.00    +0.000 A 
ATOM     16  C   UNL     1      10.193  12.781  19.446  0.00  0.00    +0.000 A 
ATOM     17  C   UNL     1       9.241  12.945  18.441  0.00  0.00    +0.000 A 
ATOM     18  C   UNL     1       8.588  11.823  17.910  0.00  0.00    +0.000 A 
BRANCH  16  19
ATOM     19  O   UNL     1      10.906  13.776  20.055  0.00  0.00    +0.000 OA
ATOM     20  C   UNL     1      10.294  14.428  21.158  0.00  0.00    +0.000 C 
ENDBRANCH  16  19
BRANCH  18  21
ATOM     21  O   UNL     1       7.657  11.997  16.917  0.00  0.00    +0.000 OA
ATOM     22  H   UNL     1       8.006  11.642  16.086  0.00  0.00    +0.000 HD
ENDBRANCH  18  21
ENDBRANCH   2  13
TORSDOF 6
ENDMDL
MODEL 6
REMARK VINA RESULT:      -6.7      6.339      9.033
REMARK  Name = 
REMARK  9 active torsions:
REMARK  status: ('A' for Active; 'I' for Inactive)
REMARK    1  A    between atoms: C_1  and  O_2
REMARK    2  A    between atoms: O_2  and  C_3
REMARK    3  A    between atoms: C_5  and  C_6
REMARK    4  A    between atoms: C_7  and  C_8
REMARK    5  A    between atoms: C_11  and  O_12
REMARK    6  A    between atoms: O_12  and  C_13
REMARK    7  A    between atoms: C_15  and  O_16
REMARK    8  A    between atoms: C_18  and  O_19
REMARK    9  A    between atoms: O_19  and  C_20
REMARK                            x       y       z     vdW  Elec       q    Type
REMARK                         _______ _______ _______ _____ _____    ______ ____
ROOT
ATOM      1  C   UNL     1       2.353   6.718  18.144  0.00  0.00    +0.000 C 
ATOM      2  C   UNL     1       2.577   7.984  18.536  0.00  0.00    +0.000 C 
ENDROOT
BRANCH   1   5
ATOM      3  C   UNL     1       4.114   3.475  17.399  0.00  0.00    +0.000 A 
ATOM      4  C   UNL     1       3.218   4.417  17.914  0.00  0.00    +0.000 A 
ATOM      5  C   UNL     1       3.373   5.784  17.649  0.00  0.00    +0.000 A 
ATOM      6  C   UNL     1       4.441   6.193  16.846  0.00  0.00    +0.000 A 
ATOM      7  C   UNL     1       5.341   5.262  16.321  0.00  0.00    +0.000 A 
ATOM      8  C   UNL     1       5.178   3.902  16.603  0.00  0.00    +0.000 A 
BRANCH   3  10
ATOM      9  C   UNL     1       2.545   1.916  18.275  0.00  0.00    +0.000 C 
ATOM     10  O   UNL     1       3.834   2.176  17.731  0.00  0.00    +0.000 OA
ENDBRANCH   3  10
BRANCH   7  11
ATOM     11  O   UNL     1       6.325   5.801  15.535  0.00  0.00    +0.000 OA
ATOM     12  C   UNL     1       7.016   4.912  14.667  0.00  0.00    +0.000 C 
ENDBRANCH   7  11
ENDBRANCH   1   5
BRANCH   2  13
ATOM     13  C   UNL     1       1.511   8.891  19.004  0.00  0.00    +0.000 A 
ATOM     14  C   UNL     1       0.807   9.701  18.101  0.00  0.00    +0.000 A 
ATOM     15  C   UNL     1      -0.203  10.558  18.545  0.00  0.00    +0.000 A 
ATOM     16  C   UNL     1      -0.548  10.612  19.895  0.00  0.00    +0.000 A 
ATOM     17  C   UNL     1       0.124   9.796  20.805  0.00  0.00    +0.000 A 
ATOM     18  C   UNL     1       1.139   8.940  20.356  0.00  0.00    +0.000 A 
BRANCH  16  19
ATOM     19  O   UNL     1      -1.555  11.490  20.186  0.00  0.00    +0.000 OA
ATOM     20  C   UNL     1      -2.311  11.991  19.093  0.00  0.00    +0.000 C 
ENDBRANCH  16  19
BRANCH  18  21
ATOM     21  O   UNL     1       1.789   8.139  21.260  0.00  0.00    +0.000 OA
ATOM     22  H   UNL     1       2.700   8.451  21.366  0.00  0.00    +0.000 HD
ENDBRANCH  18  21
ENDBRANCH   2  13
TORSDOF 6
ENDMDL
MODEL 7
REMARK VINA RESULT:      -6.7      6.319      7.865
REMARK  Name = 
REMARK  9 active torsions:
REMARK  status: ('A' for Active; 'I' for Inactive)
REMARK    1  A    between atoms: C_1  and  O_2
REMARK    2  A    between atoms: O_2  and  C_3
REMARK    3  A    between atoms: C_5  and  C_6
REMARK    4  A    between atoms: C_7  and  C_8
REMARK    5  A    between atoms: C_11  and  O_12
REMARK    6  A    between atoms: O_12  and  C_13
REMARK    7  A    between atoms: C_15  and  O_16
REMARK    8  A    between atoms: C_18  and  O_19
REMARK    9  A    between atoms: O_19  and  C_20
REMARK                            x       y       z     vdW  Elec       q    Type
REMARK                         _______ _______ _______ _____ _____    ______ ____
ROOT
ATOM      1  C   UNL     1       2.379   8.075  18.113  0.00  0.00    +0.000 C 
ATOM      2  C   UNL     1       2.674   6.783  18.337  0.00  0.00    +0.000 C 
ENDROOT
BRANCH   1   5
ATOM      3  C   UNL     1       0.567   9.580  21.050  0.00  0.00    +0.000 A 
ATOM      4  C   UNL     1       1.412   8.783  20.272  0.00  0.00    +0.000 A 
ATOM      5  C   UNL     1       1.409   8.874  18.874  0.00  0.00    +0.000 A 
ATOM      6  C   UNL     1       0.548   9.792  18.265  0.00  0.00    +0.000 A 
ATOM      7  C   UNL     1      -0.299  10.598  19.031  0.00  0.00    +0.000 A 
ATOM      8  C   UNL     1      -0.291  10.486  20.425  0.00  0.00    +0.000 A 
BRANCH   3  10
ATOM      9  C   UNL     1      -0.439   9.744  23.200  0.00  0.00    +0.000 C 
ATOM     10  O   UNL     1       0.684   9.391  22.402  0.00  0.00    +0.000 OA
ENDBRANCH   3  10
BRANCH   7  11
ATOM     11  O   UNL     1      -1.072  11.464  18.304  0.00  0.00    +0.000 OA
ATOM     12  C   UNL     1      -1.985  10.890  17.377  0.00  0.00    +0.000 C 
ENDBRANCH   7  11
ENDBRANCH   1   5
BRANCH   2  13
ATOM     13  C   UNL     1       3.640   6.017  17.527  0.00  0.00    +0.000 A 
ATOM     14  C   UNL     1       4.596   6.672  16.737  0.00  0.00    +0.000 A 
ATOM     15  C   UNL     1       5.512   5.945  15.972  0.00  0.00    +0.000 A 
ATOM     16  C   UNL     1       5.510   4.551  15.994  0.00  0.00    +0.000 A 
ATOM     17  C   UNL     1       4.583   3.882  16.793  0.00  0.00    +0.000 A 
ATOM     18  C   UNL     1       3.663   4.614  17.556  0.00  0.00    +0.000 A 
BRANCH  16  19
ATOM     19  O   UNL     1       6.462   3.972  15.202  0.00  0.00    +0.000 OA
ATOM     20  C   UNL     1       6.200   3.925  13.806  0.00  0.00    +0.000 C 
ENDBRANCH  16  19
BRANCH  18  21
ATOM     21  O   UNL     1       2.759   3.944  18.342  0.00  0.00    +0.000 OA
ATOM     22  H   UNL     1       1.890   4.364  18.257  0.00  0.00    +0.000 HD
ENDBRANCH  18  21
ENDBRANCH   2  13
TORSDOF 6
ENDMDL
MODEL 8
REMARK VINA RESULT:      -6.7      6.237      9.440
REMARK  Name = 
REMARK  9 active torsions:
REMARK  status: ('A' for Active; 'I' for Inactive)
REMARK    1  A    between atoms: C_1  and  O_2
REMARK    2  A    between atoms: O_2  and  C_3
REMARK    3  A    between atoms: C_5  and  C_6
REMARK    4  A    between atoms: C_7  and  C_8
REMARK    5  A    between atoms: C_11  and  O_12
REMARK    6  A    between atoms: O_12  and  C_13
REMARK    7  A    between atoms: C_15  and  O_16
REMARK    8  A    between atoms: C_18  and  O_19
REMARK    9  A    between atoms: O_19  and  C_20
REMARK                            x       y       z     vdW  Elec       q    Type
REMARK                         _______ _______ _______ _____ _____    ______ ____
ROOT
ATOM      1  C   UNL     1       2.468   7.285  18.889  0.00  0.00    +0.000 C 
ATOM      2  C   UNL     1       2.016   8.404  18.298  0.00  0.00    +0.000 C 
ENDROOT
BRANCH   1   5
ATOM      3  C   UNL     1       2.880   3.839  17.427  0.00  0.00    +0.000 A 
ATOM      4  C   UNL     1       2.379   4.933  18.140  0.00  0.00    +0.000 A 
ATOM      5  C   UNL     1       3.084   6.143  18.199  0.00  0.00    +0.000 A 
ATOM      6  C   UNL     1       4.301   6.242  17.519  0.00  0.00    +0.000 A 
ATOM      7  C   UNL     1       4.811   5.158  16.799  0.00  0.00    +0.000 A 
ATOM      8  C   UNL     1       4.100   3.955  16.759  0.00  0.00    +0.000 A 
BRANCH   3  10
ATOM      9  C   UNL     1       1.322   2.503  18.632  0.00  0.00    +0.000 C 
ATOM     10  O   UNL     1       2.080   2.727  17.448  0.00  0.00    +0.000 OA
ENDBRANCH   3  10
BRANCH   7  11
ATOM     11  O   UNL     1       6.001   5.403  16.166  0.00  0.00    +0.000 OA
ATOM     12  C   UNL     1       7.087   4.542  16.481  0.00  0.00    +0.000 C 
ENDBRANCH   7  11
ENDBRANCH   1   5
BRANCH   2  13
ATOM     13  C   UNL     1       1.382   9.513  19.035  0.00  0.00    +0.000 A 
ATOM     14  C   UNL     1       0.678   9.278  20.225  0.00  0.00    +0.000 A 
ATOM     15  C   UNL     1       0.079  10.330  20.923  0.00  0.00    +0.000 A 
ATOM     16  C   UNL     1       0.189  11.642  20.463  0.00  0.00    +0.000 A 
ATOM     17  C   UNL     1       0.906  11.900  19.295  0.00  0.00    +0.000 A 
ATOM     18  C   UNL     1       1.501  10.840  18.596  0.00  0.00    +0.000 A 
BRANCH  16  19
ATOM     19  O   UNL     1      -0.442  12.569  21.247  0.00  0.00    +0.000 OA
ATOM     20  C   UNL     1      -1.232  12.078  22.320  0.00  0.00    +0.000 C 
ENDBRANCH  16  19
BRANCH  18  21
ATOM     21  O   UNL     1       2.209  11.107  17.451  0.00  0.00    +0.000 OA
ATOM     22  H   UNL     1       1.796  10.645  16.706  0.00  0.00    +0.000 HD
ENDBRANCH  18  21
ENDBRANCH   2  13
TORSDOF 6
ENDMDL
MODEL 9
REMARK VINA RESULT:      -6.7      6.385      8.260
REMARK  Name = 
REMARK  9 active torsions:
REMARK  status: ('A' for Active; 'I' for Inactive)
REMARK    1  A    between atoms: C_1  and  O_2
REMARK    2  A    between atoms: O_2  and  C_3
REMARK    3  A    between atoms: C_5  and  C_6
REMARK    4  A    between atoms: C_7  and  C_8
REMARK    5  A    between atoms: C_11  and  O_12
REMARK    6  A    between atoms: O_12  and  C_13
REMARK    7  A    between atoms: C_15  and  O_16
REMARK    8  A    between atoms: C_18  and  O_19
REMARK    9  A    between atoms: O_19  and  C_20
REMARK                            x       y       z     vdW  Elec       q    Type
REMARK                         _______ _______ _______ _____ _____    ______ ____
ROOT
ATOM      1  C   UNL     1       2.438   8.133  18.247  0.00  0.00    +0.000 C 
ATOM      2  C   UNL     1       2.596   6.804  18.368  0.00  0.00    +0.000 C 
ENDROOT
BRANCH   1   5
ATOM      3  C   UNL     1      -0.308  10.610  18.954  0.00  0.00    +0.000 A 
ATOM      4  C   UNL     1       0.679   9.865  18.301  0.00  0.00    +0.000 A 
ATOM      5  C   UNL     1       1.478   8.951  19.000  0.00  0.00    +0.000 A 
ATOM      6  C   UNL     1       1.263   8.788  20.372  0.00  0.00    +0.000 A 
ATOM      7  C   UNL     1       0.278   9.523  21.036  0.00  0.00    +0.000 A 
ATOM      8  C   UNL     1      -0.504  10.438  20.325  0.00  0.00    +0.000 A 
BRANCH   3  10
ATOM      9  C   UNL     1      -2.385  11.670  18.477  0.00  0.00    +0.000 C 
ATOM     10  O   UNL     1      -1.018  11.456  18.143  0.00  0.00    +0.000 OA
ENDBRANCH   3  10
BRANCH   7  11
ATOM     11  O   UNL     1       0.165   9.246  22.373  0.00  0.00    +0.000 OA
ATOM     12  C   UNL     1      -0.714  10.070  23.129  0.00  0.00    +0.000 C 
ENDBRANCH   7  11
ENDBRANCH   1   5
BRANCH   2  13
ATOM     13  C   UNL     1       3.560   6.024  17.569  0.00  0.00    +0.000 A 
ATOM     14  C   UNL     1       4.531   6.664  16.785  0.00  0.00    +0.000 A 
ATOM     15  C   UNL     1       5.444   5.924  16.030  0.00  0.00    +0.000 A 
ATOM     16  C   UNL     1       5.425   4.530  16.056  0.00  0.00    +0.000 A 
ATOM     17  C   UNL     1       4.484   3.875  16.849  0.00  0.00    +0.000 A 
ATOM     18  C   UNL     1       3.566   4.621  17.602  0.00  0.00    +0.000 A 
BRANCH  16  19
ATOM     19  O   UNL     1       6.378   3.938  15.274  0.00  0.00    +0.000 OA
ATOM     20  C   UNL     1       7.001   4.749  14.289  0.00  0.00    +0.000 C 
ENDBRANCH  16  19
BRANCH  18  21
ATOM     21  O   UNL     1       2.648   3.964  18.382  0.00  0.00    +0.000 OA
ATOM     22  H   UNL     1       2.131   3.362  17.827  0.00  0.00    +0.000 HD
ENDBRANCH  18  21
ENDBRANCH   2  13
TORSDOF 6
ENDMDL
