MODEL 1
REMARK VINA RESULT:      -7.1      0.000      0.000
REMARK  Name = 
REMARK  8 active torsions:
REMARK  status: ('A' for Active; 'I' for Inactive)
REMARK    1  A    between atoms: C_1  and  C_2
REMARK    2  A    between atoms: C_2  and  C_3
REMARK    3  A    between atoms: C_3  and  C_4
REMARK    4  A    between atoms: C_4  and  N_5
REMARK    5  A    between atoms: C_10  and  O_11
REMARK    6  A    between atoms: O_11  and  C_12
REMARK    7  A    between atoms: C_13  and  O_14
REMARK    8  A    between atoms: O_14  and  C_15
REMARK                            x       y       z     vdW  Elec       q    Type
REMARK                         _______ _______ _______ _____ _____    ______ ____
ROOT
ATOM      1  N   UNL     1       0.859  10.832  19.170  0.00  0.00    +0.000 N 
ATOM      2  C   UNL     1       1.572   9.848  18.469  0.00  0.00    +0.000 A 
ATOM      3  O   UNL     1       2.101  10.049  17.373  0.00  0.00    +0.000 OA
ATOM      4  C   UNL     1       1.747   8.521  19.079  0.00  0.00    +0.000 A 
ATOM      5  C   UNL     1       2.501   7.559  18.393  0.00  0.00    +0.000 A 
ATOM      6  C   UNL     1       2.790   6.276  18.900  0.00  0.00    +0.000 A 
ATOM      7  C   UNL     1       2.280   5.972  20.163  0.00  0.00    +0.000 A 
ATOM      8  C   UNL     1       1.508   6.970  20.845  0.00  0.00    +0.000 A 
ATOM      9  C   UNL     1       1.228   8.251  20.329  0.00  0.00    +0.000 A 
ATOM     10  C   UNL     1       0.444   9.287  21.016  0.00  0.00    +0.000 A 
ATOM     11  N   UNL     1       0.027   9.013  22.266  0.00  0.00    +0.000 NA
ATOM     12  N   UNL     1      -0.638   9.967  23.003  0.00  0.00    +0.000 NA
ATOM     13  C   UNL     1      -0.992  11.141  22.465  0.00  0.00    +0.000 A 
ATOM     14  C   UNL     1      -1.632  12.091  23.270  0.00  0.00    +0.000 A 
ATOM     15  C   UNL     1      -1.996  13.304  22.729  0.00  0.00    +0.000 A 
ATOM     16  C   UNL     1      -1.845  13.544  21.399  0.00  0.00    +0.000 A 
ATOM     17  C   UNL     1      -1.282  12.606  20.566  0.00  0.00    +0.000 A 
ATOM     18  C   UNL     1      -0.697  11.430  21.108  0.00  0.00    +0.000 A 
ATOM     19  C   UNL     1       0.168  10.525  20.410  0.00  0.00    +0.000 A 
ATOM     20  O   UNL     1      -2.256  14.783  21.027  0.00  0.00    +0.000 OA
ATOM     21  C   UNL     1      -2.615  15.336  22.309  0.00  0.00    +0.000 C 
ATOM     22  O   UNL     1      -2.532  14.369  23.382  0.00  0.00    +0.000 OA
ENDROOT
BRANCH   6  23
ATOM     23  O   UNL     1       3.537   5.660  17.955  0.00  0.00    +0.000 OA
ATOM     24  C   UNL     1       3.475   4.338  17.496  0.00  0.00    +0.000 C 
ENDBRANCH   6  23
BRANCH   7  25
ATOM     25  O   UNL     1       2.346   4.877  20.971  0.00  0.00    +0.000 OA
ATOM     26  C   UNL     1       1.484   3.772  20.883  0.00  0.00    +0.000 C 
ENDBRANCH   7  25
BRANCH   1  27
ATOM     27  C   UNL     1       1.048  12.196  18.661  0.00  0.00    +0.000 C 
BRANCH  27  28
ATOM     28  C   UNL     1       2.221  12.984  19.262  0.00  0.00    +0.000 C 
BRANCH  28  30
ATOM     29  C   UNL     1       1.870  14.379  21.309  0.00  0.00    +0.000 C 
ATOM     30  C   UNL     1       1.825  14.361  19.789  0.00  0.00    +0.000 C 
ENDBRANCH  28  30
ENDBRANCH  27  28
ENDBRANCH   1  27
TORSDOF 5
ENDMDL
MODEL 2
REMARK VINA RESULT:      -6.3      2.227      7.899
REMARK  Name = 
REMARK  8 active torsions:
REMARK  status: ('A' for Active; 'I' for Inactive)
REMARK    1  A    between atoms: C_1  and  C_2
REMARK    2  A    between atoms: C_2  and  C_3
REMARK    3  A    between atoms: C_3  and  C_4
REMARK    4  A    between atoms: C_4  and  N_5
REMARK    5  A    between atoms: C_10  and  O_11
REMARK    6  A    between atoms: O_11  and  C_12
REMARK    7  A    between atoms: C_13  and  O_14
REMARK    8  A    between atoms: O_14  and  C_15
REMARK                            x       y       z     vdW  Elec       q    Type
REMARK                         _______ _______ _______ _____ _____    ______ ____
ROOT
ATOM      1  N   UNL     1      -1.374  11.280  19.410  0.00  0.00    +0.000 N 
ATOM      2  C   UNL     1      -2.259  12.346  19.633  0.00  0.00    +0.000 A 
ATOM      3  O   UNL     1      -2.920  12.876  18.736  0.00  0.00    +0.000 OA
ATOM      4  C   UNL     1      -2.456  12.836  21.006  0.00  0.00    +0.000 A 
ATOM      5  C   UNL     1      -3.377  13.869  21.227  0.00  0.00    +0.000 A 
ATOM      6  C   UNL     1      -3.697  14.380  22.501  0.00  0.00    +0.000 A 
ATOM      7  C   UNL     1      -3.040  13.806  23.590  0.00  0.00    +0.000 A 
ATOM      8  C   UNL     1      -2.098  12.753  23.340  0.00  0.00    +0.000 A 
ATOM      9  C   UNL     1      -1.789  12.248  22.062  0.00  0.00    +0.000 A 
ATOM     10  C   UNL     1      -0.831  11.167  21.788  0.00  0.00    +0.000 A 
ATOM     11  N   UNL     1      -0.265  10.564  22.851  0.00  0.00    +0.000 NA
ATOM     12  N   UNL     1       0.575   9.488  22.675  0.00  0.00    +0.000 NA
ATOM     13  C   UNL     1       0.945   9.086  21.454  0.00  0.00    +0.000 A 
ATOM     14  C   UNL     1       1.771   7.961  21.331  0.00  0.00    +0.000 A 
ATOM     15  C   UNL     1       2.153   7.535  20.079  0.00  0.00    +0.000 A 
ATOM     16  C   UNL     1       1.836   8.258  18.972  0.00  0.00    +0.000 A 
ATOM     17  C   UNL     1       1.084   9.405  19.063  0.00  0.00    +0.000 A 
ATOM     18  C   UNL     1       0.486   9.770  20.299  0.00  0.00    +0.000 A 
ATOM     19  C   UNL     1      -0.542  10.753  20.476  0.00  0.00    +0.000 A 
ATOM     20  O   UNL     1       2.292   7.703  17.819  0.00  0.00    +0.000 OA
ATOM     21  C   UNL     1       2.874   6.486  18.327  0.00  0.00    +0.000 C 
ATOM     22  O   UNL     1       2.864   6.417  19.772  0.00  0.00    +0.000 OA
ENDROOT
BRANCH   6  23
ATOM     23  O   UNL     1      -4.619  15.349  22.294  0.00  0.00    +0.000 OA
ATOM     24  C   UNL     1      -5.563  15.880  23.182  0.00  0.00    +0.000 C 
ENDBRANCH   6  23
BRANCH   7  25
ATOM     25  O   UNL     1      -3.081  14.012  24.935  0.00  0.00    +0.000 OA
ATOM     26  C   UNL     1      -2.588  15.159  25.579  0.00  0.00    +0.000 C 
ENDBRANCH   7  25
BRANCH   1  27
ATOM     27  C   UNL     1      -1.519  10.637  18.098  0.00  0.00    +0.000 C 
BRANCH  27  28
ATOM     28  C   UNL     1      -2.763   9.756  17.912  0.00  0.00    +0.000 C 
BRANCH  28  30
ATOM     29  C   UNL     1      -2.759  10.793  15.635  0.00  0.00    +0.000 C 
ATOM     30  C   UNL     1      -3.621  10.157  16.715  0.00  0.00    +0.000 C 
ENDBRANCH  28  30
ENDBRANCH  27  28
ENDBRANCH   1  27
TORSDOF 5
ENDMDL
MODEL 3
REMARK VINA RESULT:      -6.2      3.483      8.089
REMARK  Name = 
REMARK  8 active torsions:
REMARK  status: ('A' for Active; 'I' for Inactive)
REMARK    1  A    between atoms: C_1  and  C_2
REMARK    2  A    between atoms: C_2  and  C_3
REMARK    3  A    between atoms: C_3  and  C_4
REMARK    4  A    between atoms: C_4  and  N_5
REMARK    5  A    between atoms: C_10  and  O_11
REMARK    6  A    between atoms: O_11  and  C_12
REMARK    7  A    between atoms: C_13  and  O_14
REMARK    8  A    between atoms: O_14  and  C_15
REMARK                            x       y       z     vdW  Elec       q    Type
REMARK                         _______ _______ _______ _____ _____    ______ ____
ROOT
ATOM      1  N   UNL     1      -0.874  12.553  20.300  0.00  0.00    +0.000 N 
ATOM      2  C   UNL     1      -0.404  13.094  21.506  0.00  0.00    +0.000 A 
ATOM      3  O   UNL     1       0.792  13.139  21.806  0.00  0.00    +0.000 OA
ATOM      4  C   UNL     1      -1.367  13.685  22.448  0.00  0.00    +0.000 A 
ATOM      5  C   UNL     1      -0.884  14.267  23.628  0.00  0.00    +0.000 A 
ATOM      6  C   UNL     1      -1.699  14.917  24.576  0.00  0.00    +0.000 A 
ATOM      7  C   UNL     1      -3.066  14.968  24.299  0.00  0.00    +0.000 A 
ATOM      8  C   UNL     1      -3.538  14.363  23.087  0.00  0.00    +0.000 A 
ATOM      9  C   UNL     1      -2.713  13.718  22.145  0.00  0.00    +0.000 A 
ATOM     10  C   UNL     1      -3.179  13.096  20.897  0.00  0.00    +0.000 A 
ATOM     11  N   UNL     1      -4.486  13.224  20.599  0.00  0.00    +0.000 NA
ATOM     12  N   UNL     1      -4.978  12.743  19.407  0.00  0.00    +0.000 NA
ATOM     13  C   UNL     1      -4.208  12.039  18.569  0.00  0.00    +0.000 A 
ATOM     14  C   UNL     1      -4.748  11.607  17.351  0.00  0.00    +0.000 A 
ATOM     15  C   UNL     1      -3.963  10.886  16.479  0.00  0.00    +0.000 A 
ATOM     16  C   UNL     1      -2.711  10.492  16.835  0.00  0.00    +0.000 A 
ATOM     17  C   UNL     1      -2.175  10.841  18.051  0.00  0.00    +0.000 A 
ATOM     18  C   UNL     1      -2.856  11.759  18.895  0.00  0.00    +0.000 A 
ATOM     19  C   UNL     1      -2.296  12.429  20.031  0.00  0.00    +0.000 A 
ATOM     20  O   UNL     1      -2.074   9.787  15.865  0.00  0.00    +0.000 OA
ATOM     21  C   UNL     1      -3.054   9.851  14.808  0.00  0.00    +0.000 C 
ATOM     22  O   UNL     1      -4.291  10.476  15.225  0.00  0.00    +0.000 OA
ENDROOT
BRANCH   6  23
ATOM     23  O   UNL     1      -0.867  15.343  25.555  0.00  0.00    +0.000 OA
ATOM     24  C   UNL     1      -1.027  16.401  26.459  0.00  0.00    +0.000 C 
ENDBRANCH   6  23
BRANCH   7  25
ATOM     25  O   UNL     1      -4.142  15.497  24.943  0.00  0.00    +0.000 OA
ATOM     26  C   UNL     1      -4.730  16.733  24.628  0.00  0.00    +0.000 C 
ENDBRANCH   7  25
BRANCH   1  27
ATOM     27  C   UNL     1       0.167  12.326  19.290  0.00  0.00    +0.000 C 
BRANCH  27  28
ATOM     28  C   UNL     1       1.011  11.056  19.464  0.00  0.00    +0.000 C 
BRANCH  28  30
ATOM     29  C   UNL     1       1.487   9.168  17.893  0.00  0.00    +0.000 C 
ATOM     30  C   UNL     1       1.749  10.636  18.195  0.00  0.00    +0.000 C 
ENDBRANCH  28  30
ENDBRANCH  27  28
ENDBRANCH   1  27
TORSDOF 5
ENDMDL
MODEL 4
REMARK VINA RESULT:      -6.1      3.741      6.359
REMARK  Name = 
REMARK  8 active torsions:
REMARK  status: ('A' for Active; 'I' for Inactive)
REMARK    1  A    between atoms: C_1  and  C_2
REMARK    2  A    between atoms: C_2  and  C_3
REMARK    3  A    between atoms: C_3  and  C_4
REMARK    4  A    between atoms: C_4  and  N_5
REMARK    5  A    between atoms: C_10  and  O_11
REMARK    6  A    between atoms: O_11  and  C_12
REMARK    7  A    between atoms: C_13  and  O_14
REMARK    8  A    between atoms: O_14  and  C_15
REMARK                            x       y       z     vdW  Elec       q    Type
REMARK                         _______ _______ _______ _____ _____    ______ ____
ROOT
ATOM      1  N   UNL     1      -1.389  12.237  21.057  0.00  0.00    +0.000 N 
ATOM      2  C   UNL     1      -1.422  11.486  19.873  0.00  0.00    +0.000 A 
ATOM      3  O   UNL     1      -0.526  10.707  19.540  0.00  0.00    +0.000 OA
ATOM      4  C   UNL     1      -2.601  11.585  18.997  0.00  0.00    +0.000 A 
ATOM      5  C   UNL     1      -2.648  10.795  17.840  0.00  0.00    +0.000 A 
ATOM      6  C   UNL     1      -3.746  10.757  16.957  0.00  0.00    +0.000 A 
ATOM      7  C   UNL     1      -4.838  11.565  17.278  0.00  0.00    +0.000 A 
ATOM      8  C   UNL     1      -4.766  12.368  18.465  0.00  0.00    +0.000 A 
ATOM      9  C   UNL     1      -3.663  12.396  19.342  0.00  0.00    +0.000 A 
ATOM     10  C   UNL     1      -3.574  13.209  20.564  0.00  0.00    +0.000 A 
ATOM     11  N   UNL     1      -4.664  13.921  20.907  0.00  0.00    +0.000 NA
ATOM     12  N   UNL     1      -4.685  14.636  22.083  0.00  0.00    +0.000 NA
ATOM     13  C   UNL     1      -3.596  14.742  22.854  0.00  0.00    +0.000 A 
ATOM     14  C   UNL     1      -3.683  15.450  24.059  0.00  0.00    +0.000 A 
ATOM     15  C   UNL     1      -2.571  15.560  24.862  0.00  0.00    +0.000 A 
ATOM     16  C   UNL     1      -1.364  15.091  24.446  0.00  0.00    +0.000 A 
ATOM     17  C   UNL     1      -1.229  14.451  23.237  0.00  0.00    +0.000 A 
ATOM     18  C   UNL     1      -2.379  14.122  22.470  0.00  0.00    +0.000 A 
ATOM     19  C   UNL     1      -2.417  13.216  21.361  0.00  0.00    +0.000 A 
ATOM     20  O   UNL     1      -0.372  15.283  25.352  0.00  0.00    +0.000 OA
ATOM     21  C   UNL     1      -1.119  15.865  26.439  0.00  0.00    +0.000 C 
ATOM     22  O   UNL     1      -2.501  16.122  26.099  0.00  0.00    +0.000 OA
ENDROOT
BRANCH   6  23
ATOM     23  O   UNL     1      -3.411   9.881  15.981  0.00  0.00    +0.000 OA
ATOM     24  C   UNL     1      -3.471  10.035  14.591  0.00  0.00    +0.000 C 
ENDBRANCH   6  23
BRANCH   7  25
ATOM     25  O   UNL     1      -6.049  11.792  16.699  0.00  0.00    +0.000 OA
ATOM     26  C   UNL     1      -6.914  12.841  17.049  0.00  0.00    +0.000 C 
ENDBRANCH   7  25
BRANCH   1  27
ATOM     27  C   UNL     1      -0.369  11.805  22.020  0.00  0.00    +0.000 C 
BRANCH  27  28
ATOM     28  C   UNL     1      -0.828  10.795  23.082  0.00  0.00    +0.000 C 
BRANCH  28  30
ATOM     29  C   UNL     1       1.035   9.302  22.333  0.00  0.00    +0.000 C 
ATOM     30  C   UNL     1      -0.421   9.357  22.772  0.00  0.00    +0.000 C 
ENDBRANCH  28  30
ENDBRANCH  27  28
ENDBRANCH   1  27
TORSDOF 5
ENDMDL
MODEL 5
REMARK VINA RESULT:      -6.0      0.980      1.659
REMARK  Name = 
REMARK  8 active torsions:
REMARK  status: ('A' for Active; 'I' for Inactive)
REMARK    1  A    between atoms: C_1  and  C_2
REMARK    2  A    between atoms: C_2  and  C_3
REMARK    3  A    between atoms: C_3  and  C_4
REMARK    4  A    between atoms: C_4  and  N_5
REMARK    5  A    between atoms: C_10  and  O_11
REMARK    6  A    between atoms: O_11  and  C_12
REMARK    7  A    between atoms: C_13  and  O_14
REMARK    8  A    between atoms: O_14  and  C_15
REMARK                            x       y       z     vdW  Elec       q    Type
REMARK                         _______ _______ _______ _____ _____    ______ ____
ROOT
ATOM      1  N   UNL     1       0.456  10.949  19.326  0.00  0.00    +0.000 N 
ATOM      2  C   UNL     1       1.193  10.022  18.574  0.00  0.00    +0.000 A 
ATOM      3  O   UNL     1       1.632  10.263  17.447  0.00  0.00    +0.000 OA
ATOM      4  C   UNL     1       1.509   8.712  19.164  0.00  0.00    +0.000 A 
ATOM      5  C   UNL     1       2.287   7.811  18.425  0.00  0.00    +0.000 A 
ATOM      6  C   UNL     1       2.705   6.553  18.905  0.00  0.00    +0.000 A 
ATOM      7  C   UNL     1       2.305   6.210  20.198  0.00  0.00    +0.000 A 
ATOM      8  C   UNL     1       1.505   7.147  20.934  0.00  0.00    +0.000 A 
ATOM      9  C   UNL     1       1.096   8.403  20.444  0.00  0.00    +0.000 A 
ATOM     10  C   UNL     1       0.281   9.376  21.186  0.00  0.00    +0.000 A 
ATOM     11  N   UNL     1      -0.030   9.070  22.461  0.00  0.00    +0.000 NA
ATOM     12  N   UNL     1      -0.715   9.971  23.244  0.00  0.00    +0.000 NA
ATOM     13  C   UNL     1      -1.192  11.114  22.737  0.00  0.00    +0.000 A 
ATOM     14  C   UNL     1      -1.849  12.012  23.587  0.00  0.00    +0.000 A 
ATOM     15  C   UNL     1      -2.339  13.194  23.078  0.00  0.00    +0.000 A 
ATOM     16  C   UNL     1      -2.294  13.445  21.742  0.00  0.00    +0.000 A 
ATOM     17  C   UNL     1      -1.718  12.554  20.869  0.00  0.00    +0.000 A 
ATOM     18  C   UNL     1      -1.010  11.425  21.365  0.00  0.00    +0.000 A 
ATOM     19  C   UNL     1      -0.127  10.589  20.607  0.00  0.00    +0.000 A 
ATOM     20  O   UNL     1      -2.822  14.650  21.405  0.00  0.00    +0.000 OA
ATOM     21  C   UNL     1      -3.138  15.172  22.711  0.00  0.00    +0.000 C 
ATOM     22  O   UNL     1      -2.910  14.214  23.771  0.00  0.00    +0.000 OA
ENDROOT
BRANCH   6  23
ATOM     23  O   UNL     1       3.433   5.996  17.910  0.00  0.00    +0.000 OA
ATOM     24  C   UNL     1       4.073   4.751  17.867  0.00  0.00    +0.000 C 
ENDBRANCH   6  23
BRANCH   7  25
ATOM     25  O   UNL     1       2.507   5.124  20.993  0.00  0.00    +0.000 OA
ATOM     26  C   UNL     1       1.763   3.935  20.918  0.00  0.00    +0.000 C 
ENDBRANCH   7  25
BRANCH   1  27
ATOM     27  C   UNL     1       0.506  12.323  18.813  0.00  0.00    +0.000 C 
BRANCH  27  28
ATOM     28  C   UNL     1      -0.720  12.792  18.018  0.00  0.00    +0.000 C 
BRANCH  28  30
ATOM     29  C   UNL     1      -2.926  11.627  17.817  0.00  0.00    +0.000 C 
ATOM     30  C   UNL     1      -1.480  11.654  17.342  0.00  0.00    +0.000 C 
ENDBRANCH  28  30
ENDBRANCH  27  28
ENDBRANCH   1  27
TORSDOF 5
ENDMDL
MODEL 6
REMARK VINA RESULT:      -6.0      1.998      7.809
REMARK  Name = 
REMARK  8 active torsions:
REMARK  status: ('A' for Active; 'I' for Inactive)
REMARK    1  A    between atoms: C_1  and  C_2
REMARK    2  A    between atoms: C_2  and  C_3
REMARK    3  A    between atoms: C_3  and  C_4
REMARK    4  A    between atoms: C_4  and  N_5
REMARK    5  A    between atoms: C_10  and  O_11
REMARK    6  A    between atoms: O_11  and  C_12
REMARK    7  A    between atoms: C_13  and  O_14
REMARK    8  A    between atoms: O_14  and  C_15
REMARK                            x       y       z     vdW  Elec       q    Type
REMARK                         _______ _______ _______ _____ _____    ______ ____
ROOT
ATOM      1  N   UNL     1      -0.662  11.286  19.244  0.00  0.00    +0.000 N 
ATOM      2  C   UNL     1      -1.352  12.495  19.413  0.00  0.00    +0.000 A 
ATOM      3  O   UNL     1      -1.905  13.094  18.488  0.00  0.00    +0.000 OA
ATOM      4  C   UNL     1      -1.472  13.066  20.764  0.00  0.00    +0.000 A 
ATOM      5  C   UNL     1      -2.204  14.250  20.932  0.00  0.00    +0.000 A 
ATOM      6  C   UNL     1      -2.440  14.859  22.181  0.00  0.00    +0.000 A 
ATOM      7  C   UNL     1      -1.900  14.225  23.301  0.00  0.00    +0.000 A 
ATOM      8  C   UNL     1      -1.152  13.017  23.104  0.00  0.00    +0.000 A 
ATOM      9  C   UNL     1      -0.924  12.415  21.851  0.00  0.00    +0.000 A 
ATOM     10  C   UNL     1      -0.164  11.176  21.632  0.00  0.00    +0.000 A 
ATOM     11  N   UNL     1       0.281  10.529  22.725  0.00  0.00    +0.000 NA
ATOM     12  N   UNL     1       0.925   9.318  22.603  0.00  0.00    +0.000 NA
ATOM     13  C   UNL     1       1.230   8.809  21.403  0.00  0.00    +0.000 A 
ATOM     14  C   UNL     1       1.851   7.556  21.335  0.00  0.00    +0.000 A 
ATOM     15  C   UNL     1       2.164   7.020  20.106  0.00  0.00    +0.000 A 
ATOM     16  C   UNL     1       1.983   7.742  18.967  0.00  0.00    +0.000 A 
ATOM     17  C   UNL     1       1.439   9.004  19.004  0.00  0.00    +0.000 A 
ATOM     18  C   UNL     1       0.904   9.516  20.217  0.00  0.00    +0.000 A 
ATOM     19  C   UNL     1       0.059  10.666  20.341  0.00  0.00    +0.000 A 
ATOM     20  O   UNL     1       2.346   7.072  17.843  0.00  0.00    +0.000 OA
ATOM     21  C   UNL     1       2.707   5.795  18.405  0.00  0.00    +0.000 C 
ATOM     22  O   UNL     1       2.674   5.786  19.852  0.00  0.00    +0.000 OA
ENDROOT
BRANCH   6  23
ATOM     23  O   UNL     1      -3.181  15.962  21.924  0.00  0.00    +0.000 OA
ATOM     24  C   UNL     1      -2.962  17.290  22.313  0.00  0.00    +0.000 C 
ENDBRANCH   6  23
BRANCH   7  25
ATOM     25  O   UNL     1      -1.915  14.489  24.636  0.00  0.00    +0.000 OA
ATOM     26  C   UNL     1      -3.006  15.046  25.324  0.00  0.00    +0.000 C 
ENDBRANCH   7  25
BRANCH   1  27
ATOM     27  C   UNL     1      -0.906  10.624  17.955  0.00  0.00    +0.000 C 
BRANCH  27  28
ATOM     28  C   UNL     1      -2.181   9.774  17.864  0.00  0.00    +0.000 C 
BRANCH  28  30
ATOM     29  C   UNL     1      -2.766  10.184  15.466  0.00  0.00    +0.000 C 
ATOM     30  C   UNL     1      -3.226  10.343  16.907  0.00  0.00    +0.000 C 
ENDBRANCH  28  30
ENDBRANCH  27  28
ENDBRANCH   1  27
TORSDOF 5
ENDMDL
MODEL 7
REMARK VINA RESULT:      -6.0      4.428      8.133
REMARK  Name = 
REMARK  8 active torsions:
REMARK  status: ('A' for Active; 'I' for Inactive)
REMARK    1  A    between atoms: C_1  and  C_2
REMARK    2  A    between atoms: C_2  and  C_3
REMARK    3  A    between atoms: C_3  and  C_4
REMARK    4  A    between atoms: C_4  and  N_5
REMARK    5  A    between atoms: C_10  and  O_11
REMARK    6  A    between atoms: O_11  and  C_12
REMARK    7  A    between atoms: C_13  and  O_14
REMARK    8  A    between atoms: O_14  and  C_15
REMARK                            x       y       z     vdW  Elec       q    Type
REMARK                         _______ _______ _______ _____ _____    ______ ____
ROOT
ATOM      1  N   UNL     1      -1.182  12.483  20.402  0.00  0.00    +0.000 N 
ATOM      2  C   UNL     1      -0.795  13.013  21.641  0.00  0.00    +0.000 A 
ATOM      3  O   UNL     1       0.372  13.018  22.040  0.00  0.00    +0.000 OA
ATOM      4  C   UNL     1      -1.812  13.642  22.499  0.00  0.00    +0.000 A 
ATOM      5  C   UNL     1      -1.408  14.212  23.714  0.00  0.00    +0.000 A 
ATOM      6  C   UNL     1      -2.276  14.894  24.591  0.00  0.00    +0.000 A 
ATOM      7  C   UNL     1      -3.613  14.992  24.200  0.00  0.00    +0.000 A 
ATOM      8  C   UNL     1      -4.003  14.398  22.954  0.00  0.00    +0.000 A 
ATOM      9  C   UNL     1      -3.126  13.720  22.085  0.00  0.00    +0.000 A 
ATOM     10  C   UNL     1      -3.508  13.110  20.803  0.00  0.00    +0.000 A 
ATOM     11  N   UNL     1      -4.781  13.281  20.398  0.00  0.00    +0.000 NA
ATOM     12  N   UNL     1      -5.188  12.813  19.169  0.00  0.00    +0.000 NA
ATOM     13  C   UNL     1      -4.377  12.079  18.399  0.00  0.00    +0.000 A 
ATOM     14  C   UNL     1      -4.828  11.660  17.142  0.00  0.00    +0.000 A 
ATOM     15  C   UNL     1      -3.999  10.909  16.338  0.00  0.00    +0.000 A 
ATOM     16  C   UNL     1      -2.796  10.473  16.798  0.00  0.00    +0.000 A 
ATOM     17  C   UNL     1      -2.351  10.808  18.054  0.00  0.00    +0.000 A 
ATOM     18  C   UNL     1      -3.067  11.753  18.838  0.00  0.00    +0.000 A 
ATOM     19  C   UNL     1      -2.580  12.408  20.015  0.00  0.00    +0.000 A 
ATOM     20  O   UNL     1      -2.106   9.742  15.885  0.00  0.00    +0.000 OA
ATOM     21  C   UNL     1      -2.991   9.835  14.751  0.00  0.00    +0.000 C 
ATOM     22  O   UNL     1      -4.236  10.504  15.062  0.00  0.00    +0.000 OA
ENDROOT
BRANCH   6  23
ATOM     23  O   UNL     1      -1.514  15.295  25.634  0.00  0.00    +0.000 OA
ATOM     24  C   UNL     1      -1.297  16.586  26.132  0.00  0.00    +0.000 C 
ENDBRANCH   6  23
BRANCH   7  25
ATOM     25  O   UNL     1      -4.719  15.561  24.752  0.00  0.00    +0.000 OA
ATOM     26  C   UNL     1      -5.878  15.904  24.036  0.00  0.00    +0.000 C 
ENDBRANCH   7  25
BRANCH   1  27
ATOM     27  C   UNL     1      -0.069  12.216  19.482  0.00  0.00    +0.000 C 
BRANCH  27  28
ATOM     28  C   UNL     1       0.172  13.270  18.391  0.00  0.00    +0.000 C 
BRANCH  28  30
ATOM     29  C   UNL     1      -0.247  15.664  18.984  0.00  0.00    +0.000 C 
ATOM     30  C   UNL     1       0.797  14.560  18.917  0.00  0.00    +0.000 C 
ENDBRANCH  28  30
ENDBRANCH  27  28
ENDBRANCH   1  27
TORSDOF 5
ENDMDL
MODEL 8
REMARK VINA RESULT:      -6.0      2.015      7.941
REMARK  Name = 
REMARK  8 active torsions:
REMARK  status: ('A' for Active; 'I' for Inactive)
REMARK    1  A    between atoms: C_1  and  C_2
REMARK    2  A    between atoms: C_2  and  C_3
REMARK    3  A    between atoms: C_3  and  C_4
REMARK    4  A    between atoms: C_4  and  N_5
REMARK    5  A    between atoms: C_10  and  O_11
REMARK    6  A    between atoms: O_11  and  C_12
REMARK    7  A    between atoms: C_13  and  O_14
REMARK    8  A    between atoms: O_14  and  C_15
REMARK                            x       y       z     vdW  Elec       q    Type
REMARK                         _______ _______ _______ _____ _____    ______ ____
ROOT
ATOM      1  N   UNL     1      -0.356  12.593  19.664  0.00  0.00    +0.000 N 
ATOM      2  C   UNL     1      -0.906  13.853  19.943  0.00  0.00    +0.000 A 
ATOM      3  O   UNL     1      -1.184  14.678  19.069  0.00  0.00    +0.000 OA
ATOM      4  C   UNL     1      -1.218  14.204  21.338  0.00  0.00    +0.000 A 
ATOM      5  C   UNL     1      -1.812  15.445  21.602  0.00  0.00    +0.000 A 
ATOM      6  C   UNL     1      -2.212  15.869  22.886  0.00  0.00    +0.000 A 
ATOM      7  C   UNL     1      -1.991  14.979  23.938  0.00  0.00    +0.000 A 
ATOM      8  C   UNL     1      -1.378  13.715  23.644  0.00  0.00    +0.000 A 
ATOM      9  C   UNL     1      -0.985  13.302  22.356  0.00  0.00    +0.000 A 
ATOM     10  C   UNL     1      -0.360  12.010  22.036  0.00  0.00    +0.000 A 
ATOM     11  N   UNL     1      -0.227  11.127  23.043  0.00  0.00    +0.000 NA
ATOM     12  N   UNL     1       0.269   9.866  22.802  0.00  0.00    +0.000 NA
ATOM     13  C   UNL     1       0.739   9.521  21.597  0.00  0.00    +0.000 A 
ATOM     14  C   UNL     1       1.196   8.213  21.396  0.00  0.00    +0.000 A 
ATOM     15  C   UNL     1       1.676   7.845  20.159  0.00  0.00    +0.000 A 
ATOM     16  C   UNL     1       1.819   8.765  19.168  0.00  0.00    +0.000 A 
ATOM     17  C   UNL     1       1.444  10.074  19.353  0.00  0.00    +0.000 A 
ATOM     18  C   UNL     1       0.747  10.457  20.531  0.00  0.00    +0.000 A 
ATOM     19  C   UNL     1       0.048  11.692  20.728  0.00  0.00    +0.000 A 
ATOM     20  O   UNL     1       2.309   8.241  18.015  0.00  0.00    +0.000 OA
ATOM     21  C   UNL     1       2.386   6.847  18.373  0.00  0.00    +0.000 C 
ATOM     22  O   UNL     1       2.066   6.604  19.763  0.00  0.00    +0.000 OA
ENDROOT
BRANCH   6  23
ATOM     23  O   UNL     1      -2.741  17.104  22.724  0.00  0.00    +0.000 OA
ATOM     24  C   UNL     1      -3.147  18.031  23.692  0.00  0.00    +0.000 C 
ENDBRANCH   6  23
BRANCH   7  25
ATOM     25  O   UNL     1      -2.237  15.017  25.276  0.00  0.00    +0.000 OA
ATOM     26  C   UNL     1      -1.421  15.668  26.217  0.00  0.00    +0.000 C 
ENDBRANCH   7  25
BRANCH   1  27
ATOM     27  C   UNL     1      -0.421  12.203  18.250  0.00  0.00    +0.000 C 
BRANCH  27  28
ATOM     28  C   UNL     1      -1.767  11.645  17.765  0.00  0.00    +0.000 C 
BRANCH  28  30
ATOM     29  C   UNL     1      -2.695   9.890  16.242  0.00  0.00    +0.000 C 
ATOM     30  C   UNL     1      -1.709  10.173  17.366  0.00  0.00    +0.000 C 
ENDBRANCH  28  30
ENDBRANCH  27  28
ENDBRANCH   1  27
TORSDOF 5
ENDMDL
MODEL 9
REMARK VINA RESULT:      -5.9      2.160      4.399
REMARK  Name = 
REMARK  8 active torsions:
REMARK  status: ('A' for Active; 'I' for Inactive)
REMARK    1  A    between atoms: C_1  and  C_2
REMARK    2  A    between atoms: C_2  and  C_3
REMARK    3  A    between atoms: C_3  and  C_4
REMARK    4  A    between atoms: C_4  and  N_5
REMARK    5  A    between atoms: C_10  and  O_11
REMARK    6  A    between atoms: O_11  and  C_12
REMARK    7  A    between atoms: C_13  and  O_14
REMARK    8  A    between atoms: O_14  and  C_15
REMARK                            x       y       z     vdW  Elec       q    Type
REMARK                         _______ _______ _______ _____ _____    ______ ____
ROOT
ATOM      1  N   UNL     1      -0.395  11.984  22.153  0.00  0.00    +0.000 N 
ATOM      2  C   UNL     1      -0.001  10.650  22.339  0.00  0.00    +0.000 A 
ATOM      3  O   UNL     1      -0.185  10.030  23.390  0.00  0.00    +0.000 OA
ATOM      4  C   UNL     1       0.621   9.926  21.219  0.00  0.00    +0.000 A 
ATOM      5  C   UNL     1       0.968   8.580  21.398  0.00  0.00    +0.000 A 
ATOM      6  C   UNL     1       1.512   7.766  20.384  0.00  0.00    +0.000 A 
ATOM      7  C   UNL     1       1.707   8.363  19.137  0.00  0.00    +0.000 A 
ATOM      8  C   UNL     1       1.348   9.743  18.979  0.00  0.00    +0.000 A 
ATOM      9  C   UNL     1       0.802  10.546  19.999  0.00  0.00    +0.000 A 
ATOM     10  C   UNL     1       0.425  11.959  19.853  0.00  0.00    +0.000 A 
ATOM     11  N   UNL     1       0.540  12.501  18.626  0.00  0.00    +0.000 NA
ATOM     12  N   UNL     1       0.124  13.793  18.394  0.00  0.00    +0.000 NA
ATOM     13  C   UNL     1      -0.292  14.580  19.392  0.00  0.00    +0.000 A 
ATOM     14  C   UNL     1      -0.740  15.873  19.096  0.00  0.00    +0.000 A 
ATOM     15  C   UNL     1      -1.177  16.690  20.115  0.00  0.00    +0.000 A 
ATOM     16  C   UNL     1      -1.068  16.300  21.413  0.00  0.00    +0.000 A 
ATOM     17  C   UNL     1      -0.569  15.063  21.744  0.00  0.00    +0.000 A 
ATOM     18  C   UNL     1      -0.306  14.104  20.729  0.00  0.00    +0.000 A 
ATOM     19  C   UNL     1      -0.070  12.706  20.937  0.00  0.00    +0.000 A 
ATOM     20  O   UNL     1      -1.538  17.222  22.292  0.00  0.00    +0.000 OA
ATOM     21  C   UNL     1      -2.037  18.222  21.381  0.00  0.00    +0.000 C 
ATOM     22  O   UNL     1      -1.731  17.926  19.998  0.00  0.00    +0.000 OA
ENDROOT
BRANCH   6  23
ATOM     23  O   UNL     1       1.699   6.548  20.943  0.00  0.00    +0.000 OA
ATOM     24  C   UNL     1       1.974   5.321  20.327  0.00  0.00    +0.000 C 
ENDBRANCH   6  23
BRANCH   7  25
ATOM     25  O   UNL     1       2.187   7.920  17.942  0.00  0.00    +0.000 OA
ATOM     26  C   UNL     1       3.516   7.525  17.716  0.00  0.00    +0.000 C 
ENDBRANCH   7  25
BRANCH   1  27
ATOM     27  C   UNL     1      -1.315  12.492  23.179  0.00  0.00    +0.000 C 
BRANCH  27  28
ATOM     28  C   UNL     1      -2.812  12.292  22.902  0.00  0.00    +0.000 C 
BRANCH  28  30
ATOM     29  C   UNL     1      -5.067  13.054  23.672  0.00  0.00    +0.000 C 
ATOM     30  C   UNL     1      -3.698  12.561  24.116  0.00  0.00    +0.000 C 
ENDBRANCH  28  30
ENDBRANCH  27  28
ENDBRANCH   1  27
TORSDOF 5
ENDMDL
