MODEL 1
REMARK VINA RESULT:      -7.8      0.000      0.000
REMARK  Name = 
REMARK  3 active torsions:
REMARK  status: ('A' for Active; 'I' for Inactive)
REMARK    1  A    between atoms: C_1  and  N_2
REMARK    2  A    between atoms: C_11  and  C_12
REMARK    3  A    between atoms: N_22  and  C_23
REMARK                            x       y       z     vdW  Elec       q    Type
REMARK                         _______ _______ _______ _____ _____    ______ ____
ROOT
ATOM      1  C   UNL     1      -1.567  17.198  23.269  0.00  0.00    +0.000 C 
ATOM      2  N   UNL     1      -1.831  15.798  22.944  0.00  0.00    +0.000 NA
ATOM      3  C   UNL     1      -1.292  14.909  24.000  0.00  0.00    +0.000 C 
ATOM      4  C   UNL     1      -1.488  13.409  23.678  0.00  0.00    +0.000 C 
ATOM      5  N   UNL     1      -0.890  13.122  22.370  0.00  0.00    +0.000 N 
ATOM      6  C   UNL     1      -0.458  11.847  22.096  0.00  0.00    +0.000 A 
ATOM      7  N   UNL     1      -0.470  10.942  23.090  0.00  0.00    +0.000 NA
ATOM      8  C   UNL     1       0.031   9.719  22.833  0.00  0.00    +0.000 A 
ATOM      9  C   UNL     1       0.561   9.342  21.626  0.00  0.00    +0.000 A 
ATOM     10  N   UNL     1       1.072   8.047  21.445  0.00  0.00    +0.000 NA
ATOM     11  C   UNL     1       1.567   7.744  20.284  0.00  0.00    +0.000 A 
ATOM     12  C   UNL     1       1.553   8.739  19.115  0.00  0.00    +0.000 A 
ATOM     13  O   UNL     1       1.880   8.344  17.998  0.00  0.00    +0.000 OA
ATOM     14  N   UNL     1       1.155  10.037  19.407  0.00  0.00    +0.000 N 
ATOM     15  C   UNL     1       0.568  10.340  20.667  0.00  0.00    +0.000 A 
ATOM     16  N   UNL     1       0.051  11.572  20.883  0.00  0.00    +0.000 NA
ATOM     17  C   UNL     1      -1.399  13.949  21.277  0.00  0.00    +0.000 C 
ATOM     18  C   UNL     1      -1.211  15.441  21.645  0.00  0.00    +0.000 C 
ENDROOT
BRANCH  11  19
ATOM     19  C   UNL     1       2.174   6.397  20.090  0.00  0.00    +0.000 A 
ATOM     20  C   UNL     1       1.514   5.269  20.594  0.00  0.00    +0.000 A 
ATOM     21  C   UNL     1       2.090   4.008  20.445  0.00  0.00    +0.000 A 
ATOM     22  F   UNL     1       1.452   2.931  20.921  0.00  0.00    +0.000 F 
ATOM     23  C   UNL     1       3.314   3.848  19.812  0.00  0.00    +0.000 A 
ATOM     24  C   UNL     1       3.968   4.972  19.330  0.00  0.00    +0.000 A 
ATOM     25  F   UNL     1       5.156   4.836  18.729  0.00  0.00    +0.000 F 
ATOM     26  C   UNL     1       3.416   6.242  19.468  0.00  0.00    +0.000 A 
ENDBRANCH  11  19
BRANCH  14  27
ATOM     27  C   UNL     1       1.219  11.048  18.376  0.00  0.00    +0.000 C 
ATOM     28  C   UNL     1       1.535  12.497  18.654  0.00  0.00    +0.000 C 
ATOM     29  C   UNL     1       2.554  11.645  17.974  0.00  0.00    +0.000 C 
ENDBRANCH  14  27
TORSDOF 2
ENDMDL
MODEL 2
REMARK VINA RESULT:      -7.6      0.449      1.586
REMARK  Name = 
REMARK  3 active torsions:
REMARK  status: ('A' for Active; 'I' for Inactive)
REMARK    1  A    between atoms: C_1  and  N_2
REMARK    2  A    between atoms: C_11  and  C_12
REMARK    3  A    between atoms: N_22  and  C_23
REMARK                            x       y       z     vdW  Elec       q    Type
REMARK                         _______ _______ _______ _____ _____    ______ ____
ROOT
ATOM      1  C   UNL     1      -1.741  16.774  23.007  0.00  0.00    +0.000 C 
ATOM      2  N   UNL     1      -1.951  15.355  22.728  0.00  0.00    +0.000 NA
ATOM      3  C   UNL     1      -1.362  14.521  23.802  0.00  0.00    +0.000 C 
ATOM      4  C   UNL     1      -1.500  13.005  23.526  0.00  0.00    +0.000 C 
ATOM      5  N   UNL     1      -0.908  12.703  22.218  0.00  0.00    +0.000 N 
ATOM      6  C   UNL     1      -0.427  11.439  21.976  0.00  0.00    +0.000 A 
ATOM      7  N   UNL     1      -0.388  10.566  22.996  0.00  0.00    +0.000 NA
ATOM      8  C   UNL     1       0.159   9.357  22.767  0.00  0.00    +0.000 A 
ATOM      9  C   UNL     1       0.688   8.965  21.564  0.00  0.00    +0.000 A 
ATOM     10  N   UNL     1       1.250   7.688  21.413  0.00  0.00    +0.000 NA
ATOM     11  C   UNL     1       1.740   7.371  20.254  0.00  0.00    +0.000 A 
ATOM     12  C   UNL     1       1.669   8.329  19.057  0.00  0.00    +0.000 A 
ATOM     13  O   UNL     1       1.997   7.915  17.948  0.00  0.00    +0.000 OA
ATOM     14  N   UNL     1       1.222   9.618  19.317  0.00  0.00    +0.000 N 
ATOM     15  C   UNL     1       0.641   9.934  20.576  0.00  0.00    +0.000 A 
ATOM     16  N   UNL     1       0.076  11.149  20.764  0.00  0.00    +0.000 NA
ATOM     17  C   UNL     1      -1.467  13.476  21.110  0.00  0.00    +0.000 C 
ATOM     18  C   UNL     1      -1.335  14.985  21.430  0.00  0.00    +0.000 C 
ENDROOT
BRANCH  11  19
ATOM     19  C   UNL     1       2.400   6.044  20.091  0.00  0.00    +0.000 A 
ATOM     20  C   UNL     1       3.667   5.978  19.498  0.00  0.00    +0.000 A 
ATOM     21  C   UNL     1       4.279   4.739  19.312  0.00  0.00    +0.000 A 
ATOM     22  F   UNL     1       5.494   4.680  18.752  0.00  0.00    +0.000 F 
ATOM     23  C   UNL     1       3.650   3.563  19.696  0.00  0.00    +0.000 A 
ATOM     24  C   UNL     1       2.389   3.637  20.267  0.00  0.00    +0.000 A 
ATOM     25  F   UNL     1       1.763   2.512  20.631  0.00  0.00    +0.000 F 
ATOM     26  C   UNL     1       1.756   4.861  20.462  0.00  0.00    +0.000 A 
ENDBRANCH  11  19
BRANCH  14  27
ATOM     27  C   UNL     1       1.229  10.599  18.255  0.00  0.00    +0.000 C 
ATOM     28  C   UNL     1       1.489  12.067  18.487  0.00  0.00    +0.000 C 
ATOM     29  C   UNL     1       2.533  11.237  17.816  0.00  0.00    +0.000 C 
ENDBRANCH  14  27
TORSDOF 2
ENDMDL
MODEL 3
REMARK VINA RESULT:      -7.5      4.223      9.080
REMARK  Name = 
REMARK  3 active torsions:
REMARK  status: ('A' for Active; 'I' for Inactive)
REMARK    1  A    between atoms: C_1  and  N_2
REMARK    2  A    between atoms: C_11  and  C_12
REMARK    3  A    between atoms: N_22  and  C_23
REMARK                            x       y       z     vdW  Elec       q    Type
REMARK                         _______ _______ _______ _____ _____    ______ ____
ROOT
ATOM      1  C   UNL     1       4.036   2.257  20.124  0.00  0.00    +0.000 C 
ATOM      2  N   UNL     1       3.145   3.299  19.617  0.00  0.00    +0.000 NA
ATOM      3  C   UNL     1       3.853   4.156  18.638  0.00  0.00    +0.000 C 
ATOM      4  C   UNL     1       2.975   5.317  18.114  0.00  0.00    +0.000 C 
ATOM      5  N   UNL     1       2.479   6.092  19.256  0.00  0.00    +0.000 N 
ATOM      6  C   UNL     1       2.152   7.414  19.077  0.00  0.00    +0.000 A 
ATOM      7  N   UNL     1       2.431   7.986  17.894  0.00  0.00    +0.000 NA
ATOM      8  C   UNL     1       2.180   9.301  17.756  0.00  0.00    +0.000 A 
ATOM      9  C   UNL     1       1.667  10.096  18.749  0.00  0.00    +0.000 A 
ATOM     10  N   UNL     1       1.445  11.464  18.525  0.00  0.00    +0.000 NA
ATOM     11  C   UNL     1       0.963  12.171  19.501  0.00  0.00    +0.000 A 
ATOM     12  C   UNL     1       0.589  11.538  20.849  0.00  0.00    +0.000 A 
ATOM     13  O   UNL     1      -0.015  12.219  21.674  0.00  0.00    +0.000 OA
ATOM     14  N   UNL     1       0.961  10.214  21.039  0.00  0.00    +0.000 N 
ATOM     15  C   UNL     1       1.440   9.440  19.947  0.00  0.00    +0.000 A 
ATOM     16  N   UNL     1       1.658   8.115  20.112  0.00  0.00    +0.000 NA
ATOM     17  C   UNL     1       1.748   5.307  20.248  0.00  0.00    +0.000 C 
ATOM     18  C   UNL     1       2.645   4.141  20.730  0.00  0.00    +0.000 C 
ENDROOT
BRANCH  11  19
ATOM     19  C   UNL     1       0.780  13.637  19.305  0.00  0.00    +0.000 A 
ATOM     20  C   UNL     1       1.873  14.417  18.908  0.00  0.00    +0.000 A 
ATOM     21  C   UNL     1       1.719  15.793  18.753  0.00  0.00    +0.000 A 
ATOM     22  F   UNL     1       2.766  16.535  18.365  0.00  0.00    +0.000 F 
ATOM     23  C   UNL     1       0.501  16.412  18.995  0.00  0.00    +0.000 A 
ATOM     24  C   UNL     1      -0.571  15.634  19.404  0.00  0.00    +0.000 A 
ATOM     25  F   UNL     1      -1.750  16.217  19.655  0.00  0.00    +0.000 F 
ATOM     26  C   UNL     1      -0.444  14.258  19.568  0.00  0.00    +0.000 A 
ENDBRANCH  11  19
BRANCH  14  27
ATOM     27  C   UNL     1       0.733   9.590  22.324  0.00  0.00    +0.000 C 
ATOM     28  C   UNL     1      -0.371  10.009  23.263  0.00  0.00    +0.000 C 
ATOM     29  C   UNL     1      -0.482   8.709  22.539  0.00  0.00    +0.000 C 
ENDBRANCH  14  27
TORSDOF 2
ENDMDL
MODEL 4
REMARK VINA RESULT:      -7.5      4.229      8.973
REMARK  Name = 
REMARK  3 active torsions:
REMARK  status: ('A' for Active; 'I' for Inactive)
REMARK    1  A    between atoms: C_1  and  N_2
REMARK    2  A    between atoms: C_11  and  C_12
REMARK    3  A    between atoms: N_22  and  C_23
REMARK                            x       y       z     vdW  Elec       q    Type
REMARK                         _______ _______ _______ _____ _____    ______ ____
ROOT
ATOM      1  C   UNL     1       3.959   2.220  19.976  0.00  0.00    +0.000 C 
ATOM      2  N   UNL     1       3.083   3.282  19.488  0.00  0.00    +0.000 NA
ATOM      3  C   UNL     1       3.804   4.148  18.524  0.00  0.00    +0.000 C 
ATOM      4  C   UNL     1       2.942   5.329  18.021  0.00  0.00    +0.000 C 
ATOM      5  N   UNL     1       2.456   6.091  19.177  0.00  0.00    +0.000 N 
ATOM      6  C   UNL     1       2.146   7.420  19.022  0.00  0.00    +0.000 A 
ATOM      7  N   UNL     1       2.434   8.009  17.850  0.00  0.00    +0.000 NA
ATOM      8  C   UNL     1       2.201   9.330  17.735  0.00  0.00    +0.000 A 
ATOM      9  C   UNL     1       1.698  10.114  18.743  0.00  0.00    +0.000 A 
ATOM     10  N   UNL     1       1.495  11.488  18.544  0.00  0.00    +0.000 NA
ATOM     11  C   UNL     1       1.021  12.183  19.532  0.00  0.00    +0.000 A 
ATOM     12  C   UNL     1       0.638  11.532  20.868  0.00  0.00    +0.000 A 
ATOM     13  O   UNL     1       0.043  12.205  21.706  0.00  0.00    +0.000 OA
ATOM     14  N   UNL     1       0.992  10.199  21.035  0.00  0.00    +0.000 N 
ATOM     15  C   UNL     1       1.462   9.439  19.928  0.00  0.00    +0.000 A 
ATOM     16  N   UNL     1       1.661   8.108  20.070  0.00  0.00    +0.000 NA
ATOM     17  C   UNL     1       1.713   5.297  20.154  0.00  0.00    +0.000 C 
ATOM     18  C   UNL     1       2.594   4.111  20.616  0.00  0.00    +0.000 C 
ENDROOT
BRANCH  11  19
ATOM     19  C   UNL     1       0.859  13.655  19.364  0.00  0.00    +0.000 A 
ATOM     20  C   UNL     1      -0.398  14.235  19.579  0.00  0.00    +0.000 A 
ATOM     21  C   UNL     1      -0.567  15.606  19.394  0.00  0.00    +0.000 A 
ATOM     22  F   UNL     1      -1.769  16.158  19.609  0.00  0.00    +0.000 F 
ATOM     23  C   UNL     1       0.487  16.411  18.988  0.00  0.00    +0.000 A 
ATOM     24  C   UNL     1       1.724  15.826  18.761  0.00  0.00    +0.000 A 
ATOM     25  F   UNL     1       2.748  16.586  18.356  0.00  0.00    +0.000 F 
ATOM     26  C   UNL     1       1.918  14.460  18.937  0.00  0.00    +0.000 A 
ENDBRANCH  11  19
BRANCH  14  27
ATOM     27  C   UNL     1       0.755   9.555  22.307  0.00  0.00    +0.000 C 
ATOM     28  C   UNL     1      -0.332   9.985  23.262  0.00  0.00    +0.000 C 
ATOM     29  C   UNL     1      -0.483   8.703  22.512  0.00  0.00    +0.000 C 
ENDBRANCH  14  27
TORSDOF 2
ENDMDL
MODEL 5
REMARK VINA RESULT:      -7.5      1.416      1.462
REMARK  Name = 
REMARK  3 active torsions:
REMARK  status: ('A' for Active; 'I' for Inactive)
REMARK    1  A    between atoms: C_1  and  N_2
REMARK    2  A    between atoms: C_11  and  C_12
REMARK    3  A    between atoms: N_22  and  C_23
REMARK                            x       y       z     vdW  Elec       q    Type
REMARK                         _______ _______ _______ _____ _____    ______ ____
ROOT
ATOM      1  C   UNL     1      -2.718  15.763  23.528  0.00  0.00    +0.000 C 
ATOM      2  N   UNL     1      -2.738  14.434  22.920  0.00  0.00    +0.000 NA
ATOM      3  C   UNL     1      -2.203  13.424  23.863  0.00  0.00    +0.000 C 
ATOM      4  C   UNL     1      -2.142  12.005  23.248  0.00  0.00    +0.000 C 
ATOM      5  N   UNL     1      -1.360  12.057  22.008  0.00  0.00    +0.000 N 
ATOM      6  C   UNL     1      -0.719  10.923  21.572  0.00  0.00    +0.000 A 
ATOM      7  N   UNL     1      -0.716   9.845  22.373  0.00  0.00    +0.000 NA
ATOM      8  C   UNL     1      -0.017   8.766  21.972  0.00  0.00    +0.000 A 
ATOM      9  C   UNL     1       0.699   8.702  20.804  0.00  0.00    +0.000 A 
ATOM     10  N   UNL     1       1.410   7.540  20.465  0.00  0.00    +0.000 NA
ATOM     11  C   UNL     1       2.075   7.536  19.351  0.00  0.00    +0.000 A 
ATOM     12  C   UNL     1       2.054   8.735  18.392  0.00  0.00    +0.000 A 
ATOM     13  O   UNL     1       2.563   8.612  17.281  0.00  0.00    +0.000 OA
ATOM     14  N   UNL     1       1.441   9.892  18.856  0.00  0.00    +0.000 N 
ATOM     15  C   UNL     1       0.674   9.865  20.054  0.00  0.00    +0.000 A 
ATOM     16  N   UNL     1      -0.037  10.959  20.414  0.00  0.00    +0.000 NA
ATOM     17  C   UNL     1      -1.852  13.019  21.023  0.00  0.00    +0.000 C 
ATOM     18  C   UNL     1      -1.926  14.420  21.679  0.00  0.00    +0.000 C 
ENDROOT
BRANCH  11  19
ATOM     19  C   UNL     1       2.889   6.336  19.004  0.00  0.00    +0.000 A 
ATOM     20  C   UNL     1       2.280   5.263  18.340  0.00  0.00    +0.000 A 
ATOM     21  C   UNL     1       3.026   4.125  18.039  0.00  0.00    +0.000 A 
ATOM     22  F   UNL     1       2.441   3.105  17.398  0.00  0.00    +0.000 F 
ATOM     23  C   UNL     1       4.364   4.028  18.394  0.00  0.00    +0.000 A 
ATOM     24  C   UNL     1       4.954   5.088  19.065  0.00  0.00    +0.000 A 
ATOM     25  F   UNL     1       6.240   5.005  19.426  0.00  0.00    +0.000 F 
ATOM     26  C   UNL     1       4.231   6.235  19.379  0.00  0.00    +0.000 A 
ENDBRANCH  11  19
BRANCH  14  27
ATOM     27  C   UNL     1       1.478  11.088  18.045  0.00  0.00    +0.000 C 
ATOM     28  C   UNL     1       1.441  12.481  18.623  0.00  0.00    +0.000 C 
ATOM     29  C   UNL     1       2.714  11.966  18.038  0.00  0.00    +0.000 C 
ENDBRANCH  14  27
TORSDOF 2
ENDMDL
MODEL 6
REMARK VINA RESULT:      -7.4      4.163      8.741
REMARK  Name = 
REMARK  3 active torsions:
REMARK  status: ('A' for Active; 'I' for Inactive)
REMARK    1  A    between atoms: C_1  and  N_2
REMARK    2  A    between atoms: C_11  and  C_12
REMARK    3  A    between atoms: N_22  and  C_23
REMARK                            x       y       z     vdW  Elec       q    Type
REMARK                         _______ _______ _______ _____ _____    ______ ____
ROOT
ATOM      1  C   UNL     1       3.276   3.951  17.454  0.00  0.00    +0.000 C 
ATOM      2  N   UNL     1       3.351   5.181  18.238  0.00  0.00    +0.000 NA
ATOM      3  C   UNL     1       2.846   4.953  19.613  0.00  0.00    +0.000 C 
ATOM      4  C   UNL     1       2.844   6.240  20.471  0.00  0.00    +0.000 C 
ATOM      5  N   UNL     1       2.072   7.275  19.774  0.00  0.00    +0.000 N 
ATOM      6  C   UNL     1       1.479   8.275  20.506  0.00  0.00    +0.000 A 
ATOM      7  N   UNL     1       1.508   8.188  21.846  0.00  0.00    +0.000 NA
ATOM      8  C   UNL     1       0.855   9.130  22.552  0.00  0.00    +0.000 A 
ATOM      9  C   UNL     1       0.153  10.165  21.990  0.00  0.00    +0.000 A 
ATOM     10  N   UNL     1      -0.510  11.100  22.799  0.00  0.00    +0.000 NA
ATOM     11  C   UNL     1      -1.165  12.057  22.215  0.00  0.00    +0.000 A 
ATOM     12  C   UNL     1      -1.179  12.211  20.688  0.00  0.00    +0.000 A 
ATOM     13  O   UNL     1      -1.673  13.225  20.200  0.00  0.00    +0.000 OA
ATOM     14  N   UNL     1      -0.615  11.176  19.953  0.00  0.00    +0.000 N 
ATOM     15  C   UNL     1       0.141  10.163  20.605  0.00  0.00    +0.000 A 
ATOM     16  N   UNL     1       0.807   9.247  19.865  0.00  0.00    +0.000 NA
ATOM     17  C   UNL     1       2.538   7.566  18.419  0.00  0.00    +0.000 C 
ATOM     18  C   UNL     1       2.553   6.254  17.598  0.00  0.00    +0.000 C 
ENDROOT
BRANCH  11  19
ATOM     19  C   UNL     1      -1.929  13.023  23.055  0.00  0.00    +0.000 A 
ATOM     20  C   UNL     1      -1.251  14.081  23.672  0.00  0.00    +0.000 A 
ATOM     21  C   UNL     1      -1.953  14.971  24.484  0.00  0.00    +0.000 A 
ATOM     22  F   UNL     1      -1.302  15.987  25.066  0.00  0.00    +0.000 F 
ATOM     23  C   UNL     1      -3.315  14.823  24.702  0.00  0.00    +0.000 A 
ATOM     24  C   UNL     1      -3.975  13.762  24.100  0.00  0.00    +0.000 A 
ATOM     25  F   UNL     1      -5.286  13.597  24.311  0.00  0.00    +0.000 F 
ATOM     26  C   UNL     1      -3.298  12.859  23.287  0.00  0.00    +0.000 A 
ENDBRANCH  11  19
BRANCH  14  27
ATOM     27  C   UNL     1      -0.689  11.209  18.510  0.00  0.00    +0.000 C 
ATOM     28  C   UNL     1      -1.162  10.042  17.678  0.00  0.00    +0.000 C 
ATOM     29  C   UNL     1      -2.037  11.243  17.816  0.00  0.00    +0.000 C 
ENDBRANCH  14  27
TORSDOF 2
ENDMDL
MODEL 7
REMARK VINA RESULT:      -7.3      4.268      8.707
REMARK  Name = 
REMARK  3 active torsions:
REMARK  status: ('A' for Active; 'I' for Inactive)
REMARK    1  A    between atoms: C_1  and  N_2
REMARK    2  A    between atoms: C_11  and  C_12
REMARK    3  A    between atoms: N_22  and  C_23
REMARK                            x       y       z     vdW  Elec       q    Type
REMARK                         _______ _______ _______ _____ _____    ______ ____
ROOT
ATOM      1  C   UNL     1       2.870   4.143  17.586  0.00  0.00    +0.000 C 
ATOM      2  N   UNL     1       2.990   5.352  18.397  0.00  0.00    +0.000 NA
ATOM      3  C   UNL     1       2.444   5.123  19.756  0.00  0.00    +0.000 C 
ATOM      4  C   UNL     1       2.488   6.392  20.640  0.00  0.00    +0.000 C 
ATOM      5  N   UNL     1       1.786   7.479  19.948  0.00  0.00    +0.000 N 
ATOM      6  C   UNL     1       1.228   8.493  20.688  0.00  0.00    +0.000 A 
ATOM      7  N   UNL     1       1.224   8.379  22.026  0.00  0.00    +0.000 NA
ATOM      8  C   UNL     1       0.604   9.339  22.737  0.00  0.00    +0.000 A 
ATOM      9  C   UNL     1      -0.032  10.420  22.182  0.00  0.00    +0.000 A 
ATOM     10  N   UNL     1      -0.665  11.372  22.997  0.00  0.00    +0.000 NA
ATOM     11  C   UNL     1      -1.256  12.372  22.419  0.00  0.00    +0.000 A 
ATOM     12  C   UNL     1      -1.229  12.557  20.895  0.00  0.00    +0.000 A 
ATOM     13  O   UNL     1      -1.659  13.604  20.418  0.00  0.00    +0.000 OA
ATOM     14  N   UNL     1      -0.702  11.509  20.151  0.00  0.00    +0.000 N 
ATOM     15  C   UNL     1      -0.013  10.446  20.798  0.00  0.00    +0.000 A 
ATOM     16  N   UNL     1       0.622   9.511  20.053  0.00  0.00    +0.000 NA
ATOM     17  C   UNL     1       2.296   7.772  18.610  0.00  0.00    +0.000 C 
ATOM     18  C   UNL     1       2.262   6.477  17.762  0.00  0.00    +0.000 C 
ENDROOT
BRANCH  11  19
ATOM     19  C   UNL     1      -1.989  13.359  23.262  0.00  0.00    +0.000 A 
ATOM     20  C   UNL     1      -3.388  13.314  23.310  0.00  0.00    +0.000 A 
ATOM     21  C   UNL     1      -4.084  14.253  24.070  0.00  0.00    +0.000 A 
ATOM     22  F   UNL     1      -5.421  14.201  24.120  0.00  0.00    +0.000 F 
ATOM     23  C   UNL     1      -3.415  15.242  24.777  0.00  0.00    +0.000 A 
ATOM     24  C   UNL     1      -2.031  15.289  24.710  0.00  0.00    +0.000 A 
ATOM     25  F   UNL     1      -1.372  16.245  25.375  0.00  0.00    +0.000 F 
ATOM     26  C   UNL     1      -1.313  14.366  23.957  0.00  0.00    +0.000 A 
ENDBRANCH  11  19
BRANCH  14  27
ATOM     27  C   UNL     1      -0.742  11.573  18.707  0.00  0.00    +0.000 C 
ATOM     28  C   UNL     1      -1.171  10.417  17.838  0.00  0.00    +0.000 C 
ATOM     29  C   UNL     1      -2.074  11.597  17.982  0.00  0.00    +0.000 C 
ENDBRANCH  14  27
TORSDOF 2
ENDMDL
MODEL 8
REMARK VINA RESULT:      -7.3      1.006      1.078
REMARK  Name = 
REMARK  3 active torsions:
REMARK  status: ('A' for Active; 'I' for Inactive)
REMARK    1  A    between atoms: C_1  and  N_2
REMARK    2  A    between atoms: C_11  and  C_12
REMARK    3  A    between atoms: N_22  and  C_23
REMARK                            x       y       z     vdW  Elec       q    Type
REMARK                         _______ _______ _______ _____ _____    ______ ____
ROOT
ATOM      1  C   UNL     1      -1.968  17.413  24.279  0.00  0.00    +0.000 C 
ATOM      2  N   UNL     1      -2.196  16.088  23.706  0.00  0.00    +0.000 NA
ATOM      3  C   UNL     1      -1.715  15.033  24.629  0.00  0.00    +0.000 C 
ATOM      4  C   UNL     1      -1.875  13.609  24.045  0.00  0.00    +0.000 C 
ATOM      5  N   UNL     1      -1.194  13.548  22.748  0.00  0.00    +0.000 N 
ATOM      6  C   UNL     1      -0.732  12.337  22.290  0.00  0.00    +0.000 A 
ATOM      7  N   UNL     1      -0.796  11.278  23.114  0.00  0.00    +0.000 NA
ATOM      8  C   UNL     1      -0.268  10.116  22.686  0.00  0.00    +0.000 A 
ATOM      9  C   UNL     1       0.340   9.948  21.468  0.00  0.00    +0.000 A 
ATOM     10  N   UNL     1       0.875   8.703  21.103  0.00  0.00    +0.000 NA
ATOM     11  C   UNL     1       1.444   8.601  19.941  0.00  0.00    +0.000 A 
ATOM     12  C   UNL     1       1.492   9.780  18.958  0.00  0.00    +0.000 A 
ATOM     13  O   UNL     1       1.892   9.580  17.814  0.00  0.00    +0.000 OA
ATOM     14  N   UNL     1       1.063  11.010  19.441  0.00  0.00    +0.000 N 
ATOM     15  C   UNL     1       0.396  11.095  20.694  0.00  0.00    +0.000 A 
ATOM     16  N   UNL     1      -0.146  12.272  21.082  0.00  0.00    +0.000 NA
ATOM     17  C   UNL     1      -1.643  14.548  21.781  0.00  0.00    +0.000 C 
ATOM     18  C   UNL     1      -1.494  15.956  22.407  0.00  0.00    +0.000 C 
ENDROOT
BRANCH  11  19
ATOM     19  C   UNL     1       2.076   7.306  19.560  0.00  0.00    +0.000 A 
ATOM     20  C   UNL     1       1.943   6.202  20.411  0.00  0.00    +0.000 A 
ATOM     21  C   UNL     1       2.556   4.996  20.079  0.00  0.00    +0.000 A 
ATOM     22  F   UNL     1       2.419   3.940  20.892  0.00  0.00    +0.000 F 
ATOM     23  C   UNL     1       3.309   4.868  18.920  0.00  0.00    +0.000 A 
ATOM     24  C   UNL     1       3.450   5.971  18.092  0.00  0.00    +0.000 A 
ATOM     25  F   UNL     1       4.184   5.869  16.978  0.00  0.00    +0.000 F 
ATOM     26  C   UNL     1       2.849   7.187  18.402  0.00  0.00    +0.000 A 
ENDBRANCH  11  19
BRANCH  14  27
ATOM     27  C   UNL     1       1.180  12.181  18.601  0.00  0.00    +0.000 C 
ATOM     28  C   UNL     1       1.728  13.499  19.090  0.00  0.00    +0.000 C 
ATOM     29  C   UNL     1       2.546  12.668  18.158  0.00  0.00    +0.000 C 
ENDBRANCH  14  27
TORSDOF 2
ENDMDL
MODEL 9
REMARK VINA RESULT:      -7.3      1.990      3.681
REMARK  Name = 
REMARK  3 active torsions:
REMARK  status: ('A' for Active; 'I' for Inactive)
REMARK    1  A    between atoms: C_1  and  N_2
REMARK    2  A    between atoms: C_11  and  C_12
REMARK    3  A    between atoms: N_22  and  C_23
REMARK                            x       y       z     vdW  Elec       q    Type
REMARK                         _______ _______ _______ _____ _____    ______ ____
ROOT
ATOM      1  C   UNL     1      -1.488  16.868  21.030  0.00  0.00    +0.000 C 
ATOM      2  N   UNL     1      -0.368  15.967  20.769  0.00  0.00    +0.000 NA
ATOM      3  C   UNL     1      -0.326  15.591  19.336  0.00  0.00    +0.000 C 
ATOM      4  C   UNL     1       0.805  14.587  19.014  0.00  0.00    +0.000 C 
ATOM      5  N   UNL     1       0.658  13.411  19.879  0.00  0.00    +0.000 N 
ATOM      6  C   UNL     1       1.159  12.203  19.458  0.00  0.00    +0.000 A 
ATOM      7  N   UNL     1       1.640  12.113  18.207  0.00  0.00    +0.000 NA
ATOM      8  C   UNL     1       2.054  10.906  17.778  0.00  0.00    +0.000 A 
ATOM      9  C   UNL     1       2.007   9.762  18.533  0.00  0.00    +0.000 A 
ATOM     10  N   UNL     1       2.450   8.540  18.005  0.00  0.00    +0.000 NA
ATOM     11  C   UNL     1       2.378   7.487  18.761  0.00  0.00    +0.000 A 
ATOM     12  C   UNL     1       1.878   7.565  20.210  0.00  0.00    +0.000 A 
ATOM     13  O   UNL     1       1.988   6.575  20.928  0.00  0.00    +0.000 OA
ATOM     14  N   UNL     1       1.334   8.778  20.615  0.00  0.00    +0.000 N 
ATOM     15  C   UNL     1       1.466   9.932  19.796  0.00  0.00    +0.000 A 
ATOM     16  N   UNL     1       1.064  11.135  20.268  0.00  0.00    +0.000 NA
ATOM     17  C   UNL     1       0.636  13.713  21.309  0.00  0.00    +0.000 C 
ATOM     18  C   UNL     1      -0.488  14.739  21.592  0.00  0.00    +0.000 C 
ENDROOT
BRANCH  11  19
ATOM     19  C   UNL     1       2.783   6.167  18.197  0.00  0.00    +0.000 A 
ATOM     20  C   UNL     1       4.013   6.052  17.539  0.00  0.00    +0.000 A 
ATOM     21  C   UNL     1       4.386   4.830  16.981  0.00  0.00    +0.000 A 
ATOM     22  F   UNL     1       5.567   4.721  16.359  0.00  0.00    +0.000 F 
ATOM     23  C   UNL     1       3.554   3.722  17.058  0.00  0.00    +0.000 A 
ATOM     24  C   UNL     1       2.331   3.850  17.698  0.00  0.00    +0.000 A 
ATOM     25  F   UNL     1       1.511   2.795  17.769  0.00  0.00    +0.000 F 
ATOM     26  C   UNL     1       1.934   5.059  18.261  0.00  0.00    +0.000 A 
ENDBRANCH  11  19
BRANCH  14  27
ATOM     27  C   UNL     1       0.749   8.887  21.933  0.00  0.00    +0.000 C 
ATOM     28  C   UNL     1      -0.276   9.931  22.300  0.00  0.00    +0.000 C 
ATOM     29  C   UNL     1      -0.702   8.507  22.159  0.00  0.00    +0.000 C 
ENDBRANCH  14  27
TORSDOF 2
ENDMDL
