MODEL 1
REMARK VINA RESULT:      -6.9      0.000      0.000
REMARK  Name = 
REMARK  2 active torsions:
REMARK  status: ('A' for Active; 'I' for Inactive)
REMARK    1  A    between atoms: C_11  and  C_12
REMARK    2  A    between atoms: C_15  and  C_16
REMARK                            x       y       z     vdW  Elec       q    Type
REMARK                         _______ _______ _______ _____ _____    ______ ____
ROOT
ATOM      1  O   UNL     1       6.207   6.526  17.593  0.00  0.00    +0.000 OA
ATOM      2  C   UNL     1       6.229   5.909  16.546  0.00  0.00    +0.000 C 
ATOM      3  N   UNL     1       7.257   5.924  15.619  0.00  0.00    +0.000 N 
ATOM      4  C   UNL     1       6.977   5.107  14.531  0.00  0.00    +0.000 A 
ATOM      5  C   UNL     1       7.783   4.906  13.429  0.00  0.00    +0.000 A 
ATOM      6  C   UNL     1       7.303   4.054  12.433  0.00  0.00    +0.000 A 
ATOM      7  C   UNL     1       6.046   3.433  12.565  0.00  0.00    +0.000 A 
ATOM      8  C   UNL     1       5.248   3.649  13.698  0.00  0.00    +0.000 A 
ATOM      9  C   UNL     1       5.728   4.493  14.683  0.00  0.00    +0.000 A 
ATOM     10  C   UNL     1       5.196   4.972  15.969  0.00  0.00    +0.000 C 
ATOM     11  C   UNL     1       4.010   4.647  16.507  0.00  0.00    +0.000 C 
ATOM     12  H   UNL     1       8.090   6.476  15.746  0.00  0.00    +0.000 HD
ENDROOT
BRANCH  11  13
ATOM     13  C   UNL     1       3.546   5.191  17.737  0.00  0.00    +0.000 A 
ATOM     14  C   UNL     1       3.697   4.703  19.020  0.00  0.00    +0.000 A 
ATOM     15  C   UNL     1       3.084   5.538  20.001  0.00  0.00    +0.000 A 
ATOM     16  C   UNL     1       2.479   6.656  19.457  0.00  0.00    +0.000 A 
ATOM     17  S   UNL     1       2.631   6.646  17.746  0.00  0.00    +0.000 S 
BRANCH  16  18
ATOM     18  C   UNL     1       1.802   7.723  20.162  0.00  0.00    +0.000 A 
ATOM     19  C   UNL     1       1.381   7.742  21.481  0.00  0.00    +0.000 A 
ATOM     20  C   UNL     1       0.703   8.949  21.832  0.00  0.00    +0.000 A 
ATOM     21  C   UNL     1       0.642   9.828  20.776  0.00  0.00    +0.000 A 
ATOM     22  S   UNL     1       1.398   9.203  19.379  0.00  0.00    +0.000 S 
ENDBRANCH  16  18
ENDBRANCH  11  13
TORSDOF 2
ENDMDL
MODEL 2
REMARK VINA RESULT:      -6.8      3.507      5.648
REMARK  Name = 
REMARK  2 active torsions:
REMARK  status: ('A' for Active; 'I' for Inactive)
REMARK    1  A    between atoms: C_11  and  C_12
REMARK    2  A    between atoms: C_15  and  C_16
REMARK                            x       y       z     vdW  Elec       q    Type
REMARK                         _______ _______ _______ _____ _____    ______ ____
ROOT
ATOM      1  O   UNL     1       1.341   7.989  20.558  0.00  0.00    +0.000 OA
ATOM      2  C   UNL     1       2.128   7.475  19.789  0.00  0.00    +0.000 C 
ATOM      3  N   UNL     1       2.837   6.308  20.015  0.00  0.00    +0.000 N 
ATOM      4  C   UNL     1       3.650   5.985  18.935  0.00  0.00    +0.000 A 
ATOM      5  C   UNL     1       4.492   4.896  18.841  0.00  0.00    +0.000 A 
ATOM      6  C   UNL     1       5.238   4.765  17.669  0.00  0.00    +0.000 A 
ATOM      7  C   UNL     1       5.124   5.715  16.636  0.00  0.00    +0.000 A 
ATOM      8  C   UNL     1       4.257   6.810  16.754  0.00  0.00    +0.000 A 
ATOM      9  C   UNL     1       3.517   6.936  17.916  0.00  0.00    +0.000 A 
ATOM     10  C   UNL     1       2.545   7.924  18.408  0.00  0.00    +0.000 C 
ATOM     11  C   UNL     1       2.129   9.022  17.757  0.00  0.00    +0.000 C 
ATOM     12  H   UNL     1       2.755   5.785  20.871  0.00  0.00    +0.000 HD
ENDROOT
BRANCH  11  13
ATOM     13  C   UNL     1       1.218   9.957  18.323  0.00  0.00    +0.000 A 
ATOM     14  C   UNL     1       1.475  11.055  19.118  0.00  0.00    +0.000 A 
ATOM     15  C   UNL     1       0.288  11.753  19.492  0.00  0.00    +0.000 A 
ATOM     16  C   UNL     1      -0.860  11.183  18.971  0.00  0.00    +0.000 A 
ATOM     17  S   UNL     1      -0.472   9.775  18.067  0.00  0.00    +0.000 S 
BRANCH  16  18
ATOM     18  C   UNL     1      -2.221  11.652  19.118  0.00  0.00    +0.000 A 
ATOM     19  C   UNL     1      -2.742  12.462  20.113  0.00  0.00    +0.000 A 
ATOM     20  C   UNL     1      -4.145  12.688  19.970  0.00  0.00    +0.000 A 
ATOM     21  C   UNL     1      -4.654  12.060  18.857  0.00  0.00    +0.000 A 
ATOM     22  S   UNL     1      -3.449  11.211  17.995  0.00  0.00    +0.000 S 
ENDBRANCH  16  18
ENDBRANCH  11  13
TORSDOF 2
ENDMDL
MODEL 3
REMARK VINA RESULT:      -6.7      2.824      8.338
REMARK  Name = 
REMARK  2 active torsions:
REMARK  status: ('A' for Active; 'I' for Inactive)
REMARK    1  A    between atoms: C_11  and  C_12
REMARK    2  A    between atoms: C_15  and  C_16
REMARK                            x       y       z     vdW  Elec       q    Type
REMARK                         _______ _______ _______ _____ _____    ______ ____
ROOT
ATOM      1  O   UNL     1       1.907   8.675  17.930  0.00  0.00    +0.000 OA
ATOM      2  C   UNL     1       1.410   8.997  18.991  0.00  0.00    +0.000 C 
ATOM      3  N   UNL     1       0.856  10.232  19.283  0.00  0.00    +0.000 N 
ATOM      4  C   UNL     1       0.367  10.278  20.583  0.00  0.00    +0.000 A 
ATOM      5  C   UNL     1      -0.233  11.360  21.194  0.00  0.00    +0.000 A 
ATOM      6  C   UNL     1      -0.639  11.201  22.519  0.00  0.00    +0.000 A 
ATOM      7  C   UNL     1      -0.437   9.980  23.190  0.00  0.00    +0.000 A 
ATOM      8  C   UNL     1       0.171   8.893  22.546  0.00  0.00    +0.000 A 
ATOM      9  C   UNL     1       0.571   9.054  21.231  0.00  0.00    +0.000 A 
ATOM     10  C   UNL     1       1.239   8.183  20.251  0.00  0.00    +0.000 C 
ATOM     11  C   UNL     1       1.637   6.918  20.455  0.00  0.00    +0.000 C 
ATOM     12  H   UNL     1       0.833  10.985  18.615  0.00  0.00    +0.000 HD
ENDROOT
BRANCH  11  13
ATOM     13  C   UNL     1       2.321   6.155  19.468  0.00  0.00    +0.000 A 
ATOM     14  C   UNL     1       1.820   5.227  18.578  0.00  0.00    +0.000 A 
ATOM     15  C   UNL     1       2.830   4.668  17.739  0.00  0.00    +0.000 A 
ATOM     16  C   UNL     1       4.088   5.183  17.993  0.00  0.00    +0.000 A 
ATOM     17  S   UNL     1       4.024   6.311  19.287  0.00  0.00    +0.000 S 
BRANCH  16  18
ATOM     18  C   UNL     1       5.323   4.869  17.307  0.00  0.00    +0.000 A 
ATOM     19  C   UNL     1       6.592   4.743  17.848  0.00  0.00    +0.000 A 
ATOM     20  C   UNL     1       7.592   4.469  16.866  0.00  0.00    +0.000 A 
ATOM     21  C   UNL     1       7.056   4.373  15.602  0.00  0.00    +0.000 A 
ATOM     22  S   UNL     1       5.365   4.609  15.606  0.00  0.00    +0.000 S 
ENDBRANCH  16  18
ENDBRANCH  11  13
TORSDOF 2
ENDMDL
MODEL 4
REMARK VINA RESULT:      -6.5      3.509      5.762
REMARK  Name = 
REMARK  2 active torsions:
REMARK  status: ('A' for Active; 'I' for Inactive)
REMARK    1  A    between atoms: C_11  and  C_12
REMARK    2  A    between atoms: C_15  and  C_16
REMARK                            x       y       z     vdW  Elec       q    Type
REMARK                         _______ _______ _______ _____ _____    ______ ____
ROOT
ATOM      1  O   UNL     1       1.139   8.068  20.559  0.00  0.00    +0.000 OA
ATOM      2  C   UNL     1       1.979   7.506  19.885  0.00  0.00    +0.000 C 
ATOM      3  N   UNL     1       2.739   6.418  20.279  0.00  0.00    +0.000 N 
ATOM      4  C   UNL     1       3.605   6.007  19.273  0.00  0.00    +0.000 A 
ATOM      5  C   UNL     1       4.505   4.963  19.344  0.00  0.00    +0.000 A 
ATOM      6  C   UNL     1       5.299   4.727  18.222  0.00  0.00    +0.000 A 
ATOM      7  C   UNL     1       5.173   5.531  17.072  0.00  0.00    +0.000 A 
ATOM      8  C   UNL     1       4.247   6.582  17.023  0.00  0.00    +0.000 A 
ATOM      9  C   UNL     1       3.460   6.812  18.138  0.00  0.00    +0.000 A 
ATOM     10  C   UNL     1       2.421   7.799  18.471  0.00  0.00    +0.000 C 
ATOM     11  C   UNL     1       1.974   8.781  17.673  0.00  0.00    +0.000 C 
ATOM     12  H   UNL     1       2.653   6.003  21.193  0.00  0.00    +0.000 HD
ENDROOT
BRANCH  11  13
ATOM     13  C   UNL     1       0.996   9.728  18.087  0.00  0.00    +0.000 A 
ATOM     14  C   UNL     1      -0.379   9.663  17.988  0.00  0.00    +0.000 A 
ATOM     15  C   UNL     1      -1.023  10.820  18.520  0.00  0.00    +0.000 A 
ATOM     16  C   UNL     1      -0.133  11.750  19.025  0.00  0.00    +0.000 A 
ATOM     17  S   UNL     1       1.483  11.214  18.801  0.00  0.00    +0.000 S 
BRANCH  16  18
ATOM     18  C   UNL     1      -0.443  13.009  19.667  0.00  0.00    +0.000 A 
ATOM     19  C   UNL     1      -0.278  14.288  19.162  0.00  0.00    +0.000 A 
ATOM     20  C   UNL     1      -0.650  15.306  20.092  0.00  0.00    +0.000 A 
ATOM     21  C   UNL     1      -1.108  14.776  21.276  0.00  0.00    +0.000 A 
ATOM     22  S   UNL     1      -1.092  13.069  21.260  0.00  0.00    +0.000 S 
ENDBRANCH  16  18
ENDBRANCH  11  13
TORSDOF 2
ENDMDL
MODEL 5
REMARK VINA RESULT:      -6.5      3.193      5.331
REMARK  Name = 
REMARK  2 active torsions:
REMARK  status: ('A' for Active; 'I' for Inactive)
REMARK    1  A    between atoms: C_11  and  C_12
REMARK    2  A    between atoms: C_15  and  C_16
REMARK                            x       y       z     vdW  Elec       q    Type
REMARK                         _______ _______ _______ _____ _____    ______ ____
ROOT
ATOM      1  O   UNL     1       1.356   7.644  20.523  0.00  0.00    +0.000 OA
ATOM      2  C   UNL     1       2.198   7.231  19.750  0.00  0.00    +0.000 C 
ATOM      3  N   UNL     1       3.017   6.134  19.954  0.00  0.00    +0.000 N 
ATOM      4  C   UNL     1       3.868   5.923  18.876  0.00  0.00    +0.000 A 
ATOM      5  C   UNL     1       4.814   4.924  18.764  0.00  0.00    +0.000 A 
ATOM      6  C   UNL     1       5.582   4.901  17.599  0.00  0.00    +0.000 A 
ATOM      7  C   UNL     1       5.386   5.863  16.590  0.00  0.00    +0.000 A 
ATOM      8  C   UNL     1       4.413   6.864  16.726  0.00  0.00    +0.000 A 
ATOM      9  C   UNL     1       3.653   6.884  17.882  0.00  0.00    +0.000 A 
ATOM     10  C   UNL     1       2.583   7.758  18.388  0.00  0.00    +0.000 C 
ATOM     11  C   UNL     1       2.068   8.827  17.761  0.00  0.00    +0.000 C 
ATOM     12  H   UNL     1       2.978   5.581  20.795  0.00  0.00    +0.000 HD
ENDROOT
BRANCH  11  13
ATOM     13  C   UNL     1       1.064   9.652  18.340  0.00  0.00    +0.000 A 
ATOM     14  C   UNL     1      -0.298   9.658  18.115  0.00  0.00    +0.000 A 
ATOM     15  C   UNL     1      -0.979  10.642  18.891  0.00  0.00    +0.000 A 
ATOM     16  C   UNL     1      -0.131  11.370  19.705  0.00  0.00    +0.000 A 
ATOM     17  S   UNL     1       1.496  10.869  19.474  0.00  0.00    +0.000 S 
BRANCH  16  18
ATOM     18  C   UNL     1      -0.488  12.413  20.642  0.00  0.00    +0.000 A 
ATOM     19  C   UNL     1      -0.568  12.331  22.022  0.00  0.00    +0.000 A 
ATOM     20  C   UNL     1      -0.998  13.550  22.629  0.00  0.00    +0.000 A 
ATOM     21  C   UNL     1      -1.216  14.537  21.697  0.00  0.00    +0.000 A 
ATOM     22  S   UNL     1      -0.901  13.997  20.108  0.00  0.00    +0.000 S 
ENDBRANCH  16  18
ENDBRANCH  11  13
TORSDOF 2
ENDMDL
MODEL 6
REMARK VINA RESULT:      -6.5      3.965      6.485
REMARK  Name = 
REMARK  2 active torsions:
REMARK  status: ('A' for Active; 'I' for Inactive)
REMARK    1  A    between atoms: C_11  and  C_12
REMARK    2  A    between atoms: C_15  and  C_16
REMARK                            x       y       z     vdW  Elec       q    Type
REMARK                         _______ _______ _______ _____ _____    ______ ____
ROOT
ATOM      1  O   UNL     1       0.693   8.556  21.032  0.00  0.00    +0.000 OA
ATOM      2  C   UNL     1       1.481   8.027  20.273  0.00  0.00    +0.000 C 
ATOM      3  N   UNL     1       2.193   6.866  20.524  0.00  0.00    +0.000 N 
ATOM      4  C   UNL     1       3.005   6.522  19.451  0.00  0.00    +0.000 A 
ATOM      5  C   UNL     1       3.849   5.432  19.380  0.00  0.00    +0.000 A 
ATOM      6  C   UNL     1       4.596   5.277  18.212  0.00  0.00    +0.000 A 
ATOM      7  C   UNL     1       4.480   6.205  17.158  0.00  0.00    +0.000 A 
ATOM      8  C   UNL     1       3.610   7.301  17.252  0.00  0.00    +0.000 A 
ATOM      9  C   UNL     1       2.871   7.450  18.412  0.00  0.00    +0.000 A 
ATOM     10  C   UNL     1       1.897   8.447  18.883  0.00  0.00    +0.000 C 
ATOM     11  C   UNL     1       1.479   9.530  18.208  0.00  0.00    +0.000 C 
ATOM     12  H   UNL     1       2.112   6.362  21.392  0.00  0.00    +0.000 HD
ENDROOT
BRANCH  11  13
ATOM     13  C   UNL     1       0.567  10.475  18.754  0.00  0.00    +0.000 A 
ATOM     14  C   UNL     1       0.823  11.600  19.512  0.00  0.00    +0.000 A 
ATOM     15  C   UNL     1      -0.365  12.300  19.876  0.00  0.00    +0.000 A 
ATOM     16  C   UNL     1      -1.514  11.705  19.385  0.00  0.00    +0.000 A 
ATOM     17  S   UNL     1      -1.125  10.272  18.523  0.00  0.00    +0.000 S 
BRANCH  16  18
ATOM     18  C   UNL     1      -2.877  12.168  19.533  0.00  0.00    +0.000 A 
ATOM     19  C   UNL     1      -3.983  11.823  18.774  0.00  0.00    +0.000 A 
ATOM     20  C   UNL     1      -5.170  12.510  19.174  0.00  0.00    +0.000 A 
ATOM     21  C   UNL     1      -4.942  13.346  20.242  0.00  0.00    +0.000 A 
ATOM     22  S   UNL     1      -3.315  13.299  20.755  0.00  0.00    +0.000 S 
ENDBRANCH  16  18
ENDBRANCH  11  13
TORSDOF 2
ENDMDL
MODEL 7
REMARK VINA RESULT:      -6.4      3.750      6.280
REMARK  Name = 
REMARK  2 active torsions:
REMARK  status: ('A' for Active; 'I' for Inactive)
REMARK    1  A    between atoms: C_11  and  C_12
REMARK    2  A    between atoms: C_15  and  C_16
REMARK                            x       y       z     vdW  Elec       q    Type
REMARK                         _______ _______ _______ _____ _____    ______ ____
ROOT
ATOM      1  O   UNL     1       0.692   8.141  21.297  0.00  0.00    +0.000 OA
ATOM      2  C   UNL     1       1.478   7.701  20.482  0.00  0.00    +0.000 C 
ATOM      3  N   UNL     1       2.196   6.524  20.603  0.00  0.00    +0.000 N 
ATOM      4  C   UNL     1       3.005   6.301  19.495  0.00  0.00    +0.000 A 
ATOM      5  C   UNL     1       3.853   5.230  19.303  0.00  0.00    +0.000 A 
ATOM      6  C   UNL     1       4.594   5.205  18.121  0.00  0.00    +0.000 A 
ATOM      7  C   UNL     1       4.467   6.239  17.173  0.00  0.00    +0.000 A 
ATOM      8  C   UNL     1       3.593   7.314  17.389  0.00  0.00    +0.000 A 
ATOM      9  C   UNL     1       2.859   7.334  18.562  0.00  0.00    +0.000 A 
ATOM     10  C   UNL     1       1.884   8.270  19.143  0.00  0.00    +0.000 C 
ATOM     11  C   UNL     1       1.457   9.416  18.591  0.00  0.00    +0.000 C 
ATOM     12  H   UNL     1       2.124   5.928  21.412  0.00  0.00    +0.000 HD
ENDROOT
BRANCH  11  13
ATOM     13  C   UNL     1       0.543  10.292  19.239  0.00  0.00    +0.000 A 
ATOM     14  C   UNL     1      -0.823  10.406  19.078  0.00  0.00    +0.000 A 
ATOM     15  C   UNL     1      -1.394  11.411  19.913  0.00  0.00    +0.000 A 
ATOM     16  C   UNL     1      -0.459  12.047  20.709  0.00  0.00    +0.000 A 
ATOM     17  S   UNL     1       1.114  11.436  20.388  0.00  0.00    +0.000 S 
BRANCH  16  18
ATOM     18  C   UNL     1      -0.696  13.082  21.692  0.00  0.00    +0.000 A 
ATOM     19  C   UNL     1      -1.161  12.937  22.989  0.00  0.00    +0.000 A 
ATOM     20  C   UNL     1      -1.320  14.184  23.666  0.00  0.00    +0.000 A 
ATOM     21  C   UNL     1      -0.954  15.247  22.874  0.00  0.00    +0.000 A 
ATOM     22  S   UNL     1      -0.421  14.743  21.333  0.00  0.00    +0.000 S 
ENDBRANCH  16  18
ENDBRANCH  11  13
TORSDOF 2
ENDMDL
MODEL 8
REMARK VINA RESULT:      -6.1      3.685      6.044
REMARK  Name = 
REMARK  2 active torsions:
REMARK  status: ('A' for Active; 'I' for Inactive)
REMARK    1  A    between atoms: C_11  and  C_12
REMARK    2  A    between atoms: C_15  and  C_16
REMARK                            x       y       z     vdW  Elec       q    Type
REMARK                         _______ _______ _______ _____ _____    ______ ____
ROOT
ATOM      1  O   UNL     1       1.240   8.456  20.791  0.00  0.00    +0.000 OA
ATOM      2  C   UNL     1       1.867   7.638  20.147  0.00  0.00    +0.000 C 
ATOM      3  N   UNL     1       2.358   6.435  20.624  0.00  0.00    +0.000 N 
ATOM      4  C   UNL     1       3.026   5.726  19.633  0.00  0.00    +0.000 A 
ATOM      5  C   UNL     1       3.641   4.499  19.779  0.00  0.00    +0.000 A 
ATOM      6  C   UNL     1       4.275   3.965  18.657  0.00  0.00    +0.000 A 
ATOM      7  C   UNL     1       4.276   4.663  17.433  0.00  0.00    +0.000 A 
ATOM      8  C   UNL     1       3.638   5.906  17.310  0.00  0.00    +0.000 A 
ATOM      9  C   UNL     1       3.010   6.431  18.425  0.00  0.00    +0.000 A 
ATOM     10  C   UNL     1       2.273   7.676  18.692  0.00  0.00    +0.000 C 
ATOM     11  C   UNL     1       2.030   8.660  17.812  0.00  0.00    +0.000 C 
ATOM     12  H   UNL     1       2.234   6.143  21.580  0.00  0.00    +0.000 HD
ENDROOT
BRANCH  11  13
ATOM     13  C   UNL     1       1.348   9.858  18.162  0.00  0.00    +0.000 A 
ATOM     14  C   UNL     1      -0.007  10.083  18.303  0.00  0.00    +0.000 A 
ATOM     15  C   UNL     1      -0.306  11.429  18.666  0.00  0.00    +0.000 A 
ATOM     16  C   UNL     1       0.824  12.215  18.807  0.00  0.00    +0.000 A 
ATOM     17  S   UNL     1       2.234  11.303  18.447  0.00  0.00    +0.000 S 
BRANCH  16  18
ATOM     18  C   UNL     1       0.887  13.606  19.200  0.00  0.00    +0.000 A 
ATOM     19  C   UNL     1       1.908  14.259  19.869  0.00  0.00    +0.000 A 
ATOM     20  C   UNL     1       1.613  15.630  20.135  0.00  0.00    +0.000 A 
ATOM     21  C   UNL     1       0.380  15.993  19.644  0.00  0.00    +0.000 A 
ATOM     22  S   UNL     1      -0.407  14.692  18.869  0.00  0.00    +0.000 S 
ENDBRANCH  16  18
ENDBRANCH  11  13
TORSDOF 2
ENDMDL
MODEL 9
REMARK VINA RESULT:      -6.1      4.163      6.970
REMARK  Name = 
REMARK  2 active torsions:
REMARK  status: ('A' for Active; 'I' for Inactive)
REMARK    1  A    between atoms: C_11  and  C_12
REMARK    2  A    between atoms: C_15  and  C_16
REMARK                            x       y       z     vdW  Elec       q    Type
REMARK                         _______ _______ _______ _____ _____    ______ ____
ROOT
ATOM      1  O   UNL     1       2.208   9.834  17.432  0.00  0.00    +0.000 OA
ATOM      2  C   UNL     1       2.277   8.804  18.072  0.00  0.00    +0.000 C 
ATOM      3  N   UNL     1       3.021   7.687  17.733  0.00  0.00    +0.000 N 
ATOM      4  C   UNL     1       2.889   6.677  18.679  0.00  0.00    +0.000 A 
ATOM      5  C   UNL     1       3.487   5.434  18.638  0.00  0.00    +0.000 A 
ATOM      6  C   UNL     1       3.207   4.556  19.685  0.00  0.00    +0.000 A 
ATOM      7  C   UNL     1       2.349   4.940  20.733  0.00  0.00    +0.000 A 
ATOM      8  C   UNL     1       1.758   6.211  20.755  0.00  0.00    +0.000 A 
ATOM      9  C   UNL     1       2.039   7.080  19.715  0.00  0.00    +0.000 A 
ATOM     10  C   UNL     1       1.612   8.447  19.381  0.00  0.00    +0.000 C 
ATOM     11  C   UNL     1       0.776   9.216  20.097  0.00  0.00    +0.000 C 
ATOM     12  H   UNL     1       3.574   7.642  16.893  0.00  0.00    +0.000 HD
ENDROOT
BRANCH  11  13
ATOM     13  C   UNL     1       0.374  10.515  19.680  0.00  0.00    +0.000 A 
ATOM     14  C   UNL     1      -0.675  10.885  18.863  0.00  0.00    +0.000 A 
ATOM     15  C   UNL     1      -0.755  12.297  18.676  0.00  0.00    +0.000 A 
ATOM     16  C   UNL     1       0.229  12.989  19.359  0.00  0.00    +0.000 A 
ATOM     17  S   UNL     1       1.266  11.896  20.184  0.00  0.00    +0.000 S 
BRANCH  16  18
ATOM     18  C   UNL     1       0.418  14.422  19.420  0.00  0.00    +0.000 A 
ATOM     19  C   UNL     1      -0.272  15.404  18.730  0.00  0.00    +0.000 A 
ATOM     20  C   UNL     1       0.212  16.720  19.000  0.00  0.00    +0.000 A 
ATOM     21  C   UNL     1       1.247  16.709  19.907  0.00  0.00    +0.000 A 
ATOM     22  S   UNL     1       1.625  15.127  20.425  0.00  0.00    +0.000 S 
ENDBRANCH  16  18
ENDBRANCH  11  13
TORSDOF 2
ENDMDL
