MODEL 1
REMARK VINA RESULT:      -8.2      0.000      0.000
REMARK  Name = 
REMARK  7 active torsions:
REMARK  status: ('A' for Active; 'I' for Inactive)
REMARK    1  A    between atoms: C_1  and  N_2
REMARK    2  A    between atoms: C_5  and  N_6
REMARK    3  A    between atoms: N_6  and  C_7
REMARK    4  A    between atoms: C_7  and  C_8
REMARK    5  A    between atoms: C_8  and  C_9
REMARK    6  A    between atoms: C_15  and  C_17
REMARK    7  A    between atoms: C_21  and  C_22
REMARK                            x       y       z     vdW  Elec       q    Type
REMARK                         _______ _______ _______ _____ _____    ______ ____
ROOT
ATOM      1  N   UNL     1       3.678   5.692  17.331  0.00  0.00    +0.000 N 
ATOM      2  C   UNL     1       4.887   6.370  17.009  0.00  0.00    +0.000 C 
ATOM      3  O   UNL     1       5.051   7.554  17.301  0.00  0.00    +0.000 OA
ENDROOT
BRANCH   1   8
ATOM      4  C   UNL     1       0.949   9.339  20.825  0.00  0.00    +0.000 C 
ATOM      5  N   UNL     1       1.835   8.523  19.996  0.00  0.00    +0.000 NA
ATOM      6  C   UNL     1       1.880   7.136  20.465  0.00  0.00    +0.000 C 
ATOM      7  C   UNL     1       2.907   6.314  19.675  0.00  0.00    +0.000 C 
ATOM      8  C   UNL     1       2.655   6.395  18.157  0.00  0.00    +0.000 C 
ATOM      9  C   UNL     1       2.456   7.850  17.707  0.00  0.00    +0.000 C 
ATOM     10  C   UNL     1       1.446   8.588  18.584  0.00  0.00    +0.000 C 
ENDBRANCH   1   8
BRANCH   2  11
ATOM     11  C   UNL     1       5.955   5.650  16.291  0.00  0.00    +0.000 A 
ATOM     12  N   UNL     1       6.067   5.564  14.903  0.00  0.00    +0.000 NA
ATOM     13  C   UNL     1       7.170   4.880  14.715  0.00  0.00    +0.000 A 
ATOM     14  O   UNL     1       7.784   4.453  15.844  0.00  0.00    +0.000 OA
ATOM     15  C   UNL     1       7.001   4.935  16.861  0.00  0.00    +0.000 A 
BRANCH  15  16
ATOM     16  C   UNL     1       7.320   4.727  18.333  0.00  0.00    +0.000 C 
ATOM     17  C   UNL     1       7.860   5.900  19.126  0.00  0.00    +0.000 C 
ATOM     18  C   UNL     1       6.453   5.463  19.336  0.00  0.00    +0.000 C 
ENDBRANCH  15  16
ENDBRANCH   2  11
BRANCH   1  19
ATOM     19  C   UNL     1       3.460   4.288  16.916  0.00  0.00    +0.000 C 
BRANCH  19  20
ATOM     20  C   UNL     1       3.841   3.159  17.888  0.00  0.00    +0.000 C 
BRANCH  20  21
ATOM     21  C   UNL     1       2.919   2.988  19.087  0.00  0.00    +0.000 A 
ATOM     22  C   UNL     1       1.518   3.061  19.013  0.00  0.00    +0.000 A 
ATOM     23  C   UNL     1       0.732   2.943  20.165  0.00  0.00    +0.000 A 
ATOM     24  C   UNL     1       1.330   2.732  21.404  0.00  0.00    +0.000 A 
ATOM     25  C   UNL     1       2.714   2.616  21.490  0.00  0.00    +0.000 A 
ATOM     26  C   UNL     1       3.499   2.738  20.341  0.00  0.00    +0.000 A 
ENDBRANCH  20  21
ENDBRANCH  19  20
ENDBRANCH   1  19
TORSDOF 6
ENDMDL
MODEL 2
REMARK VINA RESULT:      -7.9      1.188      2.120
REMARK  Name = 
REMARK  7 active torsions:
REMARK  status: ('A' for Active; 'I' for Inactive)
REMARK    1  A    between atoms: C_1  and  N_2
REMARK    2  A    between atoms: C_5  and  N_6
REMARK    3  A    between atoms: N_6  and  C_7
REMARK    4  A    between atoms: C_7  and  C_8
REMARK    5  A    between atoms: C_8  and  C_9
REMARK    6  A    between atoms: C_15  and  C_17
REMARK    7  A    between atoms: C_21  and  C_22
REMARK                            x       y       z     vdW  Elec       q    Type
REMARK                         _______ _______ _______ _____ _____    ______ ____
ROOT
ATOM      1  N   UNL     1       3.878   5.882  17.712  0.00  0.00    +0.000 N 
ATOM      2  C   UNL     1       5.189   6.434  17.765  0.00  0.00    +0.000 C 
ATOM      3  O   UNL     1       5.369   7.628  18.005  0.00  0.00    +0.000 OA
ENDROOT
BRANCH   1   8
ATOM      4  C   UNL     1       0.554  10.138  19.660  0.00  0.00    +0.000 C 
ATOM      5  N   UNL     1       1.575   9.172  19.258  0.00  0.00    +0.000 NA
ATOM      6  C   UNL     1       1.393   7.886  19.937  0.00  0.00    +0.000 C 
ATOM      7  C   UNL     1       2.538   6.918  19.612  0.00  0.00    +0.000 C 
ATOM      8  C   UNL     1       2.719   6.740  18.092  0.00  0.00    +0.000 C 
ATOM      9  C   UNL     1       2.753   8.099  17.376  0.00  0.00    +0.000 C 
ATOM     10  C   UNL     1       1.594   8.999  17.802  0.00  0.00    +0.000 C 
ENDBRANCH   1   8
BRANCH   2  11
ATOM     11  C   UNL     1       6.353   5.569  17.504  0.00  0.00    +0.000 A 
ATOM     12  N   UNL     1       7.223   5.081  18.481  0.00  0.00    +0.000 NA
ATOM     13  C   UNL     1       8.066   4.334  17.811  0.00  0.00    +0.000 A 
ATOM     14  O   UNL     1       7.880   4.311  16.470  0.00  0.00    +0.000 OA
ATOM     15  C   UNL     1       6.787   5.113  16.265  0.00  0.00    +0.000 A 
BRANCH  15  16
ATOM     16  C   UNL     1       6.182   5.367  14.893  0.00  0.00    +0.000 C 
ATOM     17  C   UNL     1       6.804   4.680  13.694  0.00  0.00    +0.000 C 
ATOM     18  C   UNL     1       5.497   4.195  14.216  0.00  0.00    +0.000 C 
ENDBRANCH  15  16
ENDBRANCH   2  11
BRANCH   1  19
ATOM     19  C   UNL     1       3.666   4.462  17.356  0.00  0.00    +0.000 C 
BRANCH  19  20
ATOM     20  C   UNL     1       2.324   3.800  17.710  0.00  0.00    +0.000 C 
BRANCH  20  21
ATOM     21  C   UNL     1       2.184   3.332  19.152  0.00  0.00    +0.000 A 
ATOM     22  C   UNL     1       0.974   3.346  19.865  0.00  0.00    +0.000 A 
ATOM     23  C   UNL     1       0.927   2.947  21.206  0.00  0.00    +0.000 A 
ATOM     24  C   UNL     1       2.082   2.511  21.849  0.00  0.00    +0.000 A 
ATOM     25  C   UNL     1       3.281   2.452  21.146  0.00  0.00    +0.000 A 
ATOM     26  C   UNL     1       3.329   2.854  19.809  0.00  0.00    +0.000 A 
ENDBRANCH  20  21
ENDBRANCH  19  20
ENDBRANCH   1  19
TORSDOF 6
ENDMDL
MODEL 3
REMARK VINA RESULT:      -7.9      0.673      1.179
REMARK  Name = 
REMARK  7 active torsions:
REMARK  status: ('A' for Active; 'I' for Inactive)
REMARK    1  A    between atoms: C_1  and  N_2
REMARK    2  A    between atoms: C_5  and  N_6
REMARK    3  A    between atoms: N_6  and  C_7
REMARK    4  A    between atoms: C_7  and  C_8
REMARK    5  A    between atoms: C_8  and  C_9
REMARK    6  A    between atoms: C_15  and  C_17
REMARK    7  A    between atoms: C_21  and  C_22
REMARK                            x       y       z     vdW  Elec       q    Type
REMARK                         _______ _______ _______ _____ _____    ______ ____
ROOT
ATOM      1  N   UNL     1       3.962   6.565  17.542  0.00  0.00    +0.000 N 
ATOM      2  C   UNL     1       5.272   6.855  17.068  0.00  0.00    +0.000 C 
ATOM      3  O   UNL     1       5.794   7.952  17.266  0.00  0.00    +0.000 OA
ENDROOT
BRANCH   1   8
ATOM      4  C   UNL     1       0.045   9.597  20.444  0.00  0.00    +0.000 C 
ATOM      5  N   UNL     1       0.862   8.717  19.610  0.00  0.00    +0.000 NA
ATOM      6  C   UNL     1       1.606   9.476  18.601  0.00  0.00    +0.000 C 
ATOM      7  C   UNL     1       2.361   8.541  17.646  0.00  0.00    +0.000 C 
ATOM      8  C   UNL     1       3.273   7.562  18.411  0.00  0.00    +0.000 C 
ATOM      9  C   UNL     1       2.515   6.888  19.566  0.00  0.00    +0.000 C 
ATOM     10  C   UNL     1       1.767   7.904  20.428  0.00  0.00    +0.000 C 
ENDBRANCH   1   8
BRANCH   2  11
ATOM     11  C   UNL     1       6.012   5.834  16.305  0.00  0.00    +0.000 A 
ATOM     12  N   UNL     1       5.817   5.550  14.952  0.00  0.00    +0.000 NA
ATOM     13  C   UNL     1       6.706   4.622  14.691  0.00  0.00    +0.000 A 
ATOM     14  O   UNL     1       7.447   4.217  15.750  0.00  0.00    +0.000 OA
ATOM     15  C   UNL     1       6.996   4.984  16.793  0.00  0.00    +0.000 A 
BRANCH  15  16
ATOM     16  C   UNL     1       7.567   4.899  18.200  0.00  0.00    +0.000 C 
ATOM     17  C   UNL     1       7.927   6.188  18.911  0.00  0.00    +0.000 C 
ATOM     18  C   UNL     1       6.707   5.443  19.326  0.00  0.00    +0.000 C 
ENDBRANCH  15  16
ENDBRANCH   2  11
BRANCH   1  19
ATOM     19  C   UNL     1       3.315   5.269  17.242  0.00  0.00    +0.000 C 
BRANCH  19  20
ATOM     20  C   UNL     1       3.786   4.012  17.992  0.00  0.00    +0.000 C 
BRANCH  20  21
ATOM     21  C   UNL     1       2.877   3.543  19.119  0.00  0.00    +0.000 A 
ATOM     22  C   UNL     1       1.476   3.499  19.027  0.00  0.00    +0.000 A 
ATOM     23  C   UNL     1       0.698   3.103  20.121  0.00  0.00    +0.000 A 
ATOM     24  C   UNL     1       1.305   2.727  21.315  0.00  0.00    +0.000 A 
ATOM     25  C   UNL     1       2.694   2.726  21.411  0.00  0.00    +0.000 A 
ATOM     26  C   UNL     1       3.470   3.125  20.321  0.00  0.00    +0.000 A 
ENDBRANCH  20  21
ENDBRANCH  19  20
ENDBRANCH   1  19
TORSDOF 6
ENDMDL
MODEL 4
REMARK VINA RESULT:      -7.8      0.547      1.155
REMARK  Name = 
REMARK  7 active torsions:
REMARK  status: ('A' for Active; 'I' for Inactive)
REMARK    1  A    between atoms: C_1  and  N_2
REMARK    2  A    between atoms: C_5  and  N_6
REMARK    3  A    between atoms: N_6  and  C_7
REMARK    4  A    between atoms: C_7  and  C_8
REMARK    5  A    between atoms: C_8  and  C_9
REMARK    6  A    between atoms: C_15  and  C_17
REMARK    7  A    between atoms: C_21  and  C_22
REMARK                            x       y       z     vdW  Elec       q    Type
REMARK                         _______ _______ _______ _____ _____    ______ ____
ROOT
ATOM      1  N   UNL     1       3.473   6.037  17.412  0.00  0.00    +0.000 N 
ATOM      2  C   UNL     1       4.648   6.714  16.980  0.00  0.00    +0.000 C 
ATOM      3  O   UNL     1       4.774   7.930  17.126  0.00  0.00    +0.000 OA
ENDROOT
BRANCH   1   8
ATOM      4  C   UNL     1       0.707   9.940  20.586  0.00  0.00    +0.000 C 
ATOM      5  N   UNL     1       1.602   9.066  19.828  0.00  0.00    +0.000 NA
ATOM      6  C   UNL     1       1.664   7.725  20.415  0.00  0.00    +0.000 C 
ATOM      7  C   UNL     1       2.700   6.850  19.696  0.00  0.00    +0.000 C 
ATOM      8  C   UNL     1       2.444   6.797  18.178  0.00  0.00    +0.000 C 
ATOM      9  C   UNL     1       2.227   8.206  17.604  0.00  0.00    +0.000 C 
ATOM     10  C   UNL     1       1.209   9.004  18.417  0.00  0.00    +0.000 C 
ENDBRANCH   1   8
BRANCH   2  11
ATOM     11  C   UNL     1       5.726   5.953  16.323  0.00  0.00    +0.000 A 
ATOM     12  N   UNL     1       5.636   5.367  15.059  0.00  0.00    +0.000 NA
ATOM     13  C   UNL     1       6.822   4.844  14.866  0.00  0.00    +0.000 A 
ATOM     14  O   UNL     1       7.687   4.976  15.900  0.00  0.00    +0.000 OA
ATOM     15  C   UNL     1       6.984   5.677  16.844  0.00  0.00    +0.000 A 
BRANCH  15  16
ATOM     16  C   UNL     1       7.569   6.092  18.185  0.00  0.00    +0.000 C 
ATOM     17  C   UNL     1       6.903   5.587  19.449  0.00  0.00    +0.000 C 
ATOM     18  C   UNL     1       8.204   5.001  19.026  0.00  0.00    +0.000 C 
ENDBRANCH  15  16
ENDBRANCH   2  11
BRANCH   1  19
ATOM     19  C   UNL     1       3.300   4.588  17.172  0.00  0.00    +0.000 C 
BRANCH  19  20
ATOM     20  C   UNL     1       3.893   3.591  18.181  0.00  0.00    +0.000 C 
BRANCH  20  21
ATOM     21  C   UNL     1       3.016   3.279  19.386  0.00  0.00    +0.000 A 
ATOM     22  C   UNL     1       3.515   2.832  20.621  0.00  0.00    +0.000 A 
ATOM     23  C   UNL     1       2.647   2.516  21.673  0.00  0.00    +0.000 A 
ATOM     24  C   UNL     1       1.272   2.659  21.515  0.00  0.00    +0.000 A 
ATOM     25  C   UNL     1       0.763   3.139  20.311  0.00  0.00    +0.000 A 
ATOM     26  C   UNL     1       1.628   3.450  19.260  0.00  0.00    +0.000 A 
ENDBRANCH  20  21
ENDBRANCH  19  20
ENDBRANCH   1  19
TORSDOF 6
ENDMDL
MODEL 5
REMARK VINA RESULT:      -7.8      2.089      4.864
REMARK  Name = 
REMARK  7 active torsions:
REMARK  status: ('A' for Active; 'I' for Inactive)
REMARK    1  A    between atoms: C_1  and  N_2
REMARK    2  A    between atoms: C_5  and  N_6
REMARK    3  A    between atoms: N_6  and  C_7
REMARK    4  A    between atoms: C_7  and  C_8
REMARK    5  A    between atoms: C_8  and  C_9
REMARK    6  A    between atoms: C_15  and  C_17
REMARK    7  A    between atoms: C_21  and  C_22
REMARK                            x       y       z     vdW  Elec       q    Type
REMARK                         _______ _______ _______ _____ _____    ______ ____
ROOT
ATOM      1  N   UNL     1       3.152   5.971  19.023  0.00  0.00    +0.000 N 
ATOM      2  C   UNL     1       2.274   5.037  18.406  0.00  0.00    +0.000 C 
ATOM      3  O   UNL     1       1.170   5.382  17.985  0.00  0.00    +0.000 OA
ENDROOT
BRANCH   1   8
ATOM      4  C   UNL     1       0.295  10.944  18.781  0.00  0.00    +0.000 C 
ATOM      5  N   UNL     1       0.824   9.581  18.774  0.00  0.00    +0.000 NA
ATOM      6  C   UNL     1       1.864   9.417  17.755  0.00  0.00    +0.000 C 
ATOM      7  C   UNL     1       2.327   7.957  17.662  0.00  0.00    +0.000 C 
ATOM      8  C   UNL     1       2.779   7.414  19.032  0.00  0.00    +0.000 C 
ATOM      9  C   UNL     1       1.744   7.733  20.122  0.00  0.00    +0.000 C 
ATOM     10  C   UNL     1       1.323   9.201  20.099  0.00  0.00    +0.000 C 
ENDBRANCH   1   8
BRANCH   2  11
ATOM     11  C   UNL     1       2.680   3.625  18.288  0.00  0.00    +0.000 A 
ATOM     12  N   UNL     1       3.468   3.103  17.261  0.00  0.00    +0.000 NA
ATOM     13  C   UNL     1       3.610   1.839  17.581  0.00  0.00    +0.000 A 
ATOM     14  O   UNL     1       2.951   1.448  18.697  0.00  0.00    +0.000 OA
ATOM     15  C   UNL     1       2.340   2.589  19.149  0.00  0.00    +0.000 A 
BRANCH  15  16
ATOM     16  C   UNL     1       1.499   2.642  20.415  0.00  0.00    +0.000 C 
ATOM     17  C   UNL     1       2.113   2.147  21.709  0.00  0.00    +0.000 C 
ATOM     18  C   UNL     1       1.941   3.610  21.496  0.00  0.00    +0.000 C 
ENDBRANCH  15  16
ENDBRANCH   2  11
BRANCH   1  19
ATOM     19  C   UNL     1       4.448   5.536  19.588  0.00  0.00    +0.000 C 
BRANCH  19  20
ATOM     20  C   UNL     1       5.748   5.994  18.904  0.00  0.00    +0.000 C 
BRANCH  20  21
ATOM     21  C   UNL     1       5.892   5.600  17.441  0.00  0.00    +0.000 A 
ATOM     22  C   UNL     1       5.218   6.243  16.389  0.00  0.00    +0.000 A 
ATOM     23  C   UNL     1       5.359   5.797  15.069  0.00  0.00    +0.000 A 
ATOM     24  C   UNL     1       6.188   4.718  14.778  0.00  0.00    +0.000 A 
ATOM     25  C   UNL     1       6.894   4.095  15.803  0.00  0.00    +0.000 A 
ATOM     26  C   UNL     1       6.751   4.537  17.120  0.00  0.00    +0.000 A 
ENDBRANCH  20  21
ENDBRANCH  19  20
ENDBRANCH   1  19
TORSDOF 6
ENDMDL
MODEL 6
REMARK VINA RESULT:      -7.7      0.743      1.010
REMARK  Name = 
REMARK  7 active torsions:
REMARK  status: ('A' for Active; 'I' for Inactive)
REMARK    1  A    between atoms: C_1  and  N_2
REMARK    2  A    between atoms: C_5  and  N_6
REMARK    3  A    between atoms: N_6  and  C_7
REMARK    4  A    between atoms: C_7  and  C_8
REMARK    5  A    between atoms: C_8  and  C_9
REMARK    6  A    between atoms: C_15  and  C_17
REMARK    7  A    between atoms: C_21  and  C_22
REMARK                            x       y       z     vdW  Elec       q    Type
REMARK                         _______ _______ _______ _____ _____    ______ ____
ROOT
ATOM      1  N   UNL     1       3.283   6.210  17.487  0.00  0.00    +0.000 N 
ATOM      2  C   UNL     1       4.536   6.797  17.152  0.00  0.00    +0.000 C 
ATOM      3  O   UNL     1       4.759   7.988  17.364  0.00  0.00    +0.000 OA
ENDROOT
BRANCH   1   8
ATOM      4  C   UNL     1       0.668  10.267  20.594  0.00  0.00    +0.000 C 
ATOM      5  N   UNL     1       1.530   9.345  19.855  0.00  0.00    +0.000 NA
ATOM      6  C   UNL     1       1.517   8.007  20.452  0.00  0.00    +0.000 C 
ATOM      7  C   UNL     1       2.518   7.077  19.754  0.00  0.00    +0.000 C 
ATOM      8  C   UNL     1       2.282   7.025  18.232  0.00  0.00    +0.000 C 
ATOM      9  C   UNL     1       2.142   8.439  17.646  0.00  0.00    +0.000 C 
ATOM     10  C   UNL     1       1.154   9.292  18.439  0.00  0.00    +0.000 C 
ENDBRANCH   1   8
BRANCH   2  11
ATOM     11  C   UNL     1       5.579   5.971  16.517  0.00  0.00    +0.000 A 
ATOM     12  N   UNL     1       5.650   5.680  15.154  0.00  0.00    +0.000 NA
ATOM     13  C   UNL     1       6.743   4.967  15.037  0.00  0.00    +0.000 A 
ATOM     14  O   UNL     1       7.389   4.705  16.199  0.00  0.00    +0.000 OA
ATOM     15  C   UNL     1       6.638   5.338  17.155  0.00  0.00    +0.000 A 
BRANCH  15  16
ATOM     16  C   UNL     1       7.001   5.345  18.632  0.00  0.00    +0.000 C 
ATOM     17  C   UNL     1       8.413   4.967  19.029  0.00  0.00    +0.000 C 
ATOM     18  C   UNL     1       7.996   6.394  19.092  0.00  0.00    +0.000 C 
ENDBRANCH  15  16
ENDBRANCH   2  11
BRANCH   1  19
ATOM     19  C   UNL     1       2.998   4.794  17.167  0.00  0.00    +0.000 C 
BRANCH  19  20
ATOM     20  C   UNL     1       1.749   4.132  17.773  0.00  0.00    +0.000 C 
BRANCH  20  21
ATOM     21  C   UNL     1       1.931   3.540  19.164  0.00  0.00    +0.000 A 
ATOM     22  C   UNL     1       0.899   3.438  20.111  0.00  0.00    +0.000 A 
ATOM     23  C   UNL     1       1.149   2.928  21.391  0.00  0.00    +0.000 A 
ATOM     24  C   UNL     1       2.425   2.493  21.737  0.00  0.00    +0.000 A 
ATOM     25  C   UNL     1       3.450   2.550  20.797  0.00  0.00    +0.000 A 
ATOM     26  C   UNL     1       3.202   3.063  19.522  0.00  0.00    +0.000 A 
ENDBRANCH  20  21
ENDBRANCH  19  20
ENDBRANCH   1  19
TORSDOF 6
ENDMDL
MODEL 7
REMARK VINA RESULT:      -7.4      1.807      4.380
REMARK  Name = 
REMARK  7 active torsions:
REMARK  status: ('A' for Active; 'I' for Inactive)
REMARK    1  A    between atoms: C_1  and  N_2
REMARK    2  A    between atoms: C_5  and  N_6
REMARK    3  A    between atoms: N_6  and  C_7
REMARK    4  A    between atoms: C_7  and  C_8
REMARK    5  A    between atoms: C_8  and  C_9
REMARK    6  A    between atoms: C_15  and  C_17
REMARK    7  A    between atoms: C_21  and  C_22
REMARK                            x       y       z     vdW  Elec       q    Type
REMARK                         _______ _______ _______ _____ _____    ______ ____
ROOT
ATOM      1  N   UNL     1       3.327   5.127  17.998  0.00  0.00    +0.000 N 
ATOM      2  C   UNL     1       4.500   4.386  17.681  0.00  0.00    +0.000 C 
ATOM      3  O   UNL     1       4.828   3.399  18.338  0.00  0.00    +0.000 OA
ENDROOT
BRANCH   1   8
ATOM      4  C   UNL     1       0.988   2.144  22.309  0.00  0.00    +0.000 C 
ATOM      5  N   UNL     1       1.751   2.745  21.215  0.00  0.00    +0.000 NA
ATOM      6  C   UNL     1       1.011   2.685  19.952  0.00  0.00    +0.000 C 
ATOM      7  C   UNL     1       1.864   3.198  18.784  0.00  0.00    +0.000 C 
ATOM      8  C   UNL     1       2.414   4.612  19.057  0.00  0.00    +0.000 C 
ATOM      9  C   UNL     1       3.050   4.696  20.454  0.00  0.00    +0.000 C 
ATOM     10  C   UNL     1       2.136   4.123  21.535  0.00  0.00    +0.000 C 
ENDBRANCH   1   8
BRANCH   2  11
ATOM     11  C   UNL     1       5.353   4.819  16.559  0.00  0.00    +0.000 A 
ATOM     12  N   UNL     1       5.375   4.227  15.295  0.00  0.00    +0.000 NA
ATOM     13  C   UNL     1       6.231   4.954  14.619  0.00  0.00    +0.000 A 
ATOM     14  O   UNL     1       6.827   5.947  15.320  0.00  0.00    +0.000 OA
ATOM     15  C   UNL     1       6.276   5.858  16.572  0.00  0.00    +0.000 A 
BRANCH  15  16
ATOM     16  C   UNL     1       6.626   6.805  17.709  0.00  0.00    +0.000 C 
ATOM     17  C   UNL     1       7.881   6.533  18.512  0.00  0.00    +0.000 C 
ATOM     18  C   UNL     1       7.869   7.658  17.537  0.00  0.00    +0.000 C 
ENDBRANCH  15  16
ENDBRANCH   2  11
BRANCH   1  19
ATOM     19  C   UNL     1       2.976   6.351  17.246  0.00  0.00    +0.000 C 
BRANCH  19  20
ATOM     20  C   UNL     1       3.301   7.722  17.862  0.00  0.00    +0.000 C 
BRANCH  20  21
ATOM     21  C   UNL     1       2.134   8.431  18.535  0.00  0.00    +0.000 A 
ATOM     22  C   UNL     1       1.297   9.349  17.881  0.00  0.00    +0.000 A 
ATOM     23  C   UNL     1       0.271  10.004  18.574  0.00  0.00    +0.000 A 
ATOM     24  C   UNL     1       0.055   9.738  19.922  0.00  0.00    +0.000 A 
ATOM     25  C   UNL     1       0.850   8.801  20.576  0.00  0.00    +0.000 A 
ATOM     26  C   UNL     1       1.875   8.151  19.886  0.00  0.00    +0.000 A 
ENDBRANCH  20  21
ENDBRANCH  19  20
ENDBRANCH   1  19
TORSDOF 6
ENDMDL
MODEL 8
REMARK VINA RESULT:      -7.4      2.232      4.926
REMARK  Name = 
REMARK  7 active torsions:
REMARK  status: ('A' for Active; 'I' for Inactive)
REMARK    1  A    between atoms: C_1  and  N_2
REMARK    2  A    between atoms: C_5  and  N_6
REMARK    3  A    between atoms: N_6  and  C_7
REMARK    4  A    between atoms: C_7  and  C_8
REMARK    5  A    between atoms: C_8  and  C_9
REMARK    6  A    between atoms: C_15  and  C_17
REMARK    7  A    between atoms: C_21  and  C_22
REMARK                            x       y       z     vdW  Elec       q    Type
REMARK                         _______ _______ _______ _____ _____    ______ ____
ROOT
ATOM      1  N   UNL     1       2.417   7.428  19.151  0.00  0.00    +0.000 N 
ATOM      2  C   UNL     1       2.353   6.161  19.797  0.00  0.00    +0.000 C 
ATOM      3  O   UNL     1       1.467   5.905  20.612  0.00  0.00    +0.000 OA
ENDROOT
BRANCH   1   8
ATOM      4  C   UNL     1      -0.648  12.187  20.104  0.00  0.00    +0.000 C 
ATOM      5  N   UNL     1       0.317  11.107  19.906  0.00  0.00    +0.000 NA
ATOM      6  C   UNL     1       0.165  10.061  20.922  0.00  0.00    +0.000 C 
ATOM      7  C   UNL     1       1.260   8.994  20.790  0.00  0.00    +0.000 C 
ATOM      8  C   UNL     1       1.311   8.404  19.367  0.00  0.00    +0.000 C 
ATOM      9  C   UNL     1       1.314   9.517  18.307  0.00  0.00    +0.000 C 
ATOM     10  C   UNL     1       0.213  10.546  18.556  0.00  0.00    +0.000 C 
ENDBRANCH   1   8
BRANCH   2  11
ATOM     11  C   UNL     1       3.378   5.143  19.504  0.00  0.00    +0.000 A 
ATOM     12  N   UNL     1       4.723   5.237  19.863  0.00  0.00    +0.000 NA
ATOM     13  C   UNL     1       5.242   4.107  19.447  0.00  0.00    +0.000 A 
ATOM     14  O   UNL     1       4.387   3.282  18.798  0.00  0.00    +0.000 OA
ATOM     15  C   UNL     1       3.189   3.949  18.820  0.00  0.00    +0.000 A 
BRANCH  15  16
ATOM     16  C   UNL     1       1.908   3.385  18.225  0.00  0.00    +0.000 C 
ATOM     17  C   UNL     1       1.722   1.882  18.209  0.00  0.00    +0.000 C 
ATOM     18  C   UNL     1       0.948   2.702  19.181  0.00  0.00    +0.000 C 
ENDBRANCH  15  16
ENDBRANCH   2  11
BRANCH   1  19
ATOM     19  C   UNL     1       3.524   7.753  18.224  0.00  0.00    +0.000 C 
BRANCH  19  20
ATOM     20  C   UNL     1       3.567   7.066  16.849  0.00  0.00    +0.000 C 
BRANCH  20  21
ATOM     21  C   UNL     1       4.847   6.303  16.537  0.00  0.00    +0.000 A 
ATOM     22  C   UNL     1       4.887   5.120  15.781  0.00  0.00    +0.000 A 
ATOM     23  C   UNL     1       6.095   4.443  15.574  0.00  0.00    +0.000 A 
ATOM     24  C   UNL     1       7.281   4.945  16.102  0.00  0.00    +0.000 A 
ATOM     25  C   UNL     1       7.265   6.138  16.819  0.00  0.00    +0.000 A 
ATOM     26  C   UNL     1       6.060   6.812  17.029  0.00  0.00    +0.000 A 
ENDBRANCH  20  21
ENDBRANCH  19  20
ENDBRANCH   1  19
TORSDOF 6
ENDMDL
MODEL 9
REMARK VINA RESULT:      -7.3      2.088      4.745
REMARK  Name = 
REMARK  7 active torsions:
REMARK  status: ('A' for Active; 'I' for Inactive)
REMARK    1  A    between atoms: C_1  and  N_2
REMARK    2  A    between atoms: C_5  and  N_6
REMARK    3  A    between atoms: N_6  and  C_7
REMARK    4  A    between atoms: C_7  and  C_8
REMARK    5  A    between atoms: C_8  and  C_9
REMARK    6  A    between atoms: C_15  and  C_17
REMARK    7  A    between atoms: C_21  and  C_22
REMARK                            x       y       z     vdW  Elec       q    Type
REMARK                         _______ _______ _______ _____ _____    ______ ____
ROOT
ATOM      1  N   UNL     1       2.619   5.818  18.787  0.00  0.00    +0.000 N 
ATOM      2  C   UNL     1       2.033   4.693  18.142  0.00  0.00    +0.000 C 
ATOM      3  O   UNL     1       0.924   4.767  17.613  0.00  0.00    +0.000 OA
ENDROOT
BRANCH   1   8
ATOM      4  C   UNL     1       1.385  11.423  18.889  0.00  0.00    +0.000 C 
ATOM      5  N   UNL     1       1.901  10.056  18.959  0.00  0.00    +0.000 NA
ATOM      6  C   UNL     1       1.113   9.234  19.882  0.00  0.00    +0.000 C 
ATOM      7  C   UNL     1       1.732   7.840  20.051  0.00  0.00    +0.000 C 
ATOM      8  C   UNL     1       1.935   7.139  18.694  0.00  0.00    +0.000 C 
ATOM      9  C   UNL     1       2.625   8.072  17.687  0.00  0.00    +0.000 C 
ATOM     10  C   UNL     1       1.956   9.445  17.627  0.00  0.00    +0.000 C 
ENDBRANCH   1   8
BRANCH   2  11
ATOM     11  C   UNL     1       2.752   3.406  18.127  0.00  0.00    +0.000 A 
ATOM     12  N   UNL     1       3.732   3.049  17.198  0.00  0.00    +0.000 NA
ATOM     13  C   UNL     1       4.120   1.859  17.588  0.00  0.00    +0.000 A 
ATOM     14  O   UNL     1       3.461   1.359  18.660  0.00  0.00    +0.000 OA
ATOM     15  C   UNL     1       2.572   2.344  19.003  0.00  0.00    +0.000 A 
BRANCH  15  16
ATOM     16  C   UNL     1       1.623   2.239  20.187  0.00  0.00    +0.000 C 
ATOM     17  C   UNL     1       2.170   2.509  21.574  0.00  0.00    +0.000 C 
ATOM     18  C   UNL     1       1.296   3.524  20.924  0.00  0.00    +0.000 C 
ENDBRANCH  15  16
ENDBRANCH   2  11
BRANCH   1  19
ATOM     19  C   UNL     1       3.921   5.703  19.479  0.00  0.00    +0.000 C 
BRANCH  19  20
ATOM     20  C   UNL     1       5.148   6.409  18.878  0.00  0.00    +0.000 C 
BRANCH  20  21
ATOM     21  C   UNL     1       5.671   5.819  17.576  0.00  0.00    +0.000 A 
ATOM     22  C   UNL     1       5.149   6.132  16.311  0.00  0.00    +0.000 A 
ATOM     23  C   UNL     1       5.647   5.513  15.157  0.00  0.00    +0.000 A 
ATOM     24  C   UNL     1       6.683   4.589  15.248  0.00  0.00    +0.000 A 
ATOM     25  C   UNL     1       7.239   4.298  16.490  0.00  0.00    +0.000 A 
ATOM     26  C   UNL     1       6.741   4.911  17.641  0.00  0.00    +0.000 A 
ENDBRANCH  20  21
ENDBRANCH  19  20
ENDBRANCH   1  19
TORSDOF 6
ENDMDL
