MODEL 1
REMARK VINA RESULT:      -8.2      0.000      0.000
REMARK  Name = 
REMARK  3 active torsions:
REMARK  status: ('A' for Active; 'I' for Inactive)
REMARK    1  A    between atoms: C_4  and  C_5
REMARK    2  A    between atoms: C_12  and  C_13
REMARK    3  A    between atoms: N_19  and  O_20
REMARK                            x       y       z     vdW  Elec       q    Type
REMARK                         _______ _______ _______ _____ _____    ______ ____
ROOT
ATOM      1  O   UNL     1       7.956   5.122  18.959  0.00  0.00    +0.000 OA
ATOM      2  C   UNL     1       7.061   4.774  18.191  0.00  0.00    +0.000 A 
ATOM      3  C   UNL     1       7.335   4.771  16.724  0.00  0.00    +0.000 A 
ATOM      4  C   UNL     1       6.391   4.378  15.850  0.00  0.00    +0.000 A 
ATOM      5  C   UNL     1       5.095   3.946  16.340  0.00  0.00    +0.000 A 
ATOM      6  C   UNL     1       4.815   3.955  17.655  0.00  0.00    +0.000 A 
ATOM      7  N   UNL     1       5.782   4.374  18.543  0.00  0.00    +0.000 N 
ENDROOT
BRANCH   4   8
ATOM      8  C   UNL     1       6.708   4.405  14.415  0.00  0.00    +0.000 A 
ATOM      9  C   UNL     1       6.073   3.543  13.520  0.00  0.00    +0.000 A 
ATOM     10  C   UNL     1       6.368   3.623  12.161  0.00  0.00    +0.000 A 
ATOM     11  C   UNL     1       7.291   4.568  11.742  0.00  0.00    +0.000 A 
ATOM     12  N   UNL     1       7.923   5.421  12.578  0.00  0.00    +0.000 NA
ATOM     13  C   UNL     1       7.617   5.320  13.893  0.00  0.00    +0.000 A 
ENDBRANCH   4   8
BRANCH   6  14
ATOM     14  C   UNL     1       3.490   3.500  18.092  0.00  0.00    +0.000 A 
ATOM     15  C   UNL     1       3.323   2.204  18.590  0.00  0.00    +0.000 A 
ATOM     16  C   UNL     1       2.046   1.739  18.926  0.00  0.00    +0.000 A 
ATOM     17  C   UNL     1       0.940   2.569  18.771  0.00  0.00    +0.000 A 
ATOM     18  C   UNL     1       1.103   3.871  18.291  0.00  0.00    +0.000 A 
ATOM     19  C   UNL     1       2.374   4.336  17.952  0.00  0.00    +0.000 A 
ENDBRANCH   6  14
BRANCH   7  20
ATOM     20  O   UNL     1       5.465   4.436  19.918  0.00  0.00    +0.000 OA
ATOM     21  H   UNL     1       4.504   4.296  19.948  0.00  0.00    +0.000 HD
ENDBRANCH   7  20
TORSDOF 3
ENDMDL
MODEL 2
REMARK VINA RESULT:      -8.2      0.187      1.078
REMARK  Name = 
REMARK  3 active torsions:
REMARK  status: ('A' for Active; 'I' for Inactive)
REMARK    1  A    between atoms: C_4  and  C_5
REMARK    2  A    between atoms: C_12  and  C_13
REMARK    3  A    between atoms: N_19  and  O_20
REMARK                            x       y       z     vdW  Elec       q    Type
REMARK                         _______ _______ _______ _____ _____    ______ ____
ROOT
ATOM      1  O   UNL     1       7.976   5.087  18.947  0.00  0.00    +0.000 OA
ATOM      2  C   UNL     1       7.074   4.755  18.181  0.00  0.00    +0.000 A 
ATOM      3  C   UNL     1       7.343   4.753  16.713  0.00  0.00    +0.000 A 
ATOM      4  C   UNL     1       6.391   4.379  15.840  0.00  0.00    +0.000 A 
ATOM      5  C   UNL     1       5.089   3.966  16.333  0.00  0.00    +0.000 A 
ATOM      6  C   UNL     1       4.813   3.976  17.648  0.00  0.00    +0.000 A 
ATOM      7  N   UNL     1       5.789   4.375  18.535  0.00  0.00    +0.000 N 
ENDROOT
BRANCH   4   8
ATOM      8  C   UNL     1       6.705   4.405  14.405  0.00  0.00    +0.000 A 
ATOM      9  C   UNL     1       6.079   3.531  13.514  0.00  0.00    +0.000 A 
ATOM     10  C   UNL     1       6.371   3.611  12.154  0.00  0.00    +0.000 A 
ATOM     11  C   UNL     1       7.280   4.567  11.730  0.00  0.00    +0.000 A 
ATOM     12  N   UNL     1       7.902   5.431  12.562  0.00  0.00    +0.000 NA
ATOM     13  C   UNL     1       7.600   5.331  13.877  0.00  0.00    +0.000 A 
ENDBRANCH   4   8
BRANCH   6  14
ATOM     14  C   UNL     1       3.482   3.540  18.087  0.00  0.00    +0.000 A 
ATOM     15  C   UNL     1       2.473   4.484  18.307  0.00  0.00    +0.000 A 
ATOM     16  C   UNL     1       1.230   4.079  18.809  0.00  0.00    +0.000 A 
ATOM     17  C   UNL     1       0.994   2.735  19.083  0.00  0.00    +0.000 A 
ATOM     18  C   UNL     1       1.991   1.786  18.848  0.00  0.00    +0.000 A 
ATOM     19  C   UNL     1       3.233   2.187  18.351  0.00  0.00    +0.000 A 
ENDBRANCH   6  14
BRANCH   7  20
ATOM     20  O   UNL     1       5.477   4.439  19.911  0.00  0.00    +0.000 OA
ATOM     21  H   UNL     1       4.557   4.752  19.933  0.00  0.00    +0.000 HD
ENDBRANCH   7  20
TORSDOF 3
ENDMDL
MODEL 3
REMARK VINA RESULT:      -8.0      0.645      1.079
REMARK  Name = 
REMARK  3 active torsions:
REMARK  status: ('A' for Active; 'I' for Inactive)
REMARK    1  A    between atoms: C_4  and  C_5
REMARK    2  A    between atoms: C_12  and  C_13
REMARK    3  A    between atoms: N_19  and  O_20
REMARK                            x       y       z     vdW  Elec       q    Type
REMARK                         _______ _______ _______ _____ _____    ______ ____
ROOT
ATOM      1  O   UNL     1       7.962   5.113  18.890  0.00  0.00    +0.000 OA
ATOM      2  C   UNL     1       7.053   4.767  18.138  0.00  0.00    +0.000 A 
ATOM      3  C   UNL     1       7.301   4.765  16.666  0.00  0.00    +0.000 A 
ATOM      4  C   UNL     1       6.341   4.376  15.809  0.00  0.00    +0.000 A 
ATOM      5  C   UNL     1       5.053   3.945  16.322  0.00  0.00    +0.000 A 
ATOM      6  C   UNL     1       4.796   3.954  17.641  0.00  0.00    +0.000 A 
ATOM      7  N   UNL     1       5.780   4.370  18.513  0.00  0.00    +0.000 N 
ENDROOT
BRANCH   4   8
ATOM      8  C   UNL     1       6.633   4.403  14.369  0.00  0.00    +0.000 A 
ATOM      9  C   UNL     1       7.578   5.285  13.841  0.00  0.00    +0.000 A 
ATOM     10  C   UNL     1       7.859   5.255  12.477  0.00  0.00    +0.000 A 
ATOM     11  C   UNL     1       7.185   4.340  11.685  0.00  0.00    +0.000 A 
ATOM     12  N   UNL     1       6.267   3.470  12.160  0.00  0.00    +0.000 NA
ATOM     13  C   UNL     1       6.013   3.521  13.488  0.00  0.00    +0.000 A 
ENDBRANCH   4   8
BRANCH   6  14
ATOM     14  C   UNL     1       3.478   3.502  18.101  0.00  0.00    +0.000 A 
ATOM     15  C   UNL     1       3.285   2.167  18.470  0.00  0.00    +0.000 A 
ATOM     16  C   UNL     1       2.008   1.713  18.827  0.00  0.00    +0.000 A 
ATOM     17  C   UNL     1       0.931   2.594  18.820  0.00  0.00    +0.000 A 
ATOM     18  C   UNL     1       1.121   3.932  18.469  0.00  0.00    +0.000 A 
ATOM     19  C   UNL     1       2.391   4.386  18.110  0.00  0.00    +0.000 A 
ENDBRANCH   6  14
BRANCH   7  20
ATOM     20  O   UNL     1       5.487   4.432  19.893  0.00  0.00    +0.000 OA
ATOM     21  H   UNL     1       6.017   5.180  20.216  0.00  0.00    +0.000 HD
ENDBRANCH   7  20
TORSDOF 3
ENDMDL
MODEL 4
REMARK VINA RESULT:      -8.0      0.692      1.527
REMARK  Name = 
REMARK  3 active torsions:
REMARK  status: ('A' for Active; 'I' for Inactive)
REMARK    1  A    between atoms: C_4  and  C_5
REMARK    2  A    between atoms: C_12  and  C_13
REMARK    3  A    between atoms: N_19  and  O_20
REMARK                            x       y       z     vdW  Elec       q    Type
REMARK                         _______ _______ _______ _____ _____    ______ ____
ROOT
ATOM      1  O   UNL     1       7.975   5.094  18.880  0.00  0.00    +0.000 OA
ATOM      2  C   UNL     1       7.054   4.760  18.138  0.00  0.00    +0.000 A 
ATOM      3  C   UNL     1       7.290   4.745  16.664  0.00  0.00    +0.000 A 
ATOM      4  C   UNL     1       6.315   4.369  15.817  0.00  0.00    +0.000 A 
ATOM      5  C   UNL     1       5.024   3.965  16.343  0.00  0.00    +0.000 A 
ATOM      6  C   UNL     1       4.778   3.987  17.664  0.00  0.00    +0.000 A 
ATOM      7  N   UNL     1       5.777   4.389  18.525  0.00  0.00    +0.000 N 
ENDROOT
BRANCH   4   8
ATOM      8  C   UNL     1       6.596   4.382  14.374  0.00  0.00    +0.000 A 
ATOM      9  C   UNL     1       7.550   5.247  13.833  0.00  0.00    +0.000 A 
ATOM     10  C   UNL     1       7.819   5.204  12.467  0.00  0.00    +0.000 A 
ATOM     11  C   UNL     1       7.124   4.294  11.686  0.00  0.00    +0.000 A 
ATOM     12  N   UNL     1       6.198   3.441  12.174  0.00  0.00    +0.000 NA
ATOM     13  C   UNL     1       5.955   3.504  13.505  0.00  0.00    +0.000 A 
ENDBRANCH   4   8
BRANCH   6  14
ATOM     14  C   UNL     1       3.456   3.561  18.137  0.00  0.00    +0.000 A 
ATOM     15  C   UNL     1       2.472   4.514  18.421  0.00  0.00    +0.000 A 
ATOM     16  C   UNL     1       1.240   4.115  18.955  0.00  0.00    +0.000 A 
ATOM     17  C   UNL     1       0.991   2.768  19.197  0.00  0.00    +0.000 A 
ATOM     18  C   UNL     1       1.962   1.810  18.899  0.00  0.00    +0.000 A 
ATOM     19  C   UNL     1       3.192   2.205  18.370  0.00  0.00    +0.000 A 
ENDBRANCH   6  14
BRANCH   7  20
ATOM     20  O   UNL     1       5.497   4.464  19.907  0.00  0.00    +0.000 OA
ATOM     21  H   UNL     1       5.978   5.255  20.206  0.00  0.00    +0.000 HD
ENDBRANCH   7  20
TORSDOF 3
ENDMDL
MODEL 5
REMARK VINA RESULT:      -7.7      3.405      6.858
REMARK  Name = 
REMARK  3 active torsions:
REMARK  status: ('A' for Active; 'I' for Inactive)
REMARK    1  A    between atoms: C_4  and  C_5
REMARK    2  A    between atoms: C_12  and  C_13
REMARK    3  A    between atoms: N_19  and  O_20
REMARK                            x       y       z     vdW  Elec       q    Type
REMARK                         _______ _______ _______ _____ _____    ______ ____
ROOT
ATOM      1  O   UNL     1       2.466   2.900  21.310  0.00  0.00    +0.000 OA
ATOM      2  C   UNL     1       2.803   3.781  20.523  0.00  0.00    +0.000 A 
ATOM      3  C   UNL     1       2.170   5.128  20.638  0.00  0.00    +0.000 A 
ATOM      4  C   UNL     1       2.524   6.126  19.809  0.00  0.00    +0.000 A 
ATOM      5  C   UNL     1       3.538   5.893  18.797  0.00  0.00    +0.000 A 
ATOM      6  C   UNL     1       4.112   4.685  18.659  0.00  0.00    +0.000 A 
ATOM      7  N   UNL     1       3.733   3.662  19.502  0.00  0.00    +0.000 N 
ENDROOT
BRANCH   4   8
ATOM      8  C   UNL     1       1.862   7.430  19.958  0.00  0.00    +0.000 A 
ATOM      9  C   UNL     1       1.242   7.791  21.156  0.00  0.00    +0.000 A 
ATOM     10  C   UNL     1       0.659   9.050  21.276  0.00  0.00    +0.000 A 
ATOM     11  C   UNL     1       0.719   9.910  20.190  0.00  0.00    +0.000 A 
ATOM     12  N   UNL     1       1.313   9.597  19.018  0.00  0.00    +0.000 NA
ATOM     13  C   UNL     1       1.870   8.366  18.929  0.00  0.00    +0.000 A 
ENDBRANCH   4   8
BRANCH   6  14
ATOM     14  C   UNL     1       5.136   4.511  17.623  0.00  0.00    +0.000 A 
ATOM     15  C   UNL     1       6.484   4.729  17.925  0.00  0.00    +0.000 A 
ATOM     16  C   UNL     1       7.453   4.648  16.917  0.00  0.00    +0.000 A 
ATOM     17  C   UNL     1       7.076   4.343  15.613  0.00  0.00    +0.000 A 
ATOM     18  C   UNL     1       5.734   4.106  15.308  0.00  0.00    +0.000 A 
ATOM     19  C   UNL     1       4.765   4.190  16.310  0.00  0.00    +0.000 A 
ENDBRANCH   6  14
BRANCH   7  20
ATOM     20  O   UNL     1       4.296   2.380  19.316  0.00  0.00    +0.000 OA
ATOM     21  H   UNL     1       3.641   1.774  19.700  0.00  0.00    +0.000 HD
ENDBRANCH   7  20
TORSDOF 3
ENDMDL
MODEL 6
REMARK VINA RESULT:      -7.7      3.581      6.867
REMARK  Name = 
REMARK  3 active torsions:
REMARK  status: ('A' for Active; 'I' for Inactive)
REMARK    1  A    between atoms: C_4  and  C_5
REMARK    2  A    between atoms: C_12  and  C_13
REMARK    3  A    between atoms: N_19  and  O_20
REMARK                            x       y       z     vdW  Elec       q    Type
REMARK                         _______ _______ _______ _____ _____    ______ ____
ROOT
ATOM      1  O   UNL     1       2.077   3.447  21.358  0.00  0.00    +0.000 OA
ATOM      2  C   UNL     1       2.516   4.250  20.537  0.00  0.00    +0.000 A 
ATOM      3  C   UNL     1       1.963   5.636  20.521  0.00  0.00    +0.000 A 
ATOM      4  C   UNL     1       2.429   6.551  19.652  0.00  0.00    +0.000 A 
ATOM      5  C   UNL     1       3.486   6.188  18.726  0.00  0.00    +0.000 A 
ATOM      6  C   UNL     1       3.990   4.943  18.707  0.00  0.00    +0.000 A 
ATOM      7  N   UNL     1       3.497   4.006  19.589  0.00  0.00    +0.000 N 
ENDROOT
BRANCH   4   8
ATOM      8  C   UNL     1       1.842   7.898  19.670  0.00  0.00    +0.000 A 
ATOM      9  C   UNL     1       1.775   8.672  18.510  0.00  0.00    +0.000 A 
ATOM     10  C   UNL     1       1.176   9.929  18.555  0.00  0.00    +0.000 A 
ATOM     11  C   UNL     1       0.659  10.369  19.763  0.00  0.00    +0.000 A 
ATOM     12  N   UNL     1       0.702   9.648  20.904  0.00  0.00    +0.000 NA
ATOM     13  C   UNL     1       1.291   8.431  20.832  0.00  0.00    +0.000 A 
ENDBRANCH   4   8
BRANCH   6  14
ATOM     14  C   UNL     1       5.063   4.637  17.754  0.00  0.00    +0.000 A 
ATOM     15  C   UNL     1       6.401   4.792  18.130  0.00  0.00    +0.000 A 
ATOM     16  C   UNL     1       7.424   4.584  17.196  0.00  0.00    +0.000 A 
ATOM     17  C   UNL     1       7.109   4.215  15.891  0.00  0.00    +0.000 A 
ATOM     18  C   UNL     1       5.776   4.040  15.514  0.00  0.00    +0.000 A 
ATOM     19  C   UNL     1       4.755   4.250  16.443  0.00  0.00    +0.000 A 
ENDBRANCH   6  14
BRANCH   7  20
ATOM     20  O   UNL     1       3.989   2.683  19.527  0.00  0.00    +0.000 OA
ATOM     21  H   UNL     1       4.241   2.478  20.443  0.00  0.00    +0.000 HD
ENDBRANCH   7  20
TORSDOF 3
ENDMDL
MODEL 7
REMARK VINA RESULT:      -7.5      3.154      4.274
REMARK  Name = 
REMARK  3 active torsions:
REMARK  status: ('A' for Active; 'I' for Inactive)
REMARK    1  A    between atoms: C_4  and  C_5
REMARK    2  A    between atoms: C_12  and  C_13
REMARK    3  A    between atoms: N_19  and  O_20
REMARK                            x       y       z     vdW  Elec       q    Type
REMARK                         _______ _______ _______ _____ _____    ______ ____
ROOT
ATOM      1  O   UNL     1       3.493   3.026  20.316  0.00  0.00    +0.000 OA
ATOM      2  C   UNL     1       3.575   4.011  19.585  0.00  0.00    +0.000 A 
ATOM      3  C   UNL     1       4.480   3.952  18.399  0.00  0.00    +0.000 A 
ATOM      4  C   UNL     1       4.585   5.000  17.562  0.00  0.00    +0.000 A 
ATOM      5  C   UNL     1       3.804   6.198  17.812  0.00  0.00    +0.000 A 
ATOM      6  C   UNL     1       2.996   6.286  18.882  0.00  0.00    +0.000 A 
ATOM      7  N   UNL     1       2.905   5.213  19.743  0.00  0.00    +0.000 N 
ENDROOT
BRANCH   4   8
ATOM      8  C   UNL     1       5.498   4.893  16.416  0.00  0.00    +0.000 A 
ATOM      9  C   UNL     1       5.206   4.057  15.336  0.00  0.00    +0.000 A 
ATOM     10  C   UNL     1       6.074   4.011  14.248  0.00  0.00    +0.000 A 
ATOM     11  C   UNL     1       7.207   4.808  14.275  0.00  0.00    +0.000 A 
ATOM     12  N   UNL     1       7.521   5.631  15.300  0.00  0.00    +0.000 NA
ATOM     13  C   UNL     1       6.661   5.654  16.344  0.00  0.00    +0.000 A 
ENDBRANCH   4   8
BRANCH   6  14
ATOM     14  C   UNL     1       2.226   7.519  19.078  0.00  0.00    +0.000 A 
ATOM     15  C   UNL     1       1.972   8.368  17.995  0.00  0.00    +0.000 A 
ATOM     16  C   UNL     1       1.313   9.587  18.196  0.00  0.00    +0.000 A 
ATOM     17  C   UNL     1       0.902   9.953  19.475  0.00  0.00    +0.000 A 
ATOM     18  C   UNL     1       1.136   9.102  20.557  0.00  0.00    +0.000 A 
ATOM     19  C   UNL     1       1.796   7.887  20.360  0.00  0.00    +0.000 A 
ENDBRANCH   6  14
BRANCH   7  20
ATOM     20  O   UNL     1       2.098   5.331  20.897  0.00  0.00    +0.000 OA
ATOM     21  H   UNL     1       1.219   5.039  20.604  0.00  0.00    +0.000 HD
ENDBRANCH   7  20
TORSDOF 3
ENDMDL
MODEL 8
REMARK VINA RESULT:      -7.5      3.612      7.047
REMARK  Name = 
REMARK  3 active torsions:
REMARK  status: ('A' for Active; 'I' for Inactive)
REMARK    1  A    between atoms: C_4  and  C_5
REMARK    2  A    between atoms: C_12  and  C_13
REMARK    3  A    between atoms: N_19  and  O_20
REMARK                            x       y       z     vdW  Elec       q    Type
REMARK                         _______ _______ _______ _____ _____    ______ ____
ROOT
ATOM      1  O   UNL     1       1.991   3.082  21.136  0.00  0.00    +0.000 OA
ATOM      2  C   UNL     1       2.435   3.993  20.440  0.00  0.00    +0.000 A 
ATOM      3  C   UNL     1       1.862   5.362  20.598  0.00  0.00    +0.000 A 
ATOM      4  C   UNL     1       2.332   6.392  19.871  0.00  0.00    +0.000 A 
ATOM      5  C   UNL     1       3.414   6.169  18.929  0.00  0.00    +0.000 A 
ATOM      6  C   UNL     1       3.937   4.943  18.753  0.00  0.00    +0.000 A 
ATOM      7  N   UNL     1       3.439   3.890  19.491  0.00  0.00    +0.000 N 
ENDROOT
BRANCH   4   8
ATOM      8  C   UNL     1       1.725   7.717  20.056  0.00  0.00    +0.000 A 
ATOM      9  C   UNL     1       1.218   8.111  21.296  0.00  0.00    +0.000 A 
ATOM     10  C   UNL     1       0.686   9.389  21.447  0.00  0.00    +0.000 A 
ATOM     11  C   UNL     1       0.683  10.235  20.349  0.00  0.00    +0.000 A 
ATOM     12  N   UNL     1       1.167   9.890  19.136  0.00  0.00    +0.000 NA
ATOM     13  C   UNL     1       1.677   8.642  19.018  0.00  0.00    +0.000 A 
ENDBRANCH   4   8
BRANCH   6  14
ATOM     14  C   UNL     1       5.034   4.781  17.792  0.00  0.00    +0.000 A 
ATOM     15  C   UNL     1       4.756   4.477  16.455  0.00  0.00    +0.000 A 
ATOM     16  C   UNL     1       5.802   4.236  15.557  0.00  0.00    +0.000 A 
ATOM     17  C   UNL     1       7.122   4.307  15.991  0.00  0.00    +0.000 A 
ATOM     18  C   UNL     1       7.407   4.628  17.320  0.00  0.00    +0.000 A 
ATOM     19  C   UNL     1       6.365   4.864  18.219  0.00  0.00    +0.000 A 
ENDBRANCH   6  14
BRANCH   7  20
ATOM     20  O   UNL     1       3.952   2.594  19.262  0.00  0.00    +0.000 OA
ATOM     21  H   UNL     1       4.906   2.683  19.424  0.00  0.00    +0.000 HD
ENDBRANCH   7  20
TORSDOF 3
ENDMDL
MODEL 9
REMARK VINA RESULT:      -7.5      3.606      7.028
REMARK  Name = 
REMARK  3 active torsions:
REMARK  status: ('A' for Active; 'I' for Inactive)
REMARK    1  A    between atoms: C_4  and  C_5
REMARK    2  A    between atoms: C_12  and  C_13
REMARK    3  A    between atoms: N_19  and  O_20
REMARK                            x       y       z     vdW  Elec       q    Type
REMARK                         _______ _______ _______ _____ _____    ______ ____
ROOT
ATOM      1  O   UNL     1       2.009   3.165  21.095  0.00  0.00    +0.000 OA
ATOM      2  C   UNL     1       2.453   4.059  20.378  0.00  0.00    +0.000 A 
ATOM      3  C   UNL     1       1.899   5.437  20.522  0.00  0.00    +0.000 A 
ATOM      4  C   UNL     1       2.370   6.449  19.771  0.00  0.00    +0.000 A 
ATOM      5  C   UNL     1       3.434   6.198  18.816  0.00  0.00    +0.000 A 
ATOM      6  C   UNL     1       3.938   4.963  18.652  0.00  0.00    +0.000 A 
ATOM      7  N   UNL     1       3.440   3.928  19.414  0.00  0.00    +0.000 N 
ENDROOT
BRANCH   4   8
ATOM      8  C   UNL     1       1.782   7.784  19.945  0.00  0.00    +0.000 A 
ATOM      9  C   UNL     1       1.691   8.677  18.875  0.00  0.00    +0.000 A 
ATOM     10  C   UNL     1       1.091   9.920  19.066  0.00  0.00    +0.000 A 
ATOM     11  C   UNL     1       0.598  10.227  20.324  0.00  0.00    +0.000 A 
ATOM     12  N   UNL     1       0.665   9.388  21.381  0.00  0.00    +0.000 NA
ATOM     13  C   UNL     1       1.254   8.188  21.168  0.00  0.00    +0.000 A 
ENDBRANCH   4   8
BRANCH   6  14
ATOM     14  C   UNL     1       5.018   4.772  17.676  0.00  0.00    +0.000 A 
ATOM     15  C   UNL     1       4.714   4.456  16.348  0.00  0.00    +0.000 A 
ATOM     16  C   UNL     1       5.743   4.188  15.436  0.00  0.00    +0.000 A 
ATOM     17  C   UNL     1       7.071   4.243  15.850  0.00  0.00    +0.000 A 
ATOM     18  C   UNL     1       7.381   4.575  17.170  0.00  0.00    +0.000 A 
ATOM     19  C   UNL     1       6.357   4.839  18.082  0.00  0.00    +0.000 A 
ENDBRANCH   6  14
BRANCH   7  20
ATOM     20  O   UNL     1       3.933   2.622  19.199  0.00  0.00    +0.000 OA
ATOM     21  H   UNL     1       4.205   2.620  18.266  0.00  0.00    +0.000 HD
ENDBRANCH   7  20
TORSDOF 3
ENDMDL
