MODEL 1
REMARK VINA RESULT:      -7.8      0.000      0.000
REMARK  Name = 
REMARK  11 active torsions:
REMARK  status: ('A' for Active; 'I' for Inactive)
REMARK    1  A    between atoms: C_1  and  C_2
REMARK    2  A    between atoms: C_5  and  S_6
REMARK    3  A    between atoms: S_6  and  C_9
REMARK    4  A    between atoms: C_9  and  C_10
REMARK    5  A    between atoms: C_9  and  C_11
REMARK    6  A    between atoms: C_13  and  C_14
REMARK    7  A    between atoms: C_15  and  C_16
REMARK    8  A    between atoms: C_22  and  O_23
REMARK    9  A    between atoms: O_23  and  C_24
REMARK   10  A    between atoms: C_24  and  C_25
REMARK   11  A    between atoms: C_25  and  O_27
REMARK                            x       y       z     vdW  Elec       q    Type
REMARK                         _______ _______ _______ _____ _____    ______ ____
ROOT
ATOM      1  C   UNL     1       1.504   8.432  18.462  0.00  0.00    +0.000 C 
ATOM      2  C   UNL     1       0.623   9.257  18.518  0.00  0.00    +0.000 C 
ENDROOT
BRANCH   1   9
ATOM      3  C   UNL     1       1.622   6.529  20.739  0.00  0.00    +0.000 C 
ATOM      4  C   UNL     1       2.589   6.499  19.591  0.00  0.00    +0.000 A 
ATOM      5  C   UNL     1       3.654   5.587  19.669  0.00  0.00    +0.000 A 
ATOM      6  C   UNL     1       4.640   5.562  18.692  0.00  0.00    +0.000 A 
ATOM      7  C   UNL     1       4.552   6.435  17.610  0.00  0.00    +0.000 A 
ATOM      8  C   UNL     1       3.470   7.320  17.481  0.00  0.00    +0.000 A 
ATOM      9  C   UNL     1       2.502   7.387  18.497  0.00  0.00    +0.000 A 
BRANCH   7  10
ATOM     10  S   UNL     1       5.878   6.437  16.421  0.00  0.00    +0.000 S 
ATOM     11  O   UNL     1       5.312   6.803  15.136  0.00  0.00    +0.000 OA
ATOM     12  O   UNL     1       6.938   7.231  17.014  0.00  0.00    +0.000 OA
BRANCH  10  13
ATOM     13  C   UNL     1       6.444   4.736  16.307  0.00  0.00    +0.000 C 
ATOM     14  C   UNL     1       6.801   4.325  14.880  0.00  0.00    +0.000 C 
ATOM     15  C   UNL     1       7.650   4.536  17.222  0.00  0.00    +0.000 C 
ENDBRANCH  10  13
ENDBRANCH   7  10
ENDBRANCH   1   9
BRANCH   2  16
ATOM     16  C   UNL     1      -0.421  10.248  18.662  0.00  0.00    +0.000 A 
ATOM     17  C   UNL     1      -1.397  10.295  17.652  0.00  0.00    +0.000 A 
ATOM     18  C   UNL     1      -2.450  11.209  17.709  0.00  0.00    +0.000 A 
ATOM     19 CL   UNL     1      -3.607  11.279  16.440  0.00  0.00    +0.000 Cl
ATOM     20  C   UNL     1      -2.573  12.078  18.788  0.00  0.00    +0.000 A 
ATOM     21  C   UNL     1      -1.618  12.040  19.800  0.00  0.00    +0.000 A 
ATOM     22  C   UNL     1      -0.527  11.159  19.736  0.00  0.00    +0.000 A 
BRANCH  22  23
ATOM     23  O   UNL     1       0.303  11.335  20.811  0.00  0.00    +0.000 OA
BRANCH  23  24
ATOM     24  C   UNL     1      -0.267  11.170  22.103  0.00  0.00    +0.000 C 
BRANCH  24  25
ATOM     25  C   UNL     1       0.185   9.854  22.713  0.00  0.00    +0.000 C 
ATOM     26  O   UNL     1       1.344   9.462  22.705  0.00  0.00    +0.000 OA
BRANCH  25  27
ATOM     27  O   UNL     1      -0.824   9.142  23.268  0.00  0.00    +0.000 OA
ATOM     28  H   UNL     1      -1.622   9.708  23.349  0.00  0.00    +0.000 HD
ENDBRANCH  25  27
ENDBRANCH  24  25
ENDBRANCH  23  24
ENDBRANCH  22  23
ENDBRANCH   2  16
TORSDOF 8
ENDMDL
MODEL 2
REMARK VINA RESULT:      -7.8      2.266      3.113
REMARK  Name = 
REMARK  11 active torsions:
REMARK  status: ('A' for Active; 'I' for Inactive)
REMARK    1  A    between atoms: C_1  and  C_2
REMARK    2  A    between atoms: C_5  and  S_6
REMARK    3  A    between atoms: S_6  and  C_9
REMARK    4  A    between atoms: C_9  and  C_10
REMARK    5  A    between atoms: C_9  and  C_11
REMARK    6  A    between atoms: C_13  and  C_14
REMARK    7  A    between atoms: C_15  and  C_16
REMARK    8  A    between atoms: C_22  and  O_23
REMARK    9  A    between atoms: O_23  and  C_24
REMARK   10  A    between atoms: C_24  and  C_25
REMARK   11  A    between atoms: C_25  and  O_27
REMARK                            x       y       z     vdW  Elec       q    Type
REMARK                         _______ _______ _______ _____ _____    ______ ____
ROOT
ATOM      1  C   UNL     1       2.109   8.176  18.300  0.00  0.00    +0.000 C 
ATOM      2  C   UNL     1       1.318   9.089  18.248  0.00  0.00    +0.000 C 
ENDROOT
BRANCH   1   9
ATOM      3  C   UNL     1       1.720   6.228  20.507  0.00  0.00    +0.000 C 
ATOM      4  C   UNL     1       2.805   6.099  19.478  0.00  0.00    +0.000 A 
ATOM      5  C   UNL     1       3.732   5.057  19.646  0.00  0.00    +0.000 A 
ATOM      6  C   UNL     1       4.816   4.927  18.788  0.00  0.00    +0.000 A 
ATOM      7  C   UNL     1       4.966   5.826  17.734  0.00  0.00    +0.000 A 
ATOM      8  C   UNL     1       4.025   6.844  17.513  0.00  0.00    +0.000 A 
ATOM      9  C   UNL     1       2.958   7.012  18.412  0.00  0.00    +0.000 A 
BRANCH   7  10
ATOM     10  S   UNL     1       6.413   5.684  16.707  0.00  0.00    +0.000 S 
ATOM     11  O   UNL     1       6.800   4.285  16.689  0.00  0.00    +0.000 OA
ATOM     12  O   UNL     1       6.091   6.376  15.473  0.00  0.00    +0.000 OA
BRANCH  10  13
ATOM     13  C   UNL     1       7.709   6.601  17.547  0.00  0.00    +0.000 C 
ATOM     14  C   UNL     1       7.469   8.109  17.539  0.00  0.00    +0.000 C 
ATOM     15  C   UNL     1       7.837   6.103  18.985  0.00  0.00    +0.000 C 
ENDBRANCH  10  13
ENDBRANCH   7  10
ENDBRANCH   1   9
BRANCH   2  16
ATOM     16  C   UNL     1       0.350  10.164  18.258  0.00  0.00    +0.000 A 
ATOM     17  C   UNL     1      -0.948   9.854  17.818  0.00  0.00    +0.000 A 
ATOM     18  C   UNL     1      -1.954  10.821  17.802  0.00  0.00    +0.000 A 
ATOM     19 CL   UNL     1      -3.523  10.431  17.218  0.00  0.00    +0.000 Cl
ATOM     20  C   UNL     1      -1.700  12.112  18.251  0.00  0.00    +0.000 A 
ATOM     21  C   UNL     1      -0.420  12.434  18.695  0.00  0.00    +0.000 A 
ATOM     22  C   UNL     1       0.616  11.486  18.674  0.00  0.00    +0.000 A 
BRANCH  22  23
ATOM     23  O   UNL     1       1.791  12.041  19.108  0.00  0.00    +0.000 OA
BRANCH  23  24
ATOM     24  C   UNL     1       2.659  12.575  18.117  0.00  0.00    +0.000 C 
BRANCH  24  25
ATOM     25  C   UNL     1       2.936  14.042  18.397  0.00  0.00    +0.000 C 
ATOM     26  O   UNL     1       2.664  14.597  19.453  0.00  0.00    +0.000 OA
BRANCH  25  27
ATOM     27  O   UNL     1       3.513  14.690  17.357  0.00  0.00    +0.000 OA
ATOM     28  H   UNL     1       4.120  14.081  16.884  0.00  0.00    +0.000 HD
ENDBRANCH  25  27
ENDBRANCH  24  25
ENDBRANCH  23  24
ENDBRANCH  22  23
ENDBRANCH   2  16
TORSDOF 8
ENDMDL
MODEL 3
REMARK VINA RESULT:      -7.8      2.040      2.454
REMARK  Name = 
REMARK  11 active torsions:
REMARK  status: ('A' for Active; 'I' for Inactive)
REMARK    1  A    between atoms: C_1  and  C_2
REMARK    2  A    between atoms: C_5  and  S_6
REMARK    3  A    between atoms: S_6  and  C_9
REMARK    4  A    between atoms: C_9  and  C_10
REMARK    5  A    between atoms: C_9  and  C_11
REMARK    6  A    between atoms: C_13  and  C_14
REMARK    7  A    between atoms: C_15  and  C_16
REMARK    8  A    between atoms: C_22  and  O_23
REMARK    9  A    between atoms: O_23  and  C_24
REMARK   10  A    between atoms: C_24  and  C_25
REMARK   11  A    between atoms: C_25  and  O_27
REMARK                            x       y       z     vdW  Elec       q    Type
REMARK                         _______ _______ _______ _____ _____    ______ ____
ROOT
ATOM      1  C   UNL     1       2.175   7.691  18.672  0.00  0.00    +0.000 C 
ATOM      2  C   UNL     1       1.718   8.785  18.910  0.00  0.00    +0.000 C 
ENDROOT
BRANCH   1   9
ATOM      3  C   UNL     1       1.722   5.331  20.417  0.00  0.00    +0.000 C 
ATOM      4  C   UNL     1       2.659   5.319  19.244  0.00  0.00    +0.000 A 
ATOM      5  C   UNL     1       3.424   4.159  19.043  0.00  0.00    +0.000 A 
ATOM      6  C   UNL     1       4.378   4.104  18.035  0.00  0.00    +0.000 A 
ATOM      7  C   UNL     1       4.553   5.205  17.199  0.00  0.00    +0.000 A 
ATOM      8  C   UNL     1       3.765   6.357  17.347  0.00  0.00    +0.000 A 
ATOM      9  C   UNL     1       2.839   6.436  18.401  0.00  0.00    +0.000 A 
BRANCH   7  10
ATOM     10  S   UNL     1       5.844   5.134  15.975  0.00  0.00    +0.000 S 
ATOM     11  O   UNL     1       6.005   3.744  15.590  0.00  0.00    +0.000 OA
ATOM     12  O   UNL     1       5.504   6.139  14.985  0.00  0.00    +0.000 OA
BRANCH  10  13
ATOM     13  C   UNL     1       7.349   5.650  16.810  0.00  0.00    +0.000 C 
ATOM     14  C   UNL     1       7.236   7.041  17.428  0.00  0.00    +0.000 C 
ATOM     15  C   UNL     1       7.710   4.629  17.887  0.00  0.00    +0.000 C 
ENDBRANCH  10  13
ENDBRANCH   7  10
ENDBRANCH   1   9
BRANCH   2  16
ATOM     16  C   UNL     1       1.223  10.123  19.145  0.00  0.00    +0.000 A 
ATOM     17  C   UNL     1       1.915  11.175  18.520  0.00  0.00    +0.000 A 
ATOM     18  C   UNL     1       1.506  12.500  18.678  0.00  0.00    +0.000 A 
ATOM     19 CL   UNL     1       2.393  13.775  17.940  0.00  0.00    +0.000 Cl
ATOM     20  C   UNL     1       0.382  12.807  19.437  0.00  0.00    +0.000 A 
ATOM     21  C   UNL     1      -0.317  11.776  20.059  0.00  0.00    +0.000 A 
ATOM     22  C   UNL     1       0.107  10.442  19.949  0.00  0.00    +0.000 A 
BRANCH  22  23
ATOM     23  O   UNL     1      -0.701   9.613  20.681  0.00  0.00    +0.000 OA
BRANCH  23  24
ATOM     24  C   UNL     1      -0.062   8.691  21.553  0.00  0.00    +0.000 C 
BRANCH  24  25
ATOM     25  C   UNL     1       0.595   9.428  22.707  0.00  0.00    +0.000 C 
ATOM     26  O   UNL     1      -0.019  10.090  23.532  0.00  0.00    +0.000 OA
BRANCH  25  27
ATOM     27  O   UNL     1       1.943   9.291  22.737  0.00  0.00    +0.000 OA
ATOM     28  H   UNL     1       2.202   8.747  23.511  0.00  0.00    +0.000 HD
ENDBRANCH  25  27
ENDBRANCH  24  25
ENDBRANCH  23  24
ENDBRANCH  22  23
ENDBRANCH   2  16
TORSDOF 8
ENDMDL
MODEL 4
REMARK VINA RESULT:      -7.7      2.640      3.618
REMARK  Name = 
REMARK  11 active torsions:
REMARK  status: ('A' for Active; 'I' for Inactive)
REMARK    1  A    between atoms: C_1  and  C_2
REMARK    2  A    between atoms: C_5  and  S_6
REMARK    3  A    between atoms: S_6  and  C_9
REMARK    4  A    between atoms: C_9  and  C_10
REMARK    5  A    between atoms: C_9  and  C_11
REMARK    6  A    between atoms: C_13  and  C_14
REMARK    7  A    between atoms: C_15  and  C_16
REMARK    8  A    between atoms: C_22  and  O_23
REMARK    9  A    between atoms: O_23  and  C_24
REMARK   10  A    between atoms: C_24  and  C_25
REMARK   11  A    between atoms: C_25  and  O_27
REMARK                            x       y       z     vdW  Elec       q    Type
REMARK                         _______ _______ _______ _____ _____    ______ ____
ROOT
ATOM      1  C   UNL     1       2.006   8.674  18.439  0.00  0.00    +0.000 C 
ATOM      2  C   UNL     1       1.530   9.782  18.515  0.00  0.00    +0.000 C 
ENDROOT
BRANCH   1   9
ATOM      3  C   UNL     1       1.757   6.720  20.661  0.00  0.00    +0.000 C 
ATOM      4  C   UNL     1       2.607   6.481  19.448  0.00  0.00    +0.000 A 
ATOM      5  C   UNL     1       3.394   5.318  19.431  0.00  0.00    +0.000 A 
ATOM      6  C   UNL     1       4.275   5.072  18.387  0.00  0.00    +0.000 A 
ATOM      7  C   UNL     1       4.354   5.978  17.331  0.00  0.00    +0.000 A 
ATOM      8  C   UNL     1       3.541   7.122  17.298  0.00  0.00    +0.000 A 
ATOM      9  C   UNL     1       2.691   7.402  18.381  0.00  0.00    +0.000 A 
BRANCH   7  10
ATOM     10  S   UNL     1       5.556   5.677  16.053  0.00  0.00    +0.000 S 
ATOM     11  O   UNL     1       5.444   4.282  15.668  0.00  0.00    +0.000 OA
ATOM     12  O   UNL     1       5.363   6.730  15.074  0.00  0.00    +0.000 OA
BRANCH  10  13
ATOM     13  C   UNL     1       7.164   5.907  16.820  0.00  0.00    +0.000 C 
ATOM     14  C   UNL     1       7.223   7.142  17.715  0.00  0.00    +0.000 C 
ATOM     15  C   UNL     1       7.528   4.662  17.626  0.00  0.00    +0.000 C 
ENDBRANCH  10  13
ENDBRANCH   7  10
ENDBRANCH   1   9
BRANCH   2  16
ATOM     16  C   UNL     1       1.020  11.135  18.568  0.00  0.00    +0.000 A 
ATOM     17  C   UNL     1       1.968  12.172  18.546  0.00  0.00    +0.000 A 
ATOM     18  C   UNL     1       1.573  13.510  18.582  0.00  0.00    +0.000 A 
ATOM     19 CL   UNL     1       2.751  14.762  18.599  0.00  0.00    +0.000 Cl
ATOM     20  C   UNL     1       0.224  13.848  18.610  0.00  0.00    +0.000 A 
ATOM     21  C   UNL     1      -0.727  12.832  18.626  0.00  0.00    +0.000 A 
ATOM     22  C   UNL     1      -0.346  11.480  18.638  0.00  0.00    +0.000 A 
BRANCH  22  23
ATOM     23  O   UNL     1      -1.446  10.667  18.704  0.00  0.00    +0.000 OA
BRANCH  23  24
ATOM     24  C   UNL     1      -1.821   9.986  17.514  0.00  0.00    +0.000 C 
BRANCH  24  25
ATOM     25  C   UNL     1      -2.929  10.744  16.803  0.00  0.00    +0.000 C 
ATOM     26  O   UNL     1      -4.111  10.666  17.106  0.00  0.00    +0.000 OA
BRANCH  25  27
ATOM     27  O   UNL     1      -2.485  11.518  15.783  0.00  0.00    +0.000 OA
ATOM     28  H   UNL     1      -2.112  12.352  16.142  0.00  0.00    +0.000 HD
ENDBRANCH  25  27
ENDBRANCH  24  25
ENDBRANCH  23  24
ENDBRANCH  22  23
ENDBRANCH   2  16
TORSDOF 8
ENDMDL
MODEL 5
REMARK VINA RESULT:      -7.6      4.029      8.038
REMARK  Name = 
REMARK  11 active torsions:
REMARK  status: ('A' for Active; 'I' for Inactive)
REMARK    1  A    between atoms: C_1  and  C_2
REMARK    2  A    between atoms: C_5  and  S_6
REMARK    3  A    between atoms: S_6  and  C_9
REMARK    4  A    between atoms: C_9  and  C_10
REMARK    5  A    between atoms: C_9  and  C_11
REMARK    6  A    between atoms: C_13  and  C_14
REMARK    7  A    between atoms: C_15  and  C_16
REMARK    8  A    between atoms: C_22  and  O_23
REMARK    9  A    between atoms: O_23  and  C_24
REMARK   10  A    between atoms: C_24  and  C_25
REMARK   11  A    between atoms: C_25  and  O_27
REMARK                            x       y       z     vdW  Elec       q    Type
REMARK                         _______ _______ _______ _____ _____    ______ ____
ROOT
ATOM      1  C   UNL     1       1.792   8.201  19.398  0.00  0.00    +0.000 C 
ATOM      2  C   UNL     1       2.382   7.235  18.973  0.00  0.00    +0.000 C 
ENDROOT
BRANCH   1   9
ATOM      3  C   UNL     1       1.613   8.850  22.290  0.00  0.00    +0.000 C 
ATOM      4  C   UNL     1       0.857   9.598  21.231  0.00  0.00    +0.000 A 
ATOM      5  C   UNL     1      -0.051  10.580  21.660  0.00  0.00    +0.000 A 
ATOM      6  C   UNL     1      -0.854  11.251  20.747  0.00  0.00    +0.000 A 
ATOM      7  C   UNL     1      -0.733  10.963  19.389  0.00  0.00    +0.000 A 
ATOM      8  C   UNL     1       0.204  10.024  18.930  0.00  0.00    +0.000 A 
ATOM      9  C   UNL     1       0.977   9.303  19.856  0.00  0.00    +0.000 A 
BRANCH   7  10
ATOM     10  S   UNL     1      -1.837  11.778  18.255  0.00  0.00    +0.000 S 
ATOM     11  O   UNL     1      -3.047  12.110  18.986  0.00  0.00    +0.000 OA
ATOM     12  O   UNL     1      -1.052  12.818  17.618  0.00  0.00    +0.000 OA
BRANCH  10  13
ATOM     13  C   UNL     1      -2.266  10.552  17.014  0.00  0.00    +0.000 C 
ATOM     14  C   UNL     1      -3.231   9.491  17.537  0.00  0.00    +0.000 C 
ATOM     15  C   UNL     1      -2.870  11.249  15.796  0.00  0.00    +0.000 C 
ENDBRANCH  10  13
ENDBRANCH   7  10
ENDBRANCH   1   9
BRANCH   2  16
ATOM     16  C   UNL     1       3.051   6.090  18.396  0.00  0.00    +0.000 A 
ATOM     17  C   UNL     1       4.051   6.350  17.444  0.00  0.00    +0.000 A 
ATOM     18  C   UNL     1       4.760   5.310  16.840  0.00  0.00    +0.000 A 
ATOM     19 CL   UNL     1       5.948   5.650  15.645  0.00  0.00    +0.000 Cl
ATOM     20  C   UNL     1       4.511   3.988  17.192  0.00  0.00    +0.000 A 
ATOM     21  C   UNL     1       3.527   3.714  18.138  0.00  0.00    +0.000 A 
ATOM     22  C   UNL     1       2.772   4.745  18.721  0.00  0.00    +0.000 A 
BRANCH  22  23
ATOM     23  O   UNL     1       1.835   4.234  19.580  0.00  0.00    +0.000 OA
BRANCH  23  24
ATOM     24  C   UNL     1       2.096   4.361  20.972  0.00  0.00    +0.000 C 
BRANCH  24  25
ATOM     25  C   UNL     1       2.373   2.997  21.581  0.00  0.00    +0.000 C 
ATOM     26  O   UNL     1       3.408   2.370  21.406  0.00  0.00    +0.000 OA
BRANCH  25  27
ATOM     27  O   UNL     1       1.353   2.529  22.340  0.00  0.00    +0.000 OA
ATOM     28  H   UNL     1       1.483   1.571  22.512  0.00  0.00    +0.000 HD
ENDBRANCH  25  27
ENDBRANCH  24  25
ENDBRANCH  23  24
ENDBRANCH  22  23
ENDBRANCH   2  16
TORSDOF 8
ENDMDL
MODEL 6
REMARK VINA RESULT:      -7.6      0.925      1.173
REMARK  Name = 
REMARK  11 active torsions:
REMARK  status: ('A' for Active; 'I' for Inactive)
REMARK    1  A    between atoms: C_1  and  C_2
REMARK    2  A    between atoms: C_5  and  S_6
REMARK    3  A    between atoms: S_6  and  C_9
REMARK    4  A    between atoms: C_9  and  C_10
REMARK    5  A    between atoms: C_9  and  C_11
REMARK    6  A    between atoms: C_13  and  C_14
REMARK    7  A    between atoms: C_15  and  C_16
REMARK    8  A    between atoms: C_22  and  O_23
REMARK    9  A    between atoms: O_23  and  C_24
REMARK   10  A    between atoms: C_24  and  C_25
REMARK   11  A    between atoms: C_25  and  O_27
REMARK                            x       y       z     vdW  Elec       q    Type
REMARK                         _______ _______ _______ _____ _____    ______ ____
ROOT
ATOM      1  C   UNL     1       2.122   7.889  18.550  0.00  0.00    +0.000 C 
ATOM      2  C   UNL     1       1.283   8.759  18.507  0.00  0.00    +0.000 C 
ENDROOT
BRANCH   1   9
ATOM      3  C   UNL     1       1.669   5.733  20.541  0.00  0.00    +0.000 C 
ATOM      4  C   UNL     1       2.843   5.757  19.607  0.00  0.00    +0.000 A 
ATOM      5  C   UNL     1       3.816   4.757  19.770  0.00  0.00    +0.000 A 
ATOM      6  C   UNL     1       4.976   4.764  19.006  0.00  0.00    +0.000 A 
ATOM      7  C   UNL     1       5.158   5.759  18.049  0.00  0.00    +0.000 A 
ATOM      8  C   UNL     1       4.177   6.740  17.830  0.00  0.00    +0.000 A 
ATOM      9  C   UNL     1       3.030   6.768  18.640  0.00  0.00    +0.000 A 
BRANCH   7  10
ATOM     10  S   UNL     1       6.694   5.789  17.148  0.00  0.00    +0.000 S 
ATOM     11  O   UNL     1       6.765   7.059  16.449  0.00  0.00    +0.000 OA
ATOM     12  O   UNL     1       7.718   5.414  18.104  0.00  0.00    +0.000 OA
BRANCH  10  13
ATOM     13  C   UNL     1       6.570   4.490  15.914  0.00  0.00    +0.000 C 
ATOM     14  C   UNL     1       5.136   4.011  15.700  0.00  0.00    +0.000 C 
ATOM     15  C   UNL     1       7.155   4.985  14.593  0.00  0.00    +0.000 C 
ENDBRANCH  10  13
ENDBRANCH   7  10
ENDBRANCH   1   9
BRANCH   2  16
ATOM     16  C   UNL     1       0.255   9.776  18.526  0.00  0.00    +0.000 A 
ATOM     17  C   UNL     1      -0.653   9.783  17.453  0.00  0.00    +0.000 A 
ATOM     18  C   UNL     1      -1.686  10.718  17.389  0.00  0.00    +0.000 A 
ATOM     19 CL   UNL     1      -2.758  10.736  16.045  0.00  0.00    +0.000 Cl
ATOM     20  C   UNL     1      -1.858  11.652  18.406  0.00  0.00    +0.000 A 
ATOM     21  C   UNL     1      -0.971  11.655  19.478  0.00  0.00    +0.000 A 
ATOM     22  C   UNL     1       0.102  10.751  19.536  0.00  0.00    +0.000 A 
BRANCH  22  23
ATOM     23  O   UNL     1       0.866  10.974  20.651  0.00  0.00    +0.000 OA
BRANCH  23  24
ATOM     24  C   UNL     1       0.202  10.936  21.907  0.00  0.00    +0.000 C 
BRANCH  24  25
ATOM     25  C   UNL     1       0.480   9.618  22.609  0.00  0.00    +0.000 C 
ATOM     26  O   UNL     1       1.181   8.732  22.141  0.00  0.00    +0.000 OA
BRANCH  25  27
ATOM     27  O   UNL     1      -0.131   9.509  23.814  0.00  0.00    +0.000 OA
ATOM     28  H   UNL     1       0.028  10.322  24.339  0.00  0.00    +0.000 HD
ENDBRANCH  25  27
ENDBRANCH  24  25
ENDBRANCH  23  24
ENDBRANCH  22  23
ENDBRANCH   2  16
TORSDOF 8
ENDMDL
MODEL 7
REMARK VINA RESULT:      -7.6      1.251      1.598
REMARK  Name = 
REMARK  11 active torsions:
REMARK  status: ('A' for Active; 'I' for Inactive)
REMARK    1  A    between atoms: C_1  and  C_2
REMARK    2  A    between atoms: C_5  and  S_6
REMARK    3  A    between atoms: S_6  and  C_9
REMARK    4  A    between atoms: C_9  and  C_10
REMARK    5  A    between atoms: C_9  and  C_11
REMARK    6  A    between atoms: C_13  and  C_14
REMARK    7  A    between atoms: C_15  and  C_16
REMARK    8  A    between atoms: C_22  and  O_23
REMARK    9  A    between atoms: O_23  and  C_24
REMARK   10  A    between atoms: C_24  and  C_25
REMARK   11  A    between atoms: C_25  and  O_27
REMARK                            x       y       z     vdW  Elec       q    Type
REMARK                         _______ _______ _______ _____ _____    ______ ____
ROOT
ATOM      1  C   UNL     1       1.861   8.089  18.679  0.00  0.00    +0.000 C 
ATOM      2  C   UNL     1       1.055   8.990  18.640  0.00  0.00    +0.000 C 
ENDROOT
BRANCH   1   9
ATOM      3  C   UNL     1       1.725   5.976  20.761  0.00  0.00    +0.000 C 
ATOM      4  C   UNL     1       2.721   5.961  19.637  0.00  0.00    +0.000 A 
ATOM      5  C   UNL     1       3.691   4.946  19.649  0.00  0.00    +0.000 A 
ATOM      6  C   UNL     1       4.700   4.918  18.697  0.00  0.00    +0.000 A 
ATOM      7  C   UNL     1       4.730   5.893  17.703  0.00  0.00    +0.000 A 
ATOM      8  C   UNL     1       3.742   6.889  17.638  0.00  0.00    +0.000 A 
ATOM      9  C   UNL     1       2.753   6.953  18.633  0.00  0.00    +0.000 A 
BRANCH   7  10
ATOM     10  S   UNL     1       6.087   5.879  16.550  0.00  0.00    +0.000 S 
ATOM     11  O   UNL     1       6.439   4.492  16.308  0.00  0.00    +0.000 OA
ATOM     12  O   UNL     1       5.683   6.740  15.455  0.00  0.00    +0.000 OA
BRANCH  10  13
ATOM     13  C   UNL     1       7.467   6.654  17.399  0.00  0.00    +0.000 C 
ATOM     14  C   UNL     1       7.285   8.160  17.574  0.00  0.00    +0.000 C 
ATOM     15  C   UNL     1       7.665   5.993  18.762  0.00  0.00    +0.000 C 
ENDBRANCH  10  13
ENDBRANCH   7  10
ENDBRANCH   1   9
BRANCH   2  16
ATOM     16  C   UNL     1       0.034  10.013  18.597  0.00  0.00    +0.000 A 
ATOM     17  C   UNL     1      -0.822  10.011  17.482  0.00  0.00    +0.000 A 
ATOM     18  C   UNL     1      -1.844  10.952  17.356  0.00  0.00    +0.000 A 
ATOM     19 CL   UNL     1      -2.851  10.958  15.964  0.00  0.00    +0.000 Cl
ATOM     20  C   UNL     1      -2.058  11.901  18.351  0.00  0.00    +0.000 A 
ATOM     21  C   UNL     1      -1.221  11.913  19.464  0.00  0.00    +0.000 A 
ATOM     22  C   UNL     1      -0.159  11.003  19.585  0.00  0.00    +0.000 A 
BRANCH  22  23
ATOM     23  O   UNL     1       0.553  11.237  20.732  0.00  0.00    +0.000 OA
BRANCH  23  24
ATOM     24  C   UNL     1      -0.101  11.966  21.761  0.00  0.00    +0.000 C 
BRANCH  24  25
ATOM     25  C   UNL     1      -0.660  11.015  22.805  0.00  0.00    +0.000 C 
ATOM     26  O   UNL     1      -1.802  11.075  23.239  0.00  0.00    +0.000 OA
BRANCH  25  27
ATOM     27  O   UNL     1       0.233  10.085  23.222  0.00  0.00    +0.000 OA
ATOM     28  H   UNL     1       0.181   9.295  22.642  0.00  0.00    +0.000 HD
ENDBRANCH  25  27
ENDBRANCH  24  25
ENDBRANCH  23  24
ENDBRANCH  22  23
ENDBRANCH   2  16
TORSDOF 8
ENDMDL
MODEL 8
REMARK VINA RESULT:      -7.6      2.083      2.432
REMARK  Name = 
REMARK  11 active torsions:
REMARK  status: ('A' for Active; 'I' for Inactive)
REMARK    1  A    between atoms: C_1  and  C_2
REMARK    2  A    between atoms: C_5  and  S_6
REMARK    3  A    between atoms: S_6  and  C_9
REMARK    4  A    between atoms: C_9  and  C_10
REMARK    5  A    between atoms: C_9  and  C_11
REMARK    6  A    between atoms: C_13  and  C_14
REMARK    7  A    between atoms: C_15  and  C_16
REMARK    8  A    between atoms: C_22  and  O_23
REMARK    9  A    between atoms: O_23  and  C_24
REMARK   10  A    between atoms: C_24  and  C_25
REMARK   11  A    between atoms: C_25  and  O_27
REMARK                            x       y       z     vdW  Elec       q    Type
REMARK                         _______ _______ _______ _____ _____    ______ ____
ROOT
ATOM      1  C   UNL     1       2.223   8.561  18.477  0.00  0.00    +0.000 C 
ATOM      2  C   UNL     1       1.788   9.670  18.688  0.00  0.00    +0.000 C 
ENDROOT
BRANCH   1   9
ATOM      3  C   UNL     1       1.683   6.476  20.521  0.00  0.00    +0.000 C 
ATOM      4  C   UNL     1       2.570   6.251  19.331  0.00  0.00    +0.000 A 
ATOM      5  C   UNL     1       3.247   5.023  19.255  0.00  0.00    +0.000 A 
ATOM      6  C   UNL     1       4.155   4.776  18.233  0.00  0.00    +0.000 A 
ATOM      7  C   UNL     1       4.370   5.749  17.260  0.00  0.00    +0.000 A 
ATOM      8  C   UNL     1       3.666   6.963  17.283  0.00  0.00    +0.000 A 
ATOM      9  C   UNL     1       2.791   7.238  18.347  0.00  0.00    +0.000 A 
BRANCH   7  10
ATOM     10  S   UNL     1       5.603   5.434  16.014  0.00  0.00    +0.000 S 
ATOM     11  O   UNL     1       5.562   4.016  15.708  0.00  0.00    +0.000 OA
ATOM     12  O   UNL     1       5.375   6.420  14.976  0.00  0.00    +0.000 OA
BRANCH  10  13
ATOM     13  C   UNL     1       7.187   5.782  16.787  0.00  0.00    +0.000 C 
ATOM     14  C   UNL     1       7.177   7.072  17.604  0.00  0.00    +0.000 C 
ATOM     15  C   UNL     1       7.592   4.607  17.674  0.00  0.00    +0.000 C 
ENDBRANCH  10  13
ENDBRANCH   7  10
ENDBRANCH   1   9
BRANCH   2  16
ATOM     16  C   UNL     1       1.338  11.015  18.969  0.00  0.00    +0.000 A 
ATOM     17  C   UNL     1       2.063  12.065  18.380  0.00  0.00    +0.000 A 
ATOM     18  C   UNL     1       1.699  13.396  18.584  0.00  0.00    +0.000 A 
ATOM     19 CL   UNL     1       2.626  14.666  17.889  0.00  0.00    +0.000 Cl
ATOM     20  C   UNL     1       0.586  13.714  19.356  0.00  0.00    +0.000 A 
ATOM     21  C   UNL     1      -0.146  12.685  19.942  0.00  0.00    +0.000 A 
ATOM     22  C   UNL     1       0.234  11.342  19.786  0.00  0.00    +0.000 A 
BRANCH  22  23
ATOM     23  O   UNL     1      -0.601  10.516  20.490  0.00  0.00    +0.000 OA
BRANCH  23  24
ATOM     24  C   UNL     1      -0.658  10.702  21.898  0.00  0.00    +0.000 C 
BRANCH  24  25
ATOM     25  C   UNL     1      -0.488   9.371  22.611  0.00  0.00    +0.000 C 
ATOM     26  O   UNL     1      -0.785   8.291  22.118  0.00  0.00    +0.000 OA
BRANCH  25  27
ATOM     27  O   UNL     1       0.022   9.489  23.860  0.00  0.00    +0.000 OA
ATOM     28  H   UNL     1      -0.424   8.853  24.460  0.00  0.00    +0.000 HD
ENDBRANCH  25  27
ENDBRANCH  24  25
ENDBRANCH  23  24
ENDBRANCH  22  23
ENDBRANCH   2  16
TORSDOF 8
ENDMDL
MODEL 9
REMARK VINA RESULT:      -7.6      2.725      3.788
REMARK  Name = 
REMARK  11 active torsions:
REMARK  status: ('A' for Active; 'I' for Inactive)
REMARK    1  A    between atoms: C_1  and  C_2
REMARK    2  A    between atoms: C_5  and  S_6
REMARK    3  A    between atoms: S_6  and  C_9
REMARK    4  A    between atoms: C_9  and  C_10
REMARK    5  A    between atoms: C_9  and  C_11
REMARK    6  A    between atoms: C_13  and  C_14
REMARK    7  A    between atoms: C_15  and  C_16
REMARK    8  A    between atoms: C_22  and  O_23
REMARK    9  A    between atoms: O_23  and  C_24
REMARK   10  A    between atoms: C_24  and  C_25
REMARK   11  A    between atoms: C_25  and  O_27
REMARK                            x       y       z     vdW  Elec       q    Type
REMARK                         _______ _______ _______ _____ _____    ______ ____
ROOT
ATOM      1  C   UNL     1       2.100   8.266  18.602  0.00  0.00    +0.000 C 
ATOM      2  C   UNL     1       1.392   9.239  18.713  0.00  0.00    +0.000 C 
ENDROOT
BRANCH   1   9
ATOM      3  C   UNL     1       1.633   6.109  20.589  0.00  0.00    +0.000 C 
ATOM      4  C   UNL     1       2.681   6.028  19.517  0.00  0.00    +0.000 A 
ATOM      5  C   UNL     1       3.538   4.915  19.538  0.00  0.00    +0.000 A 
ATOM      6  C   UNL     1       4.590   4.813  18.637  0.00  0.00    +0.000 A 
ATOM      7  C   UNL     1       4.775   5.814  17.686  0.00  0.00    +0.000 A 
ATOM      8  C   UNL     1       3.900   6.910  17.610  0.00  0.00    +0.000 A 
ATOM      9  C   UNL     1       2.870   7.044  18.556  0.00  0.00    +0.000 A 
BRANCH   7  10
ATOM     10  S   UNL     1       6.183   5.696  16.603  0.00  0.00    +0.000 S 
ATOM     11  O   UNL     1       6.521   4.290  16.479  0.00  0.00    +0.000 OA
ATOM     12  O   UNL     1       5.847   6.480  15.431  0.00  0.00    +0.000 OA
BRANCH  10  13
ATOM     13  C   UNL     1       7.536   6.511  17.459  0.00  0.00    +0.000 C 
ATOM     14  C   UNL     1       7.370   8.027  17.521  0.00  0.00    +0.000 C 
ATOM     15  C   UNL     1       7.662   5.944  18.872  0.00  0.00    +0.000 C 
ENDBRANCH  10  13
ENDBRANCH   7  10
ENDBRANCH   1   9
BRANCH   2  16
ATOM     16  C   UNL     1       0.548  10.395  18.924  0.00  0.00    +0.000 A 
ATOM     17  C   UNL     1       0.985  11.337  19.871  0.00  0.00    +0.000 A 
ATOM     18  C   UNL     1       0.244  12.490  20.136  0.00  0.00    +0.000 A 
ATOM     19 CL   UNL     1       0.776  13.607  21.330  0.00  0.00    +0.000 Cl
ATOM     20  C   UNL     1      -0.934  12.747  19.443  0.00  0.00    +0.000 A 
ATOM     21  C   UNL     1      -1.378  11.826  18.499  0.00  0.00    +0.000 A 
ATOM     22  C   UNL     1      -0.670  10.639  18.253  0.00  0.00    +0.000 A 
BRANCH  22  23
ATOM     23  O   UNL     1      -1.320   9.869  17.325  0.00  0.00    +0.000 OA
BRANCH  23  24
ATOM     24  C   UNL     1      -2.740   9.859  17.373  0.00  0.00    +0.000 C 
BRANCH  24  25
ATOM     25  C   UNL     1      -3.312  10.494  16.117  0.00  0.00    +0.000 C 
ATOM     26  O   UNL     1      -4.202  11.333  16.123  0.00  0.00    +0.000 OA
BRANCH  25  27
ATOM     27  O   UNL     1      -2.745  10.038  14.974  0.00  0.00    +0.000 OA
ATOM     28  H   UNL     1      -1.893   9.597  15.182  0.00  0.00    +0.000 HD
ENDBRANCH  25  27
ENDBRANCH  24  25
ENDBRANCH  23  24
ENDBRANCH  22  23
ENDBRANCH   2  16
TORSDOF 8
ENDMDL
