MODEL 1
REMARK VINA RESULT:      -7.2      0.000      0.000
REMARK  Name = 
REMARK  3 active torsions:
REMARK  status: ('A' for Active; 'I' for Inactive)
REMARK    1  A    between atoms: S_2  and  N_4
REMARK    2  A    between atoms: S_2  and  C_11
REMARK    3  A    between atoms: N_4  and  C_5
REMARK                            x       y       z     vdW  Elec       q    Type
REMARK                         _______ _______ _______ _____ _____    ______ ____
ROOT
ATOM      1  O   UNL     1       4.314   5.645  19.210  0.00  0.00    +0.000 OA
ATOM      2  S   UNL     1       5.467   4.778  19.082  0.00  0.00    +0.000 S 
ATOM      3  O   UNL     1       6.709   5.051  19.772  0.00  0.00    +0.000 OA
ENDROOT
BRANCH   2   4
ATOM      4  C   UNL     1       5.804   4.653  17.338  0.00  0.00    +0.000 A 
ATOM      5  C   UNL     1       4.723   4.533  16.455  0.00  0.00    +0.000 A 
ATOM      6  C   UNL     1       4.962   4.347  15.094  0.00  0.00    +0.000 A 
ATOM      7  C   UNL     1       6.276   4.315  14.621  0.00  0.00    +0.000 A 
ATOM      8  I   UNL     1       6.629   4.002  12.598  0.00  0.00    +0.000 I 
ATOM      9  C   UNL     1       7.351   4.479  15.498  0.00  0.00    +0.000 A 
ATOM     10  C   UNL     1       7.118   4.647  16.865  0.00  0.00    +0.000 A 
ENDBRANCH   2   4
BRANCH   2  11
ATOM     11  N   UNL     1       4.939   3.208  19.465  0.00  0.00    +0.000 N 
ATOM     12  H   UNL     1       5.525   2.786  20.182  0.00  0.00    +0.000 HD
BRANCH  11  13
ATOM     13  C   UNL     1       3.536   3.004  19.608  0.00  0.00    +0.000 A 
ATOM     14  C   UNL     1       2.793   2.660  18.482  0.00  0.00    +0.000 A 
ATOM     15  C   UNL     1       1.409   2.508  18.582  0.00  0.00    +0.000 A 
ATOM     16  C   UNL     1       0.771   2.727  19.802  0.00  0.00    +0.000 A 
ATOM     17  C   UNL     1       1.517   3.079  20.927  0.00  0.00    +0.000 A 
ATOM     18  C   UNL     1       2.903   3.209  20.834  0.00  0.00    +0.000 A 
ENDBRANCH  11  13
ENDBRANCH   2  11
TORSDOF 3
ENDMDL
MODEL 2
REMARK VINA RESULT:      -7.1      0.104      1.176
REMARK  Name = 
REMARK  3 active torsions:
REMARK  status: ('A' for Active; 'I' for Inactive)
REMARK    1  A    between atoms: S_2  and  N_4
REMARK    2  A    between atoms: S_2  and  C_11
REMARK    3  A    between atoms: N_4  and  C_5
REMARK                            x       y       z     vdW  Elec       q    Type
REMARK                         _______ _______ _______ _____ _____    ______ ____
ROOT
ATOM      1  O   UNL     1       4.344   5.713  19.191  0.00  0.00    +0.000 OA
ATOM      2  S   UNL     1       5.467   4.806  19.069  0.00  0.00    +0.000 S 
ATOM      3  O   UNL     1       6.712   5.032  19.771  0.00  0.00    +0.000 OA
ENDROOT
BRANCH   2   4
ATOM      4  C   UNL     1       5.815   4.679  17.327  0.00  0.00    +0.000 A 
ATOM      5  C   UNL     1       4.743   4.495  16.443  0.00  0.00    +0.000 A 
ATOM      6  C   UNL     1       4.996   4.306  15.085  0.00  0.00    +0.000 A 
ATOM      7  C   UNL     1       6.311   4.333  14.616  0.00  0.00    +0.000 A 
ATOM      8  I   UNL     1       6.685   4.014  12.597  0.00  0.00    +0.000 I 
ATOM      9  C   UNL     1       7.374   4.559  15.493  0.00  0.00    +0.000 A 
ATOM     10  C   UNL     1       7.129   4.731  16.858  0.00  0.00    +0.000 A 
ENDBRANCH   2   4
BRANCH   2  11
ATOM     11  N   UNL     1       4.881   3.255  19.438  0.00  0.00    +0.000 N 
ATOM     12  H   UNL     1       5.460   2.799  20.141  0.00  0.00    +0.000 HD
BRANCH  11  13
ATOM     13  C   UNL     1       3.473   3.106  19.601  0.00  0.00    +0.000 A 
ATOM     14  C   UNL     1       2.926   3.266  20.872  0.00  0.00    +0.000 A 
ATOM     15  C   UNL     1       1.559   3.072  21.070  0.00  0.00    +0.000 A 
ATOM     16  C   UNL     1       0.747   2.694  20.001  0.00  0.00    +0.000 A 
ATOM     17  C   UNL     1       1.298   2.527  18.731  0.00  0.00    +0.000 A 
ATOM     18  C   UNL     1       2.661   2.743  18.526  0.00  0.00    +0.000 A 
ENDBRANCH  11  13
ENDBRANCH   2  11
TORSDOF 3
ENDMDL
MODEL 3
REMARK VINA RESULT:      -7.0      3.358      6.283
REMARK  Name = 
REMARK  3 active torsions:
REMARK  status: ('A' for Active; 'I' for Inactive)
REMARK    1  A    between atoms: S_2  and  N_4
REMARK    2  A    between atoms: S_2  and  C_11
REMARK    3  A    between atoms: N_4  and  C_5
REMARK                            x       y       z     vdW  Elec       q    Type
REMARK                         _______ _______ _______ _____ _____    ______ ____
ROOT
ATOM      1  O   UNL     1       6.903   7.463  17.143  0.00  0.00    +0.000 OA
ATOM      2  S   UNL     1       6.071   6.527  16.414  0.00  0.00    +0.000 S 
ATOM      3  O   UNL     1       5.206   6.951  15.336  0.00  0.00    +0.000 OA
ENDROOT
BRANCH   2   4
ATOM      4  C   UNL     1       5.084   5.686  17.635  0.00  0.00    +0.000 A 
ATOM      5  C   UNL     1       5.610   4.541  18.248  0.00  0.00    +0.000 A 
ATOM      6  C   UNL     1       4.824   3.816  19.143  0.00  0.00    +0.000 A 
ATOM      7  C   UNL     1       3.533   4.256  19.442  0.00  0.00    +0.000 A 
ATOM      8  I   UNL     1       2.352   3.152  20.747  0.00  0.00    +0.000 I 
ATOM      9  C   UNL     1       3.026   5.422  18.862  0.00  0.00    +0.000 A 
ATOM     10  C   UNL     1       3.802   6.142  17.951  0.00  0.00    +0.000 A 
ENDBRANCH   2   4
BRANCH   2  11
ATOM     11  N   UNL     1       7.099   5.291  15.863  0.00  0.00    +0.000 N 
ATOM     12  H   UNL     1       7.219   4.567  16.569  0.00  0.00    +0.000 HD
BRANCH  11  13
ATOM     13  C   UNL     1       6.916   4.832  14.526  0.00  0.00    +0.000 A 
ATOM     14  C   UNL     1       5.943   3.867  14.278  0.00  0.00    +0.000 A 
ATOM     15  C   UNL     1       5.780   3.359  12.989  0.00  0.00    +0.000 A 
ATOM     16  C   UNL     1       6.608   3.800  11.957  0.00  0.00    +0.000 A 
ATOM     17  C   UNL     1       7.586   4.761  12.209  0.00  0.00    +0.000 A 
ATOM     18  C   UNL     1       7.736   5.287  13.493  0.00  0.00    +0.000 A 
ENDBRANCH  11  13
ENDBRANCH   2  11
TORSDOF 3
ENDMDL
MODEL 4
REMARK VINA RESULT:      -7.0      1.100      1.682
REMARK  Name = 
REMARK  3 active torsions:
REMARK  status: ('A' for Active; 'I' for Inactive)
REMARK    1  A    between atoms: S_2  and  N_4
REMARK    2  A    between atoms: S_2  and  C_11
REMARK    3  A    between atoms: N_4  and  C_5
REMARK                            x       y       z     vdW  Elec       q    Type
REMARK                         _______ _______ _______ _____ _____    ______ ____
ROOT
ATOM      1  O   UNL     1       6.438   5.580  19.603  0.00  0.00    +0.000 OA
ATOM      2  S   UNL     1       5.481   4.660  19.024  0.00  0.00    +0.000 S 
ATOM      3  O   UNL     1       5.329   3.306  19.513  0.00  0.00    +0.000 OA
ENDROOT
BRANCH   2   4
ATOM      4  C   UNL     1       5.843   4.596  17.282  0.00  0.00    +0.000 A 
ATOM      5  C   UNL     1       4.832   4.186  16.403  0.00  0.00    +0.000 A 
ATOM      6  C   UNL     1       5.116   4.045  15.045  0.00  0.00    +0.000 A 
ATOM      7  C   UNL     1       6.395   4.344  14.571  0.00  0.00    +0.000 A 
ATOM      8  I   UNL     1       6.824   4.097  12.553  0.00  0.00    +0.000 I 
ATOM      9  C   UNL     1       7.390   4.794  15.444  0.00  0.00    +0.000 A 
ATOM     10  C   UNL     1       7.116   4.919  16.808  0.00  0.00    +0.000 A 
ENDBRANCH   2   4
BRANCH   2  11
ATOM     11  N   UNL     1       3.974   5.445  19.054  0.00  0.00    +0.000 N 
ATOM     12  H   UNL     1       3.873   6.081  18.266  0.00  0.00    +0.000 HD
BRANCH  11  13
ATOM     13  C   UNL     1       2.829   4.656  19.368  0.00  0.00    +0.000 A 
ATOM     14  C   UNL     1       2.465   4.508  20.704  0.00  0.00    +0.000 A 
ATOM     15  C   UNL     1       1.382   3.697  21.045  0.00  0.00    +0.000 A 
ATOM     16  C   UNL     1       0.682   3.016  20.049  0.00  0.00    +0.000 A 
ATOM     17  C   UNL     1       1.053   3.160  18.712  0.00  0.00    +0.000 A 
ATOM     18  C   UNL     1       2.121   3.988  18.368  0.00  0.00    +0.000 A 
ENDBRANCH  11  13
ENDBRANCH   2  11
TORSDOF 3
ENDMDL
MODEL 5
REMARK VINA RESULT:      -7.0      3.382      6.317
REMARK  Name = 
REMARK  3 active torsions:
REMARK  status: ('A' for Active; 'I' for Inactive)
REMARK    1  A    between atoms: S_2  and  N_4
REMARK    2  A    between atoms: S_2  and  C_11
REMARK    3  A    between atoms: N_4  and  C_5
REMARK                            x       y       z     vdW  Elec       q    Type
REMARK                         _______ _______ _______ _____ _____    ______ ____
ROOT
ATOM      1  O   UNL     1       6.836   7.425  17.136  0.00  0.00    +0.000 OA
ATOM      2  S   UNL     1       6.007   6.456  16.449  0.00  0.00    +0.000 S 
ATOM      3  O   UNL     1       5.159   6.827  15.337  0.00  0.00    +0.000 OA
ENDROOT
BRANCH   2   4
ATOM      4  C   UNL     1       4.998   5.689  17.700  0.00  0.00    +0.000 A 
ATOM      5  C   UNL     1       5.440   4.490  18.273  0.00  0.00    +0.000 A 
ATOM      6  C   UNL     1       4.628   3.825  19.192  0.00  0.00    +0.000 A 
ATOM      7  C   UNL     1       3.398   4.378  19.554  0.00  0.00    +0.000 A 
ATOM      8  I   UNL     1       2.175   3.366  20.895  0.00  0.00    +0.000 I 
ATOM      9  C   UNL     1       2.979   5.597  19.013  0.00  0.00    +0.000 A 
ATOM     10  C   UNL     1       3.780   6.257  18.078  0.00  0.00    +0.000 A 
ENDBRANCH   2   4
BRANCH   2  11
ATOM     11  N   UNL     1       7.033   5.185  15.979  0.00  0.00    +0.000 N 
ATOM     12  H   UNL     1       7.058   4.451  16.683  0.00  0.00    +0.000 HD
BRANCH  11  13
ATOM     13  C   UNL     1       6.956   4.746  14.625  0.00  0.00    +0.000 A 
ATOM     14  C   UNL     1       7.789   5.342  13.681  0.00  0.00    +0.000 A 
ATOM     15  C   UNL     1       7.696   4.971  12.339  0.00  0.00    +0.000 A 
ATOM     16  C   UNL     1       6.753   4.023  11.942  0.00  0.00    +0.000 A 
ATOM     17  C   UNL     1       5.915   3.433  12.888  0.00  0.00    +0.000 A 
ATOM     18  C   UNL     1       6.022   3.787  14.234  0.00  0.00    +0.000 A 
ENDBRANCH  11  13
ENDBRANCH   2  11
TORSDOF 3
ENDMDL
MODEL 6
REMARK VINA RESULT:      -7.0      3.376      6.315
REMARK  Name = 
REMARK  3 active torsions:
REMARK  status: ('A' for Active; 'I' for Inactive)
REMARK    1  A    between atoms: S_2  and  N_4
REMARK    2  A    between atoms: S_2  and  C_11
REMARK    3  A    between atoms: N_4  and  C_5
REMARK                            x       y       z     vdW  Elec       q    Type
REMARK                         _______ _______ _______ _____ _____    ______ ____
ROOT
ATOM      1  O   UNL     1       6.403   7.176  17.298  0.00  0.00    +0.000 OA
ATOM      2  S   UNL     1       5.675   6.337  16.369  0.00  0.00    +0.000 S 
ATOM      3  O   UNL     1       5.074   6.870  15.165  0.00  0.00    +0.000 OA
ENDROOT
BRANCH   2   4
ATOM      4  C   UNL     1       4.408   5.524  17.321  0.00  0.00    +0.000 A 
ATOM      5  C   UNL     1       3.597   6.302  18.157  0.00  0.00    +0.000 A 
ATOM      6  C   UNL     1       2.656   5.681  18.977  0.00  0.00    +0.000 A 
ATOM      7  C   UNL     1       2.511   4.293  18.934  0.00  0.00    +0.000 A 
ATOM      8  I   UNL     1       1.133   3.367  20.184  0.00  0.00    +0.000 I 
ATOM      9  C   UNL     1       3.291   3.523  18.067  0.00  0.00    +0.000 A 
ATOM     10  C   UNL     1       4.248   4.138  17.257  0.00  0.00    +0.000 A 
ENDBRANCH   2   4
BRANCH   2  11
ATOM     11  N   UNL     1       6.709   5.050  15.964  0.00  0.00    +0.000 N 
ATOM     12  H   UNL     1       6.606   4.274  16.616  0.00  0.00    +0.000 HD
BRANCH  11  13
ATOM     13  C   UNL     1       6.809   4.696  14.587  0.00  0.00    +0.000 A 
ATOM     14  C   UNL     1       7.722   5.378  13.787  0.00  0.00    +0.000 A 
ATOM     15  C   UNL     1       7.802   5.091  12.424  0.00  0.00    +0.000 A 
ATOM     16  C   UNL     1       6.951   4.141  11.861  0.00  0.00    +0.000 A 
ATOM     17  C   UNL     1       6.031   3.465  12.663  0.00  0.00    +0.000 A 
ATOM     18  C   UNL     1       5.966   3.735  14.030  0.00  0.00    +0.000 A 
ENDBRANCH  11  13
ENDBRANCH   2  11
TORSDOF 3
ENDMDL
MODEL 7
REMARK VINA RESULT:      -6.9      0.219      1.667
REMARK  Name = 
REMARK  3 active torsions:
REMARK  status: ('A' for Active; 'I' for Inactive)
REMARK    1  A    between atoms: S_2  and  N_4
REMARK    2  A    between atoms: S_2  and  C_11
REMARK    3  A    between atoms: N_4  and  C_5
REMARK                            x       y       z     vdW  Elec       q    Type
REMARK                         _______ _______ _______ _____ _____    ______ ____
ROOT
ATOM      1  O   UNL     1       4.296   5.726  19.003  0.00  0.00    +0.000 OA
ATOM      2  S   UNL     1       5.425   4.819  18.973  0.00  0.00    +0.000 S 
ATOM      3  O   UNL     1       6.648   5.096  19.694  0.00  0.00    +0.000 OA
ENDROOT
BRANCH   2   4
ATOM      4  C   UNL     1       5.823   4.580  17.254  0.00  0.00    +0.000 A 
ATOM      5  C   UNL     1       7.141   4.805  16.834  0.00  0.00    +0.000 A 
ATOM      6  C   UNL     1       7.460   4.708  15.481  0.00  0.00    +0.000 A 
ATOM      7  C   UNL     1       6.469   4.358  14.561  0.00  0.00    +0.000 A 
ATOM      8  I   UNL     1       6.939   4.250  12.540  0.00  0.00    +0.000 I 
ATOM      9  C   UNL     1       5.165   4.091  14.987  0.00  0.00    +0.000 A 
ATOM     10  C   UNL     1       4.836   4.205  16.340  0.00  0.00    +0.000 A 
ENDBRANCH   2   4
BRANCH   2  11
ATOM     11  N   UNL     1       4.834   3.292  19.426  0.00  0.00    +0.000 N 
ATOM     12  H   UNL     1       5.396   2.884  20.169  0.00  0.00    +0.000 HD
BRANCH  11  13
ATOM     13  C   UNL     1       3.423   3.149  19.563  0.00  0.00    +0.000 A 
ATOM     14  C   UNL     1       2.849   3.357  20.815  0.00  0.00    +0.000 A 
ATOM     15  C   UNL     1       1.477   3.169  20.992  0.00  0.00    +0.000 A 
ATOM     16  C   UNL     1       0.689   2.750  19.921  0.00  0.00    +0.000 A 
ATOM     17  C   UNL     1       1.266   2.534  18.670  0.00  0.00    +0.000 A 
ATOM     18  C   UNL     1       2.634   2.744  18.487  0.00  0.00    +0.000 A 
ENDBRANCH  11  13
ENDBRANCH   2  11
TORSDOF 3
ENDMDL
MODEL 8
REMARK VINA RESULT:      -6.9      3.354      6.273
REMARK  Name = 
REMARK  3 active torsions:
REMARK  status: ('A' for Active; 'I' for Inactive)
REMARK    1  A    between atoms: S_2  and  N_4
REMARK    2  A    between atoms: S_2  and  C_11
REMARK    3  A    between atoms: N_4  and  C_5
REMARK                            x       y       z     vdW  Elec       q    Type
REMARK                         _______ _______ _______ _____ _____    ______ ____
ROOT
ATOM      1  O   UNL     1       6.768   6.958  17.440  0.00  0.00    +0.000 OA
ATOM      2  S   UNL     1       5.950   6.268  16.463  0.00  0.00    +0.000 S 
ATOM      3  O   UNL     1       5.356   6.958  15.339  0.00  0.00    +0.000 OA
ENDROOT
BRANCH   2   4
ATOM      4  C   UNL     1       4.654   5.462  17.381  0.00  0.00    +0.000 A 
ATOM      5  C   UNL     1       3.634   6.250  17.930  0.00  0.00    +0.000 A 
ATOM      6  C   UNL     1       2.655   5.654  18.724  0.00  0.00    +0.000 A 
ATOM      7  C   UNL     1       2.684   4.275  18.938  0.00  0.00    +0.000 A 
ATOM      8  I   UNL     1       1.246   3.395  20.153  0.00  0.00    +0.000 I 
ATOM      9  C   UNL     1       3.678   3.485  18.354  0.00  0.00    +0.000 A 
ATOM     10  C   UNL     1       4.672   4.079  17.572  0.00  0.00    +0.000 A 
ENDBRANCH   2   4
BRANCH   2  11
ATOM     11  N   UNL     1       6.870   4.954  15.900  0.00  0.00    +0.000 N 
ATOM     12  H   UNL     1       6.763   4.143  16.505  0.00  0.00    +0.000 HD
BRANCH  11  13
ATOM     13  C   UNL     1       6.852   4.693  14.500  0.00  0.00    +0.000 A 
ATOM     14  C   UNL     1       5.981   3.723  14.012  0.00  0.00    +0.000 A 
ATOM     15  C   UNL     1       5.982   3.407  12.653  0.00  0.00    +0.000 A 
ATOM     16  C   UNL     1       6.873   4.045  11.790  0.00  0.00    +0.000 A 
ATOM     17  C   UNL     1       7.750   5.011  12.282  0.00  0.00    +0.000 A 
ATOM     18  C   UNL     1       7.734   5.344  13.637  0.00  0.00    +0.000 A 
ENDBRANCH  11  13
ENDBRANCH   2  11
TORSDOF 3
ENDMDL
MODEL 9
REMARK VINA RESULT:      -6.9      3.207      6.087
REMARK  Name = 
REMARK  3 active torsions:
REMARK  status: ('A' for Active; 'I' for Inactive)
REMARK    1  A    between atoms: S_2  and  N_4
REMARK    2  A    between atoms: S_2  and  C_11
REMARK    3  A    between atoms: N_4  and  C_5
REMARK                            x       y       z     vdW  Elec       q    Type
REMARK                         _______ _______ _______ _____ _____    ______ ____
ROOT
ATOM      1  O   UNL     1       7.683   4.262  16.754  0.00  0.00    +0.000 OA
ATOM      2  S   UNL     1       6.970   5.496  17.010  0.00  0.00    +0.000 S 
ATOM      3  O   UNL     1       7.568   6.585  17.752  0.00  0.00    +0.000 OA
ENDROOT
BRANCH   2   4
ATOM      4  C   UNL     1       5.449   5.033  17.812  0.00  0.00    +0.000 A 
ATOM      5  C   UNL     1       5.503   4.120  18.874  0.00  0.00    +0.000 A 
ATOM      6  C   UNL     1       4.319   3.676  19.462  0.00  0.00    +0.000 A 
ATOM      7  C   UNL     1       3.094   4.170  19.007  0.00  0.00    +0.000 A 
ATOM      8  I   UNL     1       1.331   3.478  19.861  0.00  0.00    +0.000 I 
ATOM      9  C   UNL     1       3.045   5.113  17.978  0.00  0.00    +0.000 A 
ATOM     10  C   UNL     1       4.227   5.548  17.373  0.00  0.00    +0.000 A 
ENDBRANCH   2   4
BRANCH   2  11
ATOM     11  N   UNL     1       6.429   6.067  15.504  0.00  0.00    +0.000 N 
ATOM     12  H   UNL     1       6.763   7.011  15.325  0.00  0.00    +0.000 HD
BRANCH  11  13
ATOM     13  C   UNL     1       6.488   5.166  14.401  0.00  0.00    +0.000 A 
ATOM     14  C   UNL     1       7.535   5.293  13.490  0.00  0.00    +0.000 A 
ATOM     15  C   UNL     1       7.587   4.462  12.371  0.00  0.00    +0.000 A 
ATOM     16  C   UNL     1       6.580   3.523  12.153  0.00  0.00    +0.000 A 
ATOM     17  C   UNL     1       5.529   3.403  13.062  0.00  0.00    +0.000 A 
ATOM     18  C   UNL     1       5.487   4.218  14.193  0.00  0.00    +0.000 A 
ENDBRANCH  11  13
ENDBRANCH   2  11
TORSDOF 3
ENDMDL
