MODEL 1
REMARK VINA RESULT:      -6.7      0.000      0.000
REMARK  Name = 
REMARK  2 active torsions:
REMARK  status: ('A' for Active; 'I' for Inactive)
REMARK    1  A    between atoms: N_9  and  C_10
REMARK    2  A    between atoms: C_10  and  N_11
REMARK                            x       y       z     vdW  Elec       q    Type
REMARK                         _______ _______ _______ _____ _____    ______ ____
ROOT
ATOM      1  C   UNL     1       1.573   3.006  21.578  0.00  0.00    +0.000 A 
ATOM      2  C   UNL     1       2.947   2.760  21.538  0.00  0.00    +0.000 A 
ATOM      3  C   UNL     1       3.662   2.802  20.334  0.00  0.00    +0.000 A 
ATOM      4  C   UNL     1       2.929   3.099  19.181  0.00  0.00    +0.000 A 
ATOM      5  C   UNL     1       1.564   3.362  19.198  0.00  0.00    +0.000 A 
ATOM      6  C   UNL     1       0.863   3.313  20.411  0.00  0.00    +0.000 A 
ATOM      7  N   UNL     1       1.130   3.641  17.930  0.00  0.00    +0.000 NA
ATOM      8  N   UNL     1       2.173   3.568  17.113  0.00  0.00    +0.000 NA
ATOM      9  N   UNL     1       3.246   3.218  17.855  0.00  0.00    +0.000 N 
ENDROOT
BRANCH   9  10
ATOM     10  C   UNL     1       4.542   3.046  17.210  0.00  0.00    +0.000 C 
BRANCH  10  11
ATOM     11  N   UNL     1       5.085   4.264  16.630  0.00  0.00    +0.000 N 
ATOM     12  C   UNL     1       6.008   4.963  17.320  0.00  0.00    +0.000 A 
ATOM     13  N   UNL     1       6.829   4.461  18.215  0.00  0.00    +0.000 NA
ATOM     14  C   UNL     1       7.684   5.444  18.677  0.00  0.00    +0.000 A 
ATOM     15  C   UNL     1       7.478   6.703  18.161  0.00  0.00    +0.000 A 
ATOM     16  S   UNL     1       6.190   6.655  17.036  0.00  0.00    +0.000 S 
ATOM     17  H   UNL     1       4.387   4.810  16.131  0.00  0.00    +0.000 HD
ENDBRANCH  10  11
ENDBRANCH   9  10
TORSDOF 2
ENDMDL
MODEL 2
REMARK VINA RESULT:      -6.5      2.026      5.464
REMARK  Name = 
REMARK  2 active torsions:
REMARK  status: ('A' for Active; 'I' for Inactive)
REMARK    1  A    between atoms: N_9  and  C_10
REMARK    2  A    between atoms: C_10  and  N_11
REMARK                            x       y       z     vdW  Elec       q    Type
REMARK                         _______ _______ _______ _____ _____    ______ ____
ROOT
ATOM      1  C   UNL     1       8.114   7.052  18.634  0.00  0.00    +0.000 A 
ATOM      2  C   UNL     1       7.793   5.855  19.279  0.00  0.00    +0.000 A 
ATOM      3  C   UNL     1       6.822   4.986  18.766  0.00  0.00    +0.000 A 
ATOM      4  C   UNL     1       6.192   5.381  17.582  0.00  0.00    +0.000 A 
ATOM      5  C   UNL     1       6.504   6.560  16.915  0.00  0.00    +0.000 A 
ATOM      6  C   UNL     1       7.477   7.420  17.443  0.00  0.00    +0.000 A 
ATOM      7  N   UNL     1       5.744   6.666  15.780  0.00  0.00    +0.000 NA
ATOM      8  N   UNL     1       4.966   5.593  15.705  0.00  0.00    +0.000 NA
ATOM      9  N   UNL     1       5.214   4.836  16.796  0.00  0.00    +0.000 N 
ENDROOT
BRANCH   9  10
ATOM     10  C   UNL     1       4.481   3.589  16.987  0.00  0.00    +0.000 C 
BRANCH  10  11
ATOM     11  N   UNL     1       3.110   3.767  17.437  0.00  0.00    +0.000 N 
ATOM     12  C   UNL     1       2.766   3.345  18.670  0.00  0.00    +0.000 A 
ATOM     13  N   UNL     1       3.585   3.232  19.690  0.00  0.00    +0.000 NA
ATOM     14  C   UNL     1       2.888   2.835  20.817  0.00  0.00    +0.000 A 
ATOM     15  C   UNL     1       1.543   2.606  20.634  0.00  0.00    +0.000 A 
ATOM     16  S   UNL     1       1.127   2.923  19.005  0.00  0.00    +0.000 S 
ATOM     17  H   UNL     1       2.428   3.607  16.700  0.00  0.00    +0.000 HD
ENDBRANCH  10  11
ENDBRANCH   9  10
TORSDOF 2
ENDMDL
MODEL 3
REMARK VINA RESULT:      -6.5      1.526      1.625
REMARK  Name = 
REMARK  2 active torsions:
REMARK  status: ('A' for Active; 'I' for Inactive)
REMARK    1  A    between atoms: N_9  and  C_10
REMARK    2  A    between atoms: C_10  and  N_11
REMARK                            x       y       z     vdW  Elec       q    Type
REMARK                         _______ _______ _______ _____ _____    ______ ____
ROOT
ATOM      1  C   UNL     1       1.450   2.530  21.469  0.00  0.00    +0.000 A 
ATOM      2  C   UNL     1       2.192   3.669  21.794  0.00  0.00    +0.000 A 
ATOM      3  C   UNL     1       2.532   4.621  20.824  0.00  0.00    +0.000 A 
ATOM      4  C   UNL     1       2.095   4.369  19.520  0.00  0.00    +0.000 A 
ATOM      5  C   UNL     1       1.344   3.251  19.176  0.00  0.00    +0.000 A 
ATOM      6  C   UNL     1       1.014   2.307  20.157  0.00  0.00    +0.000 A 
ATOM      7  N   UNL     1       1.045   3.287  17.839  0.00  0.00    +0.000 NA
ATOM      8  N   UNL     1       1.577   4.390  17.329  0.00  0.00    +0.000 NA
ATOM      9  N   UNL     1       2.228   5.026  18.327  0.00  0.00    +0.000 N 
ENDROOT
BRANCH   9  10
ATOM     10  C   UNL     1       2.928   6.275  18.049  0.00  0.00    +0.000 C 
BRANCH  10  11
ATOM     11  N   UNL     1       4.139   6.116  17.260  0.00  0.00    +0.000 N 
ATOM     12  C   UNL     1       5.323   5.995  17.892  0.00  0.00    +0.000 A 
ATOM     13  N   UNL     1       5.489   5.528  19.109  0.00  0.00    +0.000 NA
ATOM     14  C   UNL     1       6.836   5.483  19.418  0.00  0.00    +0.000 A 
ATOM     15  C   UNL     1       7.687   5.959  18.447  0.00  0.00    +0.000 A 
ATOM     16  S   UNL     1       6.776   6.456  17.087  0.00  0.00    +0.000 S 
ATOM     17  H   UNL     1       4.136   6.681  16.414  0.00  0.00    +0.000 HD
ENDBRANCH  10  11
ENDBRANCH   9  10
TORSDOF 2
ENDMDL
MODEL 4
REMARK VINA RESULT:      -6.5      2.509      5.806
REMARK  Name = 
REMARK  2 active torsions:
REMARK  status: ('A' for Active; 'I' for Inactive)
REMARK    1  A    between atoms: N_9  and  C_10
REMARK    2  A    between atoms: C_10  and  N_11
REMARK                            x       y       z     vdW  Elec       q    Type
REMARK                         _______ _______ _______ _____ _____    ______ ____
ROOT
ATOM      1  C   UNL     1       7.192   4.582  15.514  0.00  0.00    +0.000 A 
ATOM      2  C   UNL     1       5.974   5.101  15.065  0.00  0.00    +0.000 A 
ATOM      3  C   UNL     1       4.993   5.544  15.961  0.00  0.00    +0.000 A 
ATOM      4  C   UNL     1       5.296   5.437  17.322  0.00  0.00    +0.000 A 
ATOM      5  C   UNL     1       6.505   4.939  17.793  0.00  0.00    +0.000 A 
ATOM      6  C   UNL     1       7.475   4.497  16.883  0.00  0.00    +0.000 A 
ATOM      7  N   UNL     1       6.520   4.978  19.162  0.00  0.00    +0.000 NA
ATOM      8  N   UNL     1       5.366   5.487  19.572  0.00  0.00    +0.000 NA
ATOM      9  N   UNL     1       4.620   5.739  18.474  0.00  0.00    +0.000 N 
ENDROOT
BRANCH   9  10
ATOM     10  C   UNL     1       3.281   6.294  18.625  0.00  0.00    +0.000 C 
BRANCH  10  11
ATOM     11  N   UNL     1       2.216   5.306  18.565  0.00  0.00    +0.000 N 
ATOM     12  C   UNL     1       2.072   4.435  19.584  0.00  0.00    +0.000 A 
ATOM     13  N   UNL     1       2.447   4.649  20.824  0.00  0.00    +0.000 NA
ATOM     14  C   UNL     1       2.091   3.575  21.619  0.00  0.00    +0.000 A 
ATOM     15  C   UNL     1       1.484   2.527  20.966  0.00  0.00    +0.000 A 
ATOM     16  S   UNL     1       1.326   2.906  19.305  0.00  0.00    +0.000 S 
ATOM     17  H   UNL     1       2.075   4.932  17.630  0.00  0.00    +0.000 HD
ENDBRANCH  10  11
ENDBRANCH   9  10
TORSDOF 2
ENDMDL
MODEL 5
REMARK VINA RESULT:      -6.5      2.447      5.958
REMARK  Name = 
REMARK  2 active torsions:
REMARK  status: ('A' for Active; 'I' for Inactive)
REMARK    1  A    between atoms: N_9  and  C_10
REMARK    2  A    between atoms: C_10  and  N_11
REMARK                            x       y       z     vdW  Elec       q    Type
REMARK                         _______ _______ _______ _____ _____    ______ ____
ROOT
ATOM      1  C   UNL     1       6.763   4.799  14.909  0.00  0.00    +0.000 A 
ATOM      2  C   UNL     1       5.488   5.370  14.957  0.00  0.00    +0.000 A 
ATOM      3  C   UNL     1       4.865   5.666  16.176  0.00  0.00    +0.000 A 
ATOM      4  C   UNL     1       5.584   5.359  17.336  0.00  0.00    +0.000 A 
ATOM      5  C   UNL     1       6.859   4.805  17.314  0.00  0.00    +0.000 A 
ATOM      6  C   UNL     1       7.467   4.512  16.086  0.00  0.00    +0.000 A 
ATOM      7  N   UNL     1       7.314   4.639  18.595  0.00  0.00    +0.000 NA
ATOM      8  N   UNL     1       6.374   5.073  19.425  0.00  0.00    +0.000 NA
ATOM      9  N   UNL     1       5.327   5.480  18.675  0.00  0.00    +0.000 N 
ENDROOT
BRANCH   9  10
ATOM     10  C   UNL     1       4.130   5.996  19.329  0.00  0.00    +0.000 C 
BRANCH  10  11
ATOM     11  N   UNL     1       3.469   5.040  20.202  0.00  0.00    +0.000 N 
ATOM     12  C   UNL     1       2.558   4.196  19.679  0.00  0.00    +0.000 A 
ATOM     13  N   UNL     1       2.526   3.792  18.429  0.00  0.00    +0.000 NA
ATOM     14  C   UNL     1       1.501   2.882  18.251  0.00  0.00    +0.000 A 
ATOM     15  C   UNL     1       0.728   2.631  19.362  0.00  0.00    +0.000 A 
ATOM     16  S   UNL     1       1.318   3.542  20.684  0.00  0.00    +0.000 S 
ATOM     17  H   UNL     1       3.252   5.425  21.118  0.00  0.00    +0.000 HD
ENDBRANCH  10  11
ENDBRANCH   9  10
TORSDOF 2
ENDMDL
MODEL 6
REMARK VINA RESULT:      -6.5      2.287      2.978
REMARK  Name = 
REMARK  2 active torsions:
REMARK  status: ('A' for Active; 'I' for Inactive)
REMARK    1  A    between atoms: N_9  and  C_10
REMARK    2  A    between atoms: C_10  and  N_11
REMARK                            x       y       z     vdW  Elec       q    Type
REMARK                         _______ _______ _______ _____ _____    ______ ____
ROOT
ATOM      1  C   UNL     1       1.104   2.442  19.353  0.00  0.00    +0.000 A 
ATOM      2  C   UNL     1       1.847   2.547  18.174  0.00  0.00    +0.000 A 
ATOM      3  C   UNL     1       2.498   3.737  17.824  0.00  0.00    +0.000 A 
ATOM      4  C   UNL     1       2.363   4.808  18.712  0.00  0.00    +0.000 A 
ATOM      5  C   UNL     1       1.642   4.724  19.898  0.00  0.00    +0.000 A 
ATOM      6  C   UNL     1       0.994   3.527  20.232  0.00  0.00    +0.000 A 
ATOM      7  N   UNL     1       1.708   5.917  20.566  0.00  0.00    +0.000 NA
ATOM      8  N   UNL     1       2.448   6.751  19.847  0.00  0.00    +0.000 NA
ATOM      9  N   UNL     1       2.820   6.098  18.724  0.00  0.00    +0.000 N 
ENDROOT
BRANCH   9  10
ATOM     10  C   UNL     1       3.636   6.784  17.730  0.00  0.00    +0.000 C 
BRANCH  10  11
ATOM     11  N   UNL     1       5.050   6.451  17.787  0.00  0.00    +0.000 N 
ATOM     12  C   UNL     1       5.608   5.783  16.757  0.00  0.00    +0.000 A 
ATOM     13  N   UNL     1       5.180   5.807  15.516  0.00  0.00    +0.000 NA
ATOM     14  C   UNL     1       6.022   5.064  14.709  0.00  0.00    +0.000 A 
ATOM     15  C   UNL     1       7.066   4.441  15.354  0.00  0.00    +0.000 A 
ATOM     16  S   UNL     1       7.012   4.817  17.022  0.00  0.00    +0.000 S 
ATOM     17  H   UNL     1       5.355   6.178  18.718  0.00  0.00    +0.000 HD
ENDBRANCH  10  11
ENDBRANCH   9  10
TORSDOF 2
ENDMDL
MODEL 7
REMARK VINA RESULT:      -6.4      1.710      2.069
REMARK  Name = 
REMARK  2 active torsions:
REMARK  status: ('A' for Active; 'I' for Inactive)
REMARK    1  A    between atoms: N_9  and  C_10
REMARK    2  A    between atoms: C_10  and  N_11
REMARK                            x       y       z     vdW  Elec       q    Type
REMARK                         _______ _______ _______ _____ _____    ______ ____
ROOT
ATOM      1  C   UNL     1       1.601   2.598  21.510  0.00  0.00    +0.000 A 
ATOM      2  C   UNL     1       2.226   3.818  21.779  0.00  0.00    +0.000 A 
ATOM      3  C   UNL     1       2.485   4.748  20.764  0.00  0.00    +0.000 A 
ATOM      4  C   UNL     1       2.088   4.388  19.472  0.00  0.00    +0.000 A 
ATOM      5  C   UNL     1       1.452   3.187  19.181  0.00  0.00    +0.000 A 
ATOM      6  C   UNL     1       1.203   2.267  20.208  0.00  0.00    +0.000 A 
ATOM      7  N   UNL     1       1.166   3.126  17.843  0.00  0.00    +0.000 NA
ATOM      8  N   UNL     1       1.596   4.248  17.279  0.00  0.00    +0.000 NA
ATOM      9  N   UNL     1       2.171   4.994  18.247  0.00  0.00    +0.000 N 
ENDROOT
BRANCH   9  10
ATOM     10  C   UNL     1       2.752   6.288  17.909  0.00  0.00    +0.000 C 
BRANCH  10  11
ATOM     11  N   UNL     1       4.153   6.426  18.273  0.00  0.00    +0.000 N 
ATOM     12  C   UNL     1       5.079   5.716  17.598  0.00  0.00    +0.000 A 
ATOM     13  N   UNL     1       4.953   5.286  16.362  0.00  0.00    +0.000 NA
ATOM     14  C   UNL     1       6.114   4.651  15.962  0.00  0.00    +0.000 A 
ATOM     15  C   UNL     1       7.104   4.563  16.914  0.00  0.00    +0.000 A 
ATOM     16  S   UNL     1       6.579   5.324  18.353  0.00  0.00    +0.000 S 
ATOM     17  H   UNL     1       4.295   6.509  19.276  0.00  0.00    +0.000 HD
ENDBRANCH  10  11
ENDBRANCH   9  10
TORSDOF 2
ENDMDL
MODEL 8
REMARK VINA RESULT:      -6.4      2.716      3.653
REMARK  Name = 
REMARK  2 active torsions:
REMARK  status: ('A' for Active; 'I' for Inactive)
REMARK    1  A    between atoms: N_9  and  C_10
REMARK    2  A    between atoms: C_10  and  N_11
REMARK                            x       y       z     vdW  Elec       q    Type
REMARK                         _______ _______ _______ _____ _____    ______ ____
ROOT
ATOM      1  C   UNL     1       1.701   2.707  19.583  0.00  0.00    +0.000 A 
ATOM      2  C   UNL     1       1.460   3.152  18.281  0.00  0.00    +0.000 A 
ATOM      3  C   UNL     1       2.478   3.718  17.502  0.00  0.00    +0.000 A 
ATOM      4  C   UNL     1       3.740   3.815  18.097  0.00  0.00    +0.000 A 
ATOM      5  C   UNL     1       4.007   3.365  19.385  0.00  0.00    +0.000 A 
ATOM      6  C   UNL     1       2.977   2.804  20.152  0.00  0.00    +0.000 A 
ATOM      7  N   UNL     1       5.328   3.571  19.683  0.00  0.00    +0.000 NA
ATOM      8  N   UNL     1       5.905   4.131  18.627  0.00  0.00    +0.000 NA
ATOM      9  N   UNL     1       4.951   4.301  17.686  0.00  0.00    +0.000 N 
ENDROOT
BRANCH   9  10
ATOM     10  C   UNL     1       5.300   4.917  16.410  0.00  0.00    +0.000 C 
BRANCH  10  11
ATOM     11  N   UNL     1       5.535   3.967  15.335  0.00  0.00    +0.000 N 
ATOM     12  C   UNL     1       6.321   4.329  14.302  0.00  0.00    +0.000 A 
ATOM     13  N   UNL     1       7.278   5.228  14.354  0.00  0.00    +0.000 NA
ATOM     14  C   UNL     1       7.925   5.302  13.134  0.00  0.00    +0.000 A 
ATOM     15  C   UNL     1       7.425   4.487  12.144  0.00  0.00    +0.000 A 
ATOM     16  S   UNL     1       6.118   3.574  12.765  0.00  0.00    +0.000 S 
ATOM     17  H   UNL     1       4.710   3.420  15.102  0.00  0.00    +0.000 HD
ENDBRANCH  10  11
ENDBRANCH   9  10
TORSDOF 2
ENDMDL
MODEL 9
REMARK VINA RESULT:      -6.3      3.323      6.672
REMARK  Name = 
REMARK  2 active torsions:
REMARK  status: ('A' for Active; 'I' for Inactive)
REMARK    1  A    between atoms: N_9  and  C_10
REMARK    2  A    between atoms: C_10  and  N_11
REMARK                            x       y       z     vdW  Elec       q    Type
REMARK                         _______ _______ _______ _____ _____    ______ ____
ROOT
ATOM      1  C   UNL     1       6.763   3.736  11.780  0.00  0.00    +0.000 A 
ATOM      2  C   UNL     1       5.507   3.343  12.248  0.00  0.00    +0.000 A 
ATOM      3  C   UNL     1       5.063   3.689  13.531  0.00  0.00    +0.000 A 
ATOM      4  C   UNL     1       5.942   4.443  14.314  0.00  0.00    +0.000 A 
ATOM      5  C   UNL     1       7.190   4.858  13.866  0.00  0.00    +0.000 A 
ATOM      6  C   UNL     1       7.621   4.502  12.581  0.00  0.00    +0.000 A 
ATOM      7  N   UNL     1       7.811   5.595  14.840  0.00  0.00    +0.000 NA
ATOM      8  N   UNL     1       6.996   5.663  15.886  0.00  0.00    +0.000 NA
ATOM      9  N   UNL     1       5.888   4.952  15.583  0.00  0.00    +0.000 N 
ENDROOT
BRANCH   9  10
ATOM     10  C   UNL     1       4.816   4.839  16.566  0.00  0.00    +0.000 C 
BRANCH  10  11
ATOM     11  N   UNL     1       4.872   3.631  17.372  0.00  0.00    +0.000 N 
ATOM     12  C   UNL     1       3.926   3.424  18.310  0.00  0.00    +0.000 A 
ATOM     13  N   UNL     1       2.708   3.913  18.280  0.00  0.00    +0.000 NA
ATOM     14  C   UNL     1       1.984   3.450  19.363  0.00  0.00    +0.000 A 
ATOM     15  C   UNL     1       2.674   2.642  20.238  0.00  0.00    +0.000 A 
ATOM     16  S   UNL     1       4.275   2.430  19.675  0.00  0.00    +0.000 S 
ATOM     17  H   UNL     1       5.822   3.368  17.625  0.00  0.00    +0.000 HD
ENDBRANCH  10  11
ENDBRANCH   9  10
TORSDOF 2
ENDMDL
