MODEL 1
REMARK VINA RESULT:      -7.1      0.000      0.000
REMARK  Name = 
REMARK  5 active torsions:
REMARK  status: ('A' for Active; 'I' for Inactive)
REMARK    1  A    between atoms: C_1  and  O_2
REMARK    2  A    between atoms: O_2  and  C_3
REMARK    3  A    between atoms: C_6  and  C_7
REMARK    4  A    between atoms: N_8  and  O_9
REMARK    5  A    between atoms: N_10  and  C_11
REMARK                            x       y       z     vdW  Elec       q    Type
REMARK                         _______ _______ _______ _____ _____    ______ ____
ROOT
ATOM      1  C   UNL     1       2.784   7.213  17.906  0.00  0.00    +0.000 C 
ATOM      2  N   UNL     1       2.133   8.315  18.166  0.00  0.00    +0.000 NA
ATOM      3  N   UNL     1       3.809   7.153  16.977  0.00  0.00    +0.000 N 
ATOM      4  H   UNL     1       3.949   8.058  16.536  0.00  0.00    +0.000 HD
ENDROOT
BRANCH   3   5
ATOM      5  C   UNL     1       5.018   6.434  17.106  0.00  0.00    +0.000 A 
ATOM      6  C   UNL     1       5.094   5.154  16.537  0.00  0.00    +0.000 A 
ATOM      7  C   UNL     1       6.241   4.370  16.684  0.00  0.00    +0.000 A 
ATOM      8  C   UNL     1       7.329   4.873  17.382  0.00  0.00    +0.000 A 
ATOM      9  F   UNL     1       8.427   4.120  17.528  0.00  0.00    +0.000 F 
ATOM     10  C   UNL     1       7.291   6.148  17.934  0.00  0.00    +0.000 A 
ATOM     11  C   UNL     1       6.139   6.928  17.794  0.00  0.00    +0.000 A 
ENDBRANCH   3   5
BRANCH   1  15
ATOM     12  C   UNL     1       1.393   3.676  19.922  0.00  0.00    +0.000 A 
ATOM     13  C   UNL     1       1.972   4.717  20.648  0.00  0.00    +0.000 A 
ATOM     14  C   UNL     1       2.441   5.856  19.995  0.00  0.00    +0.000 A 
ATOM     15  C   UNL     1       2.324   5.967  18.606  0.00  0.00    +0.000 A 
ATOM     16  C   UNL     1       1.782   4.907  17.871  0.00  0.00    +0.000 A 
ATOM     17  C   UNL     1       1.317   3.764  18.532  0.00  0.00    +0.000 A 
BRANCH  12  19
ATOM     18  C   UNL     1       1.581   2.498  21.958  0.00  0.00    +0.000 C 
ATOM     19  O   UNL     1       0.984   2.608  20.673  0.00  0.00    +0.000 OA
ENDBRANCH  12  19
ENDBRANCH   1  15
BRANCH   2  20
ATOM     20  O   UNL     1       2.623   9.389  17.404  0.00  0.00    +0.000 OA
ATOM     21  H   UNL     1       1.889   9.542  16.778  0.00  0.00    +0.000 HD
ENDBRANCH   2  20
TORSDOF 4
ENDMDL
MODEL 2
REMARK VINA RESULT:      -7.0      3.367      6.244
REMARK  Name = 
REMARK  5 active torsions:
REMARK  status: ('A' for Active; 'I' for Inactive)
REMARK    1  A    between atoms: C_1  and  O_2
REMARK    2  A    between atoms: O_2  and  C_3
REMARK    3  A    between atoms: C_6  and  C_7
REMARK    4  A    between atoms: N_8  and  O_9
REMARK    5  A    between atoms: N_10  and  C_11
REMARK                            x       y       z     vdW  Elec       q    Type
REMARK                         _______ _______ _______ _____ _____    ______ ____
ROOT
ATOM      1  C   UNL     1       4.247   3.691  19.139  0.00  0.00    +0.000 C 
ATOM      2  N   UNL     1       4.659   2.707  19.891  0.00  0.00    +0.000 NA
ATOM      3  N   UNL     1       2.993   4.261  19.275  0.00  0.00    +0.000 N 
ATOM      4  H   UNL     1       2.462   3.794  20.007  0.00  0.00    +0.000 HD
ENDROOT
BRANCH   3   5
ATOM      5  C   UNL     1       2.681   5.635  19.190  0.00  0.00    +0.000 A 
ATOM      6  C   UNL     1       2.176   6.274  20.332  0.00  0.00    +0.000 A 
ATOM      7  C   UNL     1       1.793   7.617  20.292  0.00  0.00    +0.000 A 
ATOM      8  C   UNL     1       1.937   8.336  19.115  0.00  0.00    +0.000 A 
ATOM      9  F   UNL     1       1.565   9.622  19.074  0.00  0.00    +0.000 F 
ATOM     10  C   UNL     1       2.460   7.735  17.976  0.00  0.00    +0.000 A 
ATOM     11  C   UNL     1       2.834   6.389  18.014  0.00  0.00    +0.000 A 
ENDBRANCH   3   5
BRANCH   1  15
ATOM     12  C   UNL     1       6.844   5.057  15.992  0.00  0.00    +0.000 A 
ATOM     13  C   UNL     1       5.725   4.280  15.692  0.00  0.00    +0.000 A 
ATOM     14  C   UNL     1       4.892   3.820  16.712  0.00  0.00    +0.000 A 
ATOM     15  C   UNL     1       5.169   4.145  18.043  0.00  0.00    +0.000 A 
ATOM     16  C   UNL     1       6.313   4.889  18.350  0.00  0.00    +0.000 A 
ATOM     17  C   UNL     1       7.147   5.344  17.323  0.00  0.00    +0.000 A 
BRANCH  12  19
ATOM     18  C   UNL     1       7.213   4.848  13.670  0.00  0.00    +0.000 C 
ATOM     19  O   UNL     1       7.588   5.436  14.909  0.00  0.00    +0.000 OA
ENDBRANCH  12  19
ENDBRANCH   1  15
BRANCH   2  20
ATOM     20  O   UNL     1       3.684   2.341  20.833  0.00  0.00    +0.000 OA
ATOM     21  H   UNL     1       3.821   1.376  20.899  0.00  0.00    +0.000 HD
ENDBRANCH   2  20
TORSDOF 4
ENDMDL
MODEL 3
REMARK VINA RESULT:      -7.0      0.134      1.115
REMARK  Name = 
REMARK  5 active torsions:
REMARK  status: ('A' for Active; 'I' for Inactive)
REMARK    1  A    between atoms: C_1  and  O_2
REMARK    2  A    between atoms: O_2  and  C_3
REMARK    3  A    between atoms: C_6  and  C_7
REMARK    4  A    between atoms: N_8  and  O_9
REMARK    5  A    between atoms: N_10  and  C_11
REMARK                            x       y       z     vdW  Elec       q    Type
REMARK                         _______ _______ _______ _____ _____    ______ ____
ROOT
ATOM      1  C   UNL     1       2.769   7.321  17.877  0.00  0.00    +0.000 C 
ATOM      2  N   UNL     1       2.139   8.439  18.116  0.00  0.00    +0.000 NA
ATOM      3  N   UNL     1       3.773   7.217  16.930  0.00  0.00    +0.000 N 
ATOM      4  H   UNL     1       3.916   8.106  16.457  0.00  0.00    +0.000 HD
ENDROOT
BRANCH   3   5
ATOM      5  C   UNL     1       4.974   6.485  17.057  0.00  0.00    +0.000 A 
ATOM      6  C   UNL     1       5.033   5.203  16.492  0.00  0.00    +0.000 A 
ATOM      7  C   UNL     1       6.172   4.406  16.638  0.00  0.00    +0.000 A 
ATOM      8  C   UNL     1       7.269   4.900  17.328  0.00  0.00    +0.000 A 
ATOM      9  F   UNL     1       8.359   4.136  17.473  0.00  0.00    +0.000 F 
ATOM     10  C   UNL     1       7.247   6.177  17.875  0.00  0.00    +0.000 A 
ATOM     11  C   UNL     1       6.104   6.969  17.737  0.00  0.00    +0.000 A 
ENDBRANCH   3   5
BRANCH   1  15
ATOM     12  C   UNL     1       1.516   3.804  20.015  0.00  0.00    +0.000 A 
ATOM     13  C   UNL     1       1.424   3.850  18.624  0.00  0.00    +0.000 A 
ATOM     14  C   UNL     1       1.811   4.997  17.930  0.00  0.00    +0.000 A 
ATOM     15  C   UNL     1       2.306   6.104  18.625  0.00  0.00    +0.000 A 
ATOM     16  C   UNL     1       2.361   6.075  20.023  0.00  0.00    +0.000 A 
ATOM     17  C   UNL     1       1.966   4.924  20.714  0.00  0.00    +0.000 A 
BRANCH  12  19
ATOM     18  C   UNL     1       1.498   2.420  21.927  0.00  0.00    +0.000 C 
ATOM     19  O   UNL     1       1.094   2.632  20.581  0.00  0.00    +0.000 OA
ENDBRANCH  12  19
ENDBRANCH   1  15
BRANCH   2  20
ATOM     20  O   UNL     1       2.627   9.482  17.311  0.00  0.00    +0.000 OA
ATOM     21  H   UNL     1       2.315  10.271  17.795  0.00  0.00    +0.000 HD
ENDBRANCH   2  20
TORSDOF 4
ENDMDL
MODEL 4
REMARK VINA RESULT:      -6.9      2.981      3.601
REMARK  Name = 
REMARK  5 active torsions:
REMARK  status: ('A' for Active; 'I' for Inactive)
REMARK    1  A    between atoms: C_1  and  O_2
REMARK    2  A    between atoms: O_2  and  C_3
REMARK    3  A    between atoms: C_6  and  C_7
REMARK    4  A    between atoms: N_8  and  O_9
REMARK    5  A    between atoms: N_10  and  C_11
REMARK                            x       y       z     vdW  Elec       q    Type
REMARK                         _______ _______ _______ _____ _____    ______ ____
ROOT
ATOM      1  C   UNL     1       6.347   5.383  19.063  0.00  0.00    +0.000 C 
ATOM      2  N   UNL     1       7.164   5.381  20.082  0.00  0.00    +0.000 NA
ATOM      3  N   UNL     1       6.683   5.933  17.837  0.00  0.00    +0.000 N 
ATOM      4  H   UNL     1       7.616   6.337  17.867  0.00  0.00    +0.000 HD
ENDROOT
BRANCH   3   5
ATOM      5  C   UNL     1       6.375   5.401  16.566  0.00  0.00    +0.000 A 
ATOM      6  C   UNL     1       5.436   6.074  15.773  0.00  0.00    +0.000 A 
ATOM      7  C   UNL     1       5.045   5.564  14.532  0.00  0.00    +0.000 A 
ATOM      8  C   UNL     1       5.613   4.387  14.067  0.00  0.00    +0.000 A 
ATOM      9  F   UNL     1       5.237   3.893  12.880  0.00  0.00    +0.000 F 
ATOM     10  C   UNL     1       6.567   3.713  14.820  0.00  0.00    +0.000 A 
ATOM     11  C   UNL     1       6.950   4.220  16.066  0.00  0.00    +0.000 A 
ENDBRANCH   3   5
BRANCH   1  15
ATOM     12  C   UNL     1       2.393   3.786  19.636  0.00  0.00    +0.000 A 
ATOM     13  C   UNL     1       2.598   5.166  19.615  0.00  0.00    +0.000 A 
ATOM     14  C   UNL     1       3.881   5.685  19.449  0.00  0.00    +0.000 A 
ATOM     15  C   UNL     1       4.971   4.825  19.290  0.00  0.00    +0.000 A 
ATOM     16  C   UNL     1       4.775   3.442  19.352  0.00  0.00    +0.000 A 
ATOM     17  C   UNL     1       3.485   2.925  19.524  0.00  0.00    +0.000 A 
BRANCH  12  19
ATOM     18  C   UNL     1       0.620   2.398  18.927  0.00  0.00    +0.000 C 
ATOM     19  O   UNL     1       1.094   3.399  19.819  0.00  0.00    +0.000 OA
ENDBRANCH  12  19
ENDBRANCH   1  15
BRANCH   2  20
ATOM     20  O   UNL     1       8.391   5.982  19.754  0.00  0.00    +0.000 OA
ATOM     21  H   UNL     1       9.012   5.235  19.854  0.00  0.00    +0.000 HD
ENDBRANCH   2  20
TORSDOF 4
ENDMDL
MODEL 5
REMARK VINA RESULT:      -6.9      2.965      3.590
REMARK  Name = 
REMARK  5 active torsions:
REMARK  status: ('A' for Active; 'I' for Inactive)
REMARK    1  A    between atoms: C_1  and  O_2
REMARK    2  A    between atoms: O_2  and  C_3
REMARK    3  A    between atoms: C_6  and  C_7
REMARK    4  A    between atoms: N_8  and  O_9
REMARK    5  A    between atoms: N_10  and  C_11
REMARK                            x       y       z     vdW  Elec       q    Type
REMARK                         _______ _______ _______ _____ _____    ______ ____
ROOT
ATOM      1  C   UNL     1       6.328   5.370  19.086  0.00  0.00    +0.000 C 
ATOM      2  N   UNL     1       7.181   5.371  20.075  0.00  0.00    +0.000 NA
ATOM      3  N   UNL     1       6.604   5.952  17.861  0.00  0.00    +0.000 N 
ATOM      4  H   UNL     1       7.527   6.380  17.865  0.00  0.00    +0.000 HD
ENDROOT
BRANCH   3   5
ATOM      5  C   UNL     1       6.264   5.437  16.591  0.00  0.00    +0.000 A 
ATOM      6  C   UNL     1       6.842   4.223  16.191  0.00  0.00    +0.000 A 
ATOM      7  C   UNL     1       6.593   3.693  14.922  0.00  0.00    +0.000 A 
ATOM      8  C   UNL     1       5.742   4.364  14.055  0.00  0.00    +0.000 A 
ATOM      9  F   UNL     1       5.506   3.860  12.837  0.00  0.00    +0.000 F 
ATOM     10  C   UNL     1       5.135   5.555  14.436  0.00  0.00    +0.000 A 
ATOM     11  C   UNL     1       5.393   6.088  15.702  0.00  0.00    +0.000 A 
ENDBRANCH   3   5
BRANCH   1  15
ATOM     12  C   UNL     1       2.472   3.656  19.925  0.00  0.00    +0.000 A 
ATOM     13  C   UNL     1       3.568   2.830  19.674  0.00  0.00    +0.000 A 
ATOM     14  C   UNL     1       4.815   3.384  19.383  0.00  0.00    +0.000 A 
ATOM     15  C   UNL     1       4.976   4.772  19.352  0.00  0.00    +0.000 A 
ATOM     16  C   UNL     1       3.869   5.602  19.562  0.00  0.00    +0.000 A 
ATOM     17  C   UNL     1       2.619   5.040  19.848  0.00  0.00    +0.000 A 
BRANCH  12  19
ATOM     18  C   UNL     1       0.620   2.484  19.047  0.00  0.00    +0.000 C 
ATOM     19  O   UNL     1       1.302   2.995  20.185  0.00  0.00    +0.000 OA
ENDBRANCH  12  19
ENDBRANCH   1  15
BRANCH   2  20
ATOM     20  O   UNL     1       8.379   6.010  19.715  0.00  0.00    +0.000 OA
ATOM     21  H   UNL     1       8.910   5.264  19.376  0.00  0.00    +0.000 HD
ENDBRANCH   2  20
TORSDOF 4
ENDMDL
MODEL 6
REMARK VINA RESULT:      -6.9      3.898      6.353
REMARK  Name = 
REMARK  5 active torsions:
REMARK  status: ('A' for Active; 'I' for Inactive)
REMARK    1  A    between atoms: C_1  and  O_2
REMARK    2  A    between atoms: O_2  and  C_3
REMARK    3  A    between atoms: C_6  and  C_7
REMARK    4  A    between atoms: N_8  and  O_9
REMARK    5  A    between atoms: N_10  and  C_11
REMARK                            x       y       z     vdW  Elec       q    Type
REMARK                         _______ _______ _______ _____ _____    ______ ____
ROOT
ATOM      1  C   UNL     1       6.613   4.666  18.386  0.00  0.00    +0.000 C 
ATOM      2  N   UNL     1       7.531   5.469  18.852  0.00  0.00    +0.000 NA
ATOM      3  N   UNL     1       5.798   3.905  19.206  0.00  0.00    +0.000 N 
ATOM      4  H   UNL     1       6.037   4.049  20.184  0.00  0.00    +0.000 HD
ENDROOT
BRANCH   3   5
ATOM      5  C   UNL     1       4.419   3.661  19.028  0.00  0.00    +0.000 A 
ATOM      6  C   UNL     1       3.965   2.336  19.085  0.00  0.00    +0.000 A 
ATOM      7  C   UNL     1       2.622   2.026  18.855  0.00  0.00    +0.000 A 
ATOM      8  C   UNL     1       1.720   3.046  18.591  0.00  0.00    +0.000 A 
ATOM      9  F   UNL     1       0.434   2.750  18.366  0.00  0.00    +0.000 F 
ATOM     10  C   UNL     1       2.138   4.371  18.554  0.00  0.00    +0.000 A 
ATOM     11  C   UNL     1       3.483   4.679  18.775  0.00  0.00    +0.000 A 
ENDBRANCH   3   5
BRANCH   1  15
ATOM     12  C   UNL     1       6.399   4.229  14.110  0.00  0.00    +0.000 A 
ATOM     13  C   UNL     1       7.264   5.166  14.679  0.00  0.00    +0.000 A 
ATOM     14  C   UNL     1       7.320   5.322  16.063  0.00  0.00    +0.000 A 
ATOM     15  C   UNL     1       6.518   4.533  16.892  0.00  0.00    +0.000 A 
ATOM     16  C   UNL     1       5.621   3.623  16.323  0.00  0.00    +0.000 A 
ATOM     17  C   UNL     1       5.564   3.473  14.933  0.00  0.00    +0.000 A 
BRANCH  12  19
ATOM     18  C   UNL     1       5.751   3.072  12.158  0.00  0.00    +0.000 C 
ATOM     19  O   UNL     1       6.424   4.179  12.744  0.00  0.00    +0.000 OA
ENDBRANCH  12  19
ENDBRANCH   1  15
BRANCH   2  20
ATOM     20  O   UNL     1       7.554   5.457  20.257  0.00  0.00    +0.000 OA
ATOM     21  H   UNL     1       6.659   5.783  20.474  0.00  0.00    +0.000 HD
ENDBRANCH   2  20
TORSDOF 4
ENDMDL
MODEL 7
REMARK VINA RESULT:      -6.9      2.694      3.934
REMARK  Name = 
REMARK  5 active torsions:
REMARK  status: ('A' for Active; 'I' for Inactive)
REMARK    1  A    between atoms: C_1  and  O_2
REMARK    2  A    between atoms: O_2  and  C_3
REMARK    3  A    between atoms: C_6  and  C_7
REMARK    4  A    between atoms: N_8  and  O_9
REMARK    5  A    between atoms: N_10  and  C_11
REMARK                            x       y       z     vdW  Elec       q    Type
REMARK                         _______ _______ _______ _____ _____    ______ ____
ROOT
ATOM      1  C   UNL     1       4.017   3.268  18.735  0.00  0.00    +0.000 C 
ATOM      2  N   UNL     1       3.366   2.179  18.423  0.00  0.00    +0.000 NA
ATOM      3  N   UNL     1       5.394   3.370  18.634  0.00  0.00    +0.000 N 
ATOM      4  H   UNL     1       5.798   2.493  18.314  0.00  0.00    +0.000 HD
ENDROOT
BRANCH   3   5
ATOM      5  C   UNL     1       6.120   4.489  18.170  0.00  0.00    +0.000 A 
ATOM      6  C   UNL     1       6.864   5.230  19.100  0.00  0.00    +0.000 A 
ATOM      7  C   UNL     1       7.553   6.382  18.713  0.00  0.00    +0.000 A 
ATOM      8  C   UNL     1       7.523   6.785  17.386  0.00  0.00    +0.000 A 
ATOM      9  F   UNL     1       8.179   7.891  17.015  0.00  0.00    +0.000 F 
ATOM     10  C   UNL     1       6.816   6.054  16.439  0.00  0.00    +0.000 A 
ATOM     11  C   UNL     1       6.118   4.907  16.829  0.00  0.00    +0.000 A 
ENDBRANCH   3   5
BRANCH   1  15
ATOM     12  C   UNL     1       1.777   6.553  20.379  0.00  0.00    +0.000 A 
ATOM     13  C   UNL     1       1.809   5.325  21.039  0.00  0.00    +0.000 A 
ATOM     14  C   UNL     1       2.518   4.253  20.498  0.00  0.00    +0.000 A 
ATOM     15  C   UNL     1       3.213   4.406  19.294  0.00  0.00    +0.000 A 
ATOM     16  C   UNL     1       3.148   5.624  18.610  0.00  0.00    +0.000 A 
ATOM     17  C   UNL     1       2.430   6.696  19.155  0.00  0.00    +0.000 A 
BRANCH  12  19
ATOM     18  C   UNL     1       1.266   8.851  20.553  0.00  0.00    +0.000 C 
ATOM     19  O   UNL     1       1.038   7.522  21.001  0.00  0.00    +0.000 OA
ENDBRANCH  12  19
ENDBRANCH   1  15
BRANCH   2  20
ATOM     20  O   UNL     1       4.238   1.175  17.971  0.00  0.00    +0.000 OA
ATOM     21  H   UNL     1       3.681   0.377  18.047  0.00  0.00    +0.000 HD
ENDBRANCH   2  20
TORSDOF 4
ENDMDL
MODEL 8
REMARK VINA RESULT:      -6.8      0.445      1.051
REMARK  Name = 
REMARK  5 active torsions:
REMARK  status: ('A' for Active; 'I' for Inactive)
REMARK    1  A    between atoms: C_1  and  O_2
REMARK    2  A    between atoms: O_2  and  C_3
REMARK    3  A    between atoms: C_6  and  C_7
REMARK    4  A    between atoms: N_8  and  O_9
REMARK    5  A    between atoms: N_10  and  C_11
REMARK                            x       y       z     vdW  Elec       q    Type
REMARK                         _______ _______ _______ _____ _____    ______ ____
ROOT
ATOM      1  C   UNL     1       2.875   7.117  17.934  0.00  0.00    +0.000 C 
ATOM      2  N   UNL     1       2.291   8.259  18.178  0.00  0.00    +0.000 NA
ATOM      3  N   UNL     1       3.895   6.981  17.008  0.00  0.00    +0.000 N 
ATOM      4  H   UNL     1       4.090   7.870  16.554  0.00  0.00    +0.000 HD
ENDROOT
BRANCH   3   5
ATOM      5  C   UNL     1       5.057   6.191  17.149  0.00  0.00    +0.000 A 
ATOM      6  C   UNL     1       5.705   6.179  18.392  0.00  0.00    +0.000 A 
ATOM      7  C   UNL     1       6.892   5.466  18.576  0.00  0.00    +0.000 A 
ATOM      8  C   UNL     1       7.425   4.740  17.522  0.00  0.00    +0.000 A 
ATOM      9  F   UNL     1       8.566   4.060  17.694  0.00  0.00    +0.000 F 
ATOM     10  C   UNL     1       6.789   4.713  16.286  0.00  0.00    +0.000 A 
ATOM     11  C   UNL     1       5.606   5.434  16.101  0.00  0.00    +0.000 A 
ENDBRANCH   3   5
BRANCH   1  15
ATOM     12  C   UNL     1       1.266   3.694  19.987  0.00  0.00    +0.000 A 
ATOM     13  C   UNL     1       1.760   4.780  20.711  0.00  0.00    +0.000 A 
ATOM     14  C   UNL     1       2.299   5.882  20.048  0.00  0.00    +0.000 A 
ATOM     15  C   UNL     1       2.338   5.910  18.651  0.00  0.00    +0.000 A 
ATOM     16  C   UNL     1       1.882   4.806  17.924  0.00  0.00    +0.000 A 
ATOM     17  C   UNL     1       1.346   3.700  18.594  0.00  0.00    +0.000 A 
BRANCH  12  19
ATOM     18  C   UNL     1       1.491   2.400  21.948  0.00  0.00    +0.000 C 
ATOM     19  O   UNL     1       0.776   2.670  20.749  0.00  0.00    +0.000 OA
ENDBRANCH  12  19
ENDBRANCH   1  15
BRANCH   2  20
ATOM     20  O   UNL     1       2.846   9.291  17.402  0.00  0.00    +0.000 OA
ATOM     21  H   UNL     1       3.687   9.462  17.869  0.00  0.00    +0.000 HD
ENDBRANCH   2  20
TORSDOF 4
ENDMDL
MODEL 9
REMARK VINA RESULT:      -6.8      3.755      6.189
REMARK  Name = 
REMARK  5 active torsions:
REMARK  status: ('A' for Active; 'I' for Inactive)
REMARK    1  A    between atoms: C_1  and  O_2
REMARK    2  A    between atoms: O_2  and  C_3
REMARK    3  A    between atoms: C_6  and  C_7
REMARK    4  A    between atoms: N_8  and  O_9
REMARK    5  A    between atoms: N_10  and  C_11
REMARK                            x       y       z     vdW  Elec       q    Type
REMARK                         _______ _______ _______ _____ _____    ______ ____
ROOT
ATOM      1  C   UNL     1       6.476   4.871  18.522  0.00  0.00    +0.000 C 
ATOM      2  N   UNL     1       7.420   5.683  18.916  0.00  0.00    +0.000 NA
ATOM      3  N   UNL     1       5.801   4.032  19.392  0.00  0.00    +0.000 N 
ATOM      4  H   UNL     1       6.160   4.130  20.338  0.00  0.00    +0.000 HD
ENDROOT
BRANCH   3   5
ATOM      5  C   UNL     1       4.419   3.743  19.376  0.00  0.00    +0.000 A 
ATOM      6  C   UNL     1       4.018   2.433  19.076  0.00  0.00    +0.000 A 
ATOM      7  C   UNL     1       2.664   2.100  18.985  0.00  0.00    +0.000 A 
ATOM      8  C   UNL     1       1.703   3.072  19.221  0.00  0.00    +0.000 A 
ATOM      9  F   UNL     1       0.404   2.756  19.129  0.00  0.00    +0.000 F 
ATOM     10  C   UNL     1       2.072   4.372  19.546  0.00  0.00    +0.000 A 
ATOM     11  C   UNL     1       3.427   4.706  19.627  0.00  0.00    +0.000 A 
ENDBRANCH   3   5
BRANCH   1  15
ATOM     12  C   UNL     1       5.595   4.684  14.315  0.00  0.00    +0.000 A 
ATOM     13  C   UNL     1       6.334   3.669  14.924  0.00  0.00    +0.000 A 
ATOM     14  C   UNL     1       6.637   3.738  16.283  0.00  0.00    +0.000 A 
ATOM     15  C   UNL     1       6.192   4.820  17.048  0.00  0.00    +0.000 A 
ATOM     16  C   UNL     1       5.487   5.858  16.432  0.00  0.00    +0.000 A 
ATOM     17  C   UNL     1       5.189   5.787  15.066  0.00  0.00    +0.000 A 
BRANCH  12  19
ATOM     18  C   UNL     1       5.962   3.350  12.403  0.00  0.00    +0.000 C 
ATOM     19  O   UNL     1       5.374   4.511  12.976  0.00  0.00    +0.000 OA
ENDBRANCH  12  19
ENDBRANCH   1  15
BRANCH   2  20
ATOM     20  O   UNL     1       7.626   5.591  20.303  0.00  0.00    +0.000 OA
ATOM     21  H   UNL     1       7.606   4.625  20.445  0.00  0.00    +0.000 HD
ENDBRANCH   2  20
TORSDOF 4
ENDMDL
