MODEL 1
REMARK VINA RESULT:      -8.8      0.000      0.000
REMARK  Name = 
REMARK  9 active torsions:
REMARK  status: ('A' for Active; 'I' for Inactive)
REMARK    1  A    between atoms: C_1  and  C_2
REMARK    2  A    between atoms: C_2  and  C_3
REMARK    3  A    between atoms: C_3  and  C_4
REMARK    4  A    between atoms: C_9  and  N_10
REMARK    5  A    between atoms: C_11  and  C_13
REMARK    6  A    between atoms: C_13  and  C_14
REMARK    7  A    between atoms: C_13  and  N_15
REMARK    8  A    between atoms: C_16  and  C_18
REMARK    9  A    between atoms: C_21  and  C_22
REMARK                            x       y       z     vdW  Elec       q    Type
REMARK                         _______ _______ _______ _____ _____    ______ ____
ROOT
ATOM      1  N   UNL     1       2.089   4.706  18.961  0.00  0.00    +0.000 N 
ATOM      2  C   UNL     1       2.832   5.692  19.568  0.00  0.00    +0.000 C 
ATOM      3  O   UNL     1       3.959   5.496  20.008  0.00  0.00    +0.000 OA
ATOM      4  H   UNL     1       1.153   4.908  18.634  0.00  0.00    +0.000 HD
ENDROOT
BRANCH   2   5
ATOM      5  C   UNL     1       2.211   7.042  19.646  0.00  0.00    +0.000 A 
ATOM      6  C   UNL     1       2.270   7.882  18.528  0.00  0.00    +0.000 A 
ATOM      7  C   UNL     1       1.658   9.141  18.563  0.00  0.00    +0.000 A 
ATOM      8  C   UNL     1       0.974   9.560  19.709  0.00  0.00    +0.000 A 
ATOM      9  C   UNL     1       0.910   8.715  20.822  0.00  0.00    +0.000 A 
ATOM     10  C   UNL     1       1.525   7.460  20.793  0.00  0.00    +0.000 A 
BRANCH   8  11
ATOM     11  C   UNL     1       0.321  10.870  19.739  0.00  0.00    +0.000 C 
ATOM     12  C   UNL     1      -0.845  11.167  19.151  0.00  0.00    +0.000 C 
ATOM     13  S   UNL     1      -1.875  10.131  18.232  0.00  0.00    +0.000 S 
ATOM     14  C   UNL     1      -3.036  11.408  17.943  0.00  0.00    +0.000 C 
ATOM     15  S   UNL     1      -4.445  11.284  17.083  0.00  0.00    +0.000 S 
ATOM     16  N   UNL     1      -2.617  12.557  18.542  0.00  0.00    +0.000 N 
ATOM     17  C   UNL     1      -1.436  12.530  19.225  0.00  0.00    +0.000 C 
ATOM     18  O   UNL     1      -0.943  13.485  19.808  0.00  0.00    +0.000 OA
ATOM     19  H   UNL     1      -3.153  13.408  18.491  0.00  0.00    +0.000 HD
ENDBRANCH   8  11
ENDBRANCH   2   5
BRANCH   1  20
ATOM     20  C   UNL     1       2.560   3.326  18.835  0.00  0.00    +0.000 C 
ATOM     21  C   UNL     1       1.386   2.410  18.487  0.00  0.00    +0.000 C 
BRANCH  20  23
ATOM     22  N   UNL     1       3.965   4.370  17.095  0.00  0.00    +0.000 N 
ATOM     23  C   UNL     1       3.650   3.186  17.743  0.00  0.00    +0.000 C 
ATOM     24  O   UNL     1       4.177   2.100  17.521  0.00  0.00    +0.000 OA
ATOM     25  H   UNL     1       3.355   5.158  17.291  0.00  0.00    +0.000 HD
BRANCH  22  31
ATOM     26  C   UNL     1       6.171   5.308  16.526  0.00  0.00    +0.000 A 
ATOM     27  C   UNL     1       7.243   5.386  15.608  0.00  0.00    +0.000 A 
ATOM     28  C   UNL     1       7.179   4.772  14.357  0.00  0.00    +0.000 A 
ATOM     29  C   UNL     1       6.044   4.062  14.002  0.00  0.00    +0.000 A 
ATOM     30  C   UNL     1       4.986   3.953  14.905  0.00  0.00    +0.000 A 
ATOM     31  C   UNL     1       5.028   4.558  16.172  0.00  0.00    +0.000 A 
BRANCH  26  32
ATOM     32  C   UNL     1       6.316   6.057  17.837  0.00  0.00    +0.000 C 
BRANCH  32  34
ATOM     33  C   UNL     1       7.714   8.134  17.647  0.00  0.00    +0.000 C 
ATOM     34  C   UNL     1       7.709   6.667  18.052  0.00  0.00    +0.000 C 
ENDBRANCH  32  34
ENDBRANCH  26  32
ENDBRANCH  22  31
ENDBRANCH  20  23
ENDBRANCH   1  20
TORSDOF 7
ENDMDL
MODEL 2
REMARK VINA RESULT:      -8.3      2.071      2.392
REMARK  Name = 
REMARK  9 active torsions:
REMARK  status: ('A' for Active; 'I' for Inactive)
REMARK    1  A    between atoms: C_1  and  C_2
REMARK    2  A    between atoms: C_2  and  C_3
REMARK    3  A    between atoms: C_3  and  C_4
REMARK    4  A    between atoms: C_9  and  N_10
REMARK    5  A    between atoms: C_11  and  C_13
REMARK    6  A    between atoms: C_13  and  C_14
REMARK    7  A    between atoms: C_13  and  N_15
REMARK    8  A    between atoms: C_16  and  C_18
REMARK    9  A    between atoms: C_21  and  C_22
REMARK                            x       y       z     vdW  Elec       q    Type
REMARK                         _______ _______ _______ _____ _____    ______ ____
ROOT
ATOM      1  N   UNL     1       1.943   5.063  18.851  0.00  0.00    +0.000 N 
ATOM      2  C   UNL     1       2.683   6.060  19.443  0.00  0.00    +0.000 C 
ATOM      3  O   UNL     1       3.780   5.858  19.950  0.00  0.00    +0.000 OA
ATOM      4  H   UNL     1       1.031   5.272  18.466  0.00  0.00    +0.000 HD
ENDROOT
BRANCH   2   5
ATOM      5  C   UNL     1       2.098   7.428  19.419  0.00  0.00    +0.000 A 
ATOM      6  C   UNL     1       2.039   8.120  18.203  0.00  0.00    +0.000 A 
ATOM      7  C   UNL     1       1.457   9.391  18.146  0.00  0.00    +0.000 A 
ATOM      8  C   UNL     1       0.920   9.972  19.301  0.00  0.00    +0.000 A 
ATOM      9  C   UNL     1       0.974   9.276  20.513  0.00  0.00    +0.000 A 
ATOM     10  C   UNL     1       1.559   8.008  20.574  0.00  0.00    +0.000 A 
BRANCH   8  11
ATOM     11  C   UNL     1       0.298  11.296  19.237  0.00  0.00    +0.000 C 
ATOM     12  C   UNL     1       0.923  12.430  18.896  0.00  0.00    +0.000 C 
ATOM     13  S   UNL     1       2.575  12.646  18.444  0.00  0.00    +0.000 S 
ATOM     14  C   UNL     1       2.372  14.370  18.221  0.00  0.00    +0.000 C 
ATOM     15  S   UNL     1       3.538  15.448  17.752  0.00  0.00    +0.000 S 
ATOM     16  N   UNL     1       1.083  14.721  18.488  0.00  0.00    +0.000 N 
ATOM     17  C   UNL     1       0.215  13.738  18.864  0.00  0.00    +0.000 C 
ATOM     18  O   UNL     1      -0.964  13.911  19.133  0.00  0.00    +0.000 OA
ATOM     19  H   UNL     1       0.767  15.674  18.415  0.00  0.00    +0.000 HD
ENDBRANCH   8  11
ENDBRANCH   2   5
BRANCH   1  20
ATOM     20  C   UNL     1       2.379   3.666  18.821  0.00  0.00    +0.000 C 
ATOM     21  C   UNL     1       1.189   2.761  18.501  0.00  0.00    +0.000 C 
BRANCH  20  23
ATOM     22  N   UNL     1       3.894   4.576  17.098  0.00  0.00    +0.000 N 
ATOM     23  C   UNL     1       3.489   3.431  17.767  0.00  0.00    +0.000 C 
ATOM     24  O   UNL     1       3.957   2.309  17.590  0.00  0.00    +0.000 OA
ATOM     25  H   UNL     1       3.327   5.404  17.255  0.00  0.00    +0.000 HD
BRANCH  22  31
ATOM     26  C   UNL     1       6.201   5.284  16.605  0.00  0.00    +0.000 A 
ATOM     27  C   UNL     1       7.297   5.272  15.711  0.00  0.00    +0.000 A 
ATOM     28  C   UNL     1       7.196   4.707  14.440  0.00  0.00    +0.000 A 
ATOM     29  C   UNL     1       6.000   4.136  14.039  0.00  0.00    +0.000 A 
ATOM     30  C   UNL     1       4.915   4.116  14.917  0.00  0.00    +0.000 A 
ATOM     31  C   UNL     1       4.993   4.674  16.204  0.00  0.00    +0.000 A 
BRANCH  26  32
ATOM     32  C   UNL     1       6.396   5.972  17.942  0.00  0.00    +0.000 C 
BRANCH  32  34
ATOM     33  C   UNL     1       7.669   8.112  17.614  0.00  0.00    +0.000 C 
ATOM     34  C   UNL     1       7.757   6.668  18.089  0.00  0.00    +0.000 C 
ENDBRANCH  32  34
ENDBRANCH  26  32
ENDBRANCH  22  31
ENDBRANCH  20  23
ENDBRANCH   1  20
TORSDOF 7
ENDMDL
MODEL 3
REMARK VINA RESULT:      -8.1      3.110     10.043
REMARK  Name = 
REMARK  9 active torsions:
REMARK  status: ('A' for Active; 'I' for Inactive)
REMARK    1  A    between atoms: C_1  and  C_2
REMARK    2  A    between atoms: C_2  and  C_3
REMARK    3  A    between atoms: C_3  and  C_4
REMARK    4  A    between atoms: C_9  and  N_10
REMARK    5  A    between atoms: C_11  and  C_13
REMARK    6  A    between atoms: C_13  and  C_14
REMARK    7  A    between atoms: C_13  and  N_15
REMARK    8  A    between atoms: C_16  and  C_18
REMARK    9  A    between atoms: C_21  and  C_22
REMARK                            x       y       z     vdW  Elec       q    Type
REMARK                         _______ _______ _______ _____ _____    ______ ____
ROOT
ATOM      1  N   UNL     1       1.147  10.999  19.505  0.00  0.00    +0.000 N 
ATOM      2  C   UNL     1       0.899   9.925  20.328  0.00  0.00    +0.000 C 
ATOM      3  O   UNL     1       0.240  10.018  21.357  0.00  0.00    +0.000 OA
ATOM      4  H   UNL     1       1.717  10.880  18.678  0.00  0.00    +0.000 HD
ENDROOT
BRANCH   2   5
ATOM      5  C   UNL     1       1.451   8.613  19.896  0.00  0.00    +0.000 A 
ATOM      6  C   UNL     1       1.430   7.538  20.793  0.00  0.00    +0.000 A 
ATOM      7  C   UNL     1       1.907   6.283  20.397  0.00  0.00    +0.000 A 
ATOM      8  C   UNL     1       2.395   6.093  19.099  0.00  0.00    +0.000 A 
ATOM      9  C   UNL     1       2.409   7.166  18.203  0.00  0.00    +0.000 A 
ATOM     10  C   UNL     1       1.939   8.422  18.596  0.00  0.00    +0.000 A 
BRANCH   8  11
ATOM     11  C   UNL     1       2.879   4.776  18.681  0.00  0.00    +0.000 C 
ATOM     12  C   UNL     1       3.857   4.558  17.792  0.00  0.00    +0.000 C 
ATOM     13  S   UNL     1       4.794   5.720  16.924  0.00  0.00    +0.000 S 
ATOM     14  C   UNL     1       5.711   4.480  16.096  0.00  0.00    +0.000 C 
ATOM     15  S   UNL     1       6.920   4.721  14.991  0.00  0.00    +0.000 S 
ATOM     16  N   UNL     1       5.289   3.249  16.497  0.00  0.00    +0.000 N 
ATOM     17  C   UNL     1       4.284   3.183  17.417  0.00  0.00    +0.000 C 
ATOM     18  O   UNL     1       3.810   2.148  17.862  0.00  0.00    +0.000 OA
ATOM     19  H   UNL     1       5.697   2.404  16.132  0.00  0.00    +0.000 HD
ENDBRANCH   8  11
ENDBRANCH   2   5
BRANCH   1  20
ATOM     20  C   UNL     1       0.690  12.355  19.814  0.00  0.00    +0.000 C 
ATOM     21  C   UNL     1       1.714  13.372  19.312  0.00  0.00    +0.000 C 
BRANCH  20  23
ATOM     22  N   UNL     1      -1.708  11.818  19.575  0.00  0.00    +0.000 N 
ATOM     23  C   UNL     1      -0.684  12.661  19.168  0.00  0.00    +0.000 C 
ATOM     24  O   UNL     1      -0.812  13.595  18.382  0.00  0.00    +0.000 OA
ATOM     25  H   UNL     1      -1.425  11.012  20.124  0.00  0.00    +0.000 HD
BRANCH  22  31
ATOM     26  C   UNL     1      -3.679  11.232  18.219  0.00  0.00    +0.000 A 
ATOM     27  C   UNL     1      -5.073  11.348  18.013  0.00  0.00    +0.000 A 
ATOM     28  C   UNL     1      -5.859  12.197  18.792  0.00  0.00    +0.000 A 
ATOM     29  C   UNL     1      -5.268  12.943  19.798  0.00  0.00    +0.000 A 
ATOM     30  C   UNL     1      -3.897  12.822  20.033  0.00  0.00    +0.000 A 
ATOM     31  C   UNL     1      -3.085  11.971  19.265  0.00  0.00    +0.000 A 
BRANCH  26  32
ATOM     32  C   UNL     1      -2.906  10.324  17.282  0.00  0.00    +0.000 C 
BRANCH  32  34
ATOM     33  C   UNL     1      -3.222  10.110  14.800  0.00  0.00    +0.000 C 
ATOM     34  C   UNL     1      -2.611  10.952  15.912  0.00  0.00    +0.000 C 
ENDBRANCH  32  34
ENDBRANCH  26  32
ENDBRANCH  22  31
ENDBRANCH  20  23
ENDBRANCH   1  20
TORSDOF 7
ENDMDL
MODEL 4
REMARK VINA RESULT:      -7.9      3.661     10.986
REMARK  Name = 
REMARK  9 active torsions:
REMARK  status: ('A' for Active; 'I' for Inactive)
REMARK    1  A    between atoms: C_1  and  C_2
REMARK    2  A    between atoms: C_2  and  C_3
REMARK    3  A    between atoms: C_3  and  C_4
REMARK    4  A    between atoms: C_9  and  N_10
REMARK    5  A    between atoms: C_11  and  C_13
REMARK    6  A    between atoms: C_13  and  C_14
REMARK    7  A    between atoms: C_13  and  N_15
REMARK    8  A    between atoms: C_16  and  C_18
REMARK    9  A    between atoms: C_21  and  C_22
REMARK                            x       y       z     vdW  Elec       q    Type
REMARK                         _______ _______ _______ _____ _____    ______ ____
ROOT
ATOM      1  N   UNL     1      -0.870  10.539  18.154  0.00  0.00    +0.000 N 
ATOM      2  C   UNL     1       0.409  10.648  18.649  0.00  0.00    +0.000 C 
ATOM      3  O   UNL     1       0.911  11.722  18.957  0.00  0.00    +0.000 OA
ATOM      4  H   UNL     1      -1.233   9.632  17.890  0.00  0.00    +0.000 HD
ENDROOT
BRANCH   2   5
ATOM      5  C   UNL     1       1.166   9.378  18.825  0.00  0.00    +0.000 A 
ATOM      6  C   UNL     1       1.870   8.851  17.735  0.00  0.00    +0.000 A 
ATOM      7  C   UNL     1       2.621   7.679  17.885  0.00  0.00    +0.000 A 
ATOM      8  C   UNL     1       2.683   7.037  19.127  0.00  0.00    +0.000 A 
ATOM      9  C   UNL     1       1.985   7.569  20.215  0.00  0.00    +0.000 A 
ATOM     10  C   UNL     1       1.229   8.736  20.068  0.00  0.00    +0.000 A 
BRANCH   8  11
ATOM     11  C   UNL     1       3.482   5.821  19.287  0.00  0.00    +0.000 C 
ATOM     12  C   UNL     1       4.381   5.364  18.406  0.00  0.00    +0.000 C 
ATOM     13  S   UNL     1       4.842   6.054  16.892  0.00  0.00    +0.000 S 
ATOM     14  C   UNL     1       5.987   4.771  16.565  0.00  0.00    +0.000 C 
ATOM     15  S   UNL     1       6.949   4.626  15.226  0.00  0.00    +0.000 S 
ATOM     16  N   UNL     1       5.986   3.878  17.594  0.00  0.00    +0.000 N 
ATOM     17  C   UNL     1       5.146   4.111  18.644  0.00  0.00    +0.000 C 
ATOM     18  O   UNL     1       5.044   3.394  19.629  0.00  0.00    +0.000 OA
ATOM     19  H   UNL     1       6.581   3.066  17.592  0.00  0.00    +0.000 HD
ENDBRANCH   8  11
ENDBRANCH   2   5
BRANCH   1  20
ATOM     20  C   UNL     1      -1.722  11.702  17.904  0.00  0.00    +0.000 C 
ATOM     21  C   UNL     1      -2.620  11.434  16.696  0.00  0.00    +0.000 C 
BRANCH  20  23
ATOM     22  N   UNL     1      -3.883  12.486  18.806  0.00  0.00    +0.000 N 
ATOM     23  C   UNL     1      -2.610  12.039  19.128  0.00  0.00    +0.000 C 
ATOM     24  O   UNL     1      -2.186  11.886  20.270  0.00  0.00    +0.000 OA
ATOM     25  H   UNL     1      -4.045  12.687  17.823  0.00  0.00    +0.000 HD
BRANCH  22  31
ATOM     26  C   UNL     1      -5.973  11.760  19.888  0.00  0.00    +0.000 A 
ATOM     27  C   UNL     1      -6.954  11.987  20.881  0.00  0.00    +0.000 A 
ATOM     28  C   UNL     1      -6.945  13.140  21.667  0.00  0.00    +0.000 A 
ATOM     29  C   UNL     1      -5.950  14.085  21.480  0.00  0.00    +0.000 A 
ATOM     30  C   UNL     1      -4.959  13.866  20.522  0.00  0.00    +0.000 A 
ATOM     31  C   UNL     1      -4.944  12.712  19.722  0.00  0.00    +0.000 A 
BRANCH  26  32
ATOM     32  C   UNL     1      -6.104  10.503  19.050  0.00  0.00    +0.000 C 
BRANCH  32  34
ATOM     33  C   UNL     1      -6.977   8.313  19.916  0.00  0.00    +0.000 C 
ATOM     34  C   UNL     1      -7.361   9.678  19.360  0.00  0.00    +0.000 C 
ENDBRANCH  32  34
ENDBRANCH  26  32
ENDBRANCH  22  31
ENDBRANCH  20  23
ENDBRANCH   1  20
TORSDOF 7
ENDMDL
MODEL 5
REMARK VINA RESULT:      -7.8      3.298     10.353
REMARK  Name = 
REMARK  9 active torsions:
REMARK  status: ('A' for Active; 'I' for Inactive)
REMARK    1  A    between atoms: C_1  and  C_2
REMARK    2  A    between atoms: C_2  and  C_3
REMARK    3  A    between atoms: C_3  and  C_4
REMARK    4  A    between atoms: C_9  and  N_10
REMARK    5  A    between atoms: C_11  and  C_13
REMARK    6  A    between atoms: C_13  and  C_14
REMARK    7  A    between atoms: C_13  and  N_15
REMARK    8  A    between atoms: C_16  and  C_18
REMARK    9  A    between atoms: C_21  and  C_22
REMARK                            x       y       z     vdW  Elec       q    Type
REMARK                         _______ _______ _______ _____ _____    ______ ____
ROOT
ATOM      1  N   UNL     1      -0.165  11.746  19.941  0.00  0.00    +0.000 N 
ATOM      2  C   UNL     1       0.228  10.630  20.642  0.00  0.00    +0.000 C 
ATOM      3  O   UNL     1      -0.037  10.465  21.827  0.00  0.00    +0.000 OA
ATOM      4  H   UNL     1       0.098  11.849  18.969  0.00  0.00    +0.000 HD
ENDROOT
BRANCH   2   5
ATOM      5  C   UNL     1       0.981   9.595  19.882  0.00  0.00    +0.000 A 
ATOM      6  C   UNL     1       1.257   9.816  18.527  0.00  0.00    +0.000 A 
ATOM      7  C   UNL     1       1.997   8.877  17.800  0.00  0.00    +0.000 A 
ATOM      8  C   UNL     1       2.477   7.720  18.425  0.00  0.00    +0.000 A 
ATOM      9  C   UNL     1       2.205   7.506  19.780  0.00  0.00    +0.000 A 
ATOM     10  C   UNL     1       1.461   8.438  20.509  0.00  0.00    +0.000 A 
BRANCH   8  11
ATOM     11  C   UNL     1       3.264   6.746  17.668  0.00  0.00    +0.000 C 
ATOM     12  C   UNL     1       3.640   5.540  18.114  0.00  0.00    +0.000 C 
ATOM     13  S   UNL     1       3.311   4.816  19.645  0.00  0.00    +0.000 S 
ATOM     14  C   UNL     1       4.189   3.358  19.234  0.00  0.00    +0.000 C 
ATOM     15  S   UNL     1       4.398   2.028  20.197  0.00  0.00    +0.000 S 
ATOM     16  N   UNL     1       4.692   3.463  17.973  0.00  0.00    +0.000 N 
ATOM     17  C   UNL     1       4.449   4.613  17.279  0.00  0.00    +0.000 C 
ATOM     18  O   UNL     1       4.839   4.839  16.142  0.00  0.00    +0.000 OA
ATOM     19  H   UNL     1       5.230   2.722  17.552  0.00  0.00    +0.000 HD
ENDBRANCH   8  11
ENDBRANCH   2   5
BRANCH   1  20
ATOM     20  C   UNL     1      -0.889  12.856  20.562  0.00  0.00    +0.000 C 
ATOM     21  C   UNL     1      -0.667  14.133  19.752  0.00  0.00    +0.000 C 
BRANCH  20  23
ATOM     22  N   UNL     1      -3.082  12.669  19.445  0.00  0.00    +0.000 N 
ATOM     23  C   UNL     1      -2.409  12.574  20.654  0.00  0.00    +0.000 C 
ATOM     24  O   UNL     1      -2.926  12.273  21.726  0.00  0.00    +0.000 OA
ATOM     25  H   UNL     1      -2.549  13.055  18.671  0.00  0.00    +0.000 HD
BRANCH  22  31
ATOM     26  C   UNL     1      -4.771  11.298  18.289  0.00  0.00    +0.000 A 
ATOM     27  C   UNL     1      -6.126  10.911  18.167  0.00  0.00    +0.000 A 
ATOM     28  C   UNL     1      -7.132  11.529  18.909  0.00  0.00    +0.000 A 
ATOM     29  C   UNL     1      -6.803  12.542  19.794  0.00  0.00    +0.000 A 
ATOM     30  C   UNL     1      -5.468  12.920  19.948  0.00  0.00    +0.000 A 
ATOM     31  C   UNL     1      -4.437  12.310  19.215  0.00  0.00    +0.000 A 
BRANCH  26  32
ATOM     32  C   UNL     1      -3.761  10.602  17.398  0.00  0.00    +0.000 C 
BRANCH  32  34
ATOM     33  C   UNL     1      -2.851  10.296  15.077  0.00  0.00    +0.000 C 
ATOM     34  C   UNL     1      -4.050  10.752  15.897  0.00  0.00    +0.000 C 
ENDBRANCH  32  34
ENDBRANCH  26  32
ENDBRANCH  22  31
ENDBRANCH  20  23
ENDBRANCH   1  20
TORSDOF 7
ENDMDL
MODEL 6
REMARK VINA RESULT:      -7.8      2.428      2.786
REMARK  Name = 
REMARK  9 active torsions:
REMARK  status: ('A' for Active; 'I' for Inactive)
REMARK    1  A    between atoms: C_1  and  C_2
REMARK    2  A    between atoms: C_2  and  C_3
REMARK    3  A    between atoms: C_3  and  C_4
REMARK    4  A    between atoms: C_9  and  N_10
REMARK    5  A    between atoms: C_11  and  C_13
REMARK    6  A    between atoms: C_13  and  C_14
REMARK    7  A    between atoms: C_13  and  N_15
REMARK    8  A    between atoms: C_16  and  C_18
REMARK    9  A    between atoms: C_21  and  C_22
REMARK                            x       y       z     vdW  Elec       q    Type
REMARK                         _______ _______ _______ _____ _____    ______ ____
ROOT
ATOM      1  N   UNL     1       3.224   5.832  19.985  0.00  0.00    +0.000 N 
ATOM      2  C   UNL     1       2.388   6.301  18.998  0.00  0.00    +0.000 C 
ATOM      3  O   UNL     1       2.024   5.609  18.055  0.00  0.00    +0.000 OA
ATOM      4  H   UNL     1       3.517   6.447  20.733  0.00  0.00    +0.000 HD
ENDROOT
BRANCH   2   5
ATOM      5  C   UNL     1       1.912   7.704  19.140  0.00  0.00    +0.000 A 
ATOM      6  C   UNL     1       1.824   8.510  17.999  0.00  0.00    +0.000 A 
ATOM      7  C   UNL     1       1.342   9.820  18.099  0.00  0.00    +0.000 A 
ATOM      8  C   UNL     1       0.933  10.326  19.338  0.00  0.00    +0.000 A 
ATOM      9  C   UNL     1       1.015   9.517  20.476  0.00  0.00    +0.000 A 
ATOM     10  C   UNL     1       1.502   8.210  20.380  0.00  0.00    +0.000 A 
BRANCH   8  11
ATOM     11  C   UNL     1       0.414  11.691  19.440  0.00  0.00    +0.000 C 
ATOM     12  C   UNL     1       1.068  12.798  19.065  0.00  0.00    +0.000 C 
ATOM     13  S   UNL     1       2.646  12.927  18.377  0.00  0.00    +0.000 S 
ATOM     14  C   UNL     1       2.547  14.672  18.277  0.00  0.00    +0.000 C 
ATOM     15  S   UNL     1       3.710  15.693  17.692  0.00  0.00    +0.000 S 
ATOM     16  N   UNL     1       1.344  15.094  18.758  0.00  0.00    +0.000 N 
ATOM     17  C   UNL     1       0.468  14.151  19.212  0.00  0.00    +0.000 C 
ATOM     18  O   UNL     1      -0.641  14.389  19.667  0.00  0.00    +0.000 OA
ATOM     19  H   UNL     1       1.096  16.070  18.784  0.00  0.00    +0.000 HD
ENDBRANCH   8  11
ENDBRANCH   2   5
BRANCH   1  20
ATOM     20  C   UNL     1       3.791   4.482  19.965  0.00  0.00    +0.000 C 
ATOM     21  C   UNL     1       2.687   3.463  19.687  0.00  0.00    +0.000 C 
BRANCH  20  23
ATOM     22  N   UNL     1       4.473   4.612  17.596  0.00  0.00    +0.000 N 
ATOM     23  C   UNL     1       4.895   4.338  18.888  0.00  0.00    +0.000 C 
ATOM     24  O   UNL     1       6.040   4.024  19.204  0.00  0.00    +0.000 OA
ATOM     25  H   UNL     1       3.471   4.728  17.473  0.00  0.00    +0.000 HD
BRANCH  22  31
ATOM     26  C   UNL     1       6.136   5.834  16.251  0.00  0.00    +0.000 A 
ATOM     27  C   UNL     1       7.016   5.840  15.145  0.00  0.00    +0.000 A 
ATOM     28  C   UNL     1       7.055   4.783  14.236  0.00  0.00    +0.000 A 
ATOM     29  C   UNL     1       6.218   3.694  14.418  0.00  0.00    +0.000 A 
ATOM     30  C   UNL     1       5.360   3.659  15.519  0.00  0.00    +0.000 A 
ATOM     31  C   UNL     1       5.306   4.710  16.450  0.00  0.00    +0.000 A 
BRANCH  26  32
ATOM     32  C   UNL     1       6.132   7.056  17.149  0.00  0.00    +0.000 C 
BRANCH  32  34
ATOM     33  C   UNL     1       8.090   6.730  18.686  0.00  0.00    +0.000 C 
ATOM     34  C   UNL     1       7.535   7.551  17.530  0.00  0.00    +0.000 C 
ENDBRANCH  32  34
ENDBRANCH  26  32
ENDBRANCH  22  31
ENDBRANCH  20  23
ENDBRANCH   1  20
TORSDOF 7
ENDMDL
MODEL 7
REMARK VINA RESULT:      -7.8      3.509     10.400
REMARK  Name = 
REMARK  9 active torsions:
REMARK  status: ('A' for Active; 'I' for Inactive)
REMARK    1  A    between atoms: C_1  and  C_2
REMARK    2  A    between atoms: C_2  and  C_3
REMARK    3  A    between atoms: C_3  and  C_4
REMARK    4  A    between atoms: C_9  and  N_10
REMARK    5  A    between atoms: C_11  and  C_13
REMARK    6  A    between atoms: C_13  and  C_14
REMARK    7  A    between atoms: C_13  and  N_15
REMARK    8  A    between atoms: C_16  and  C_18
REMARK    9  A    between atoms: C_21  and  C_22
REMARK                            x       y       z     vdW  Elec       q    Type
REMARK                         _______ _______ _______ _____ _____    ______ ____
ROOT
ATOM      1  N   UNL     1      -1.023  10.362  17.746  0.00  0.00    +0.000 N 
ATOM      2  C   UNL     1       0.074  10.522  18.561  0.00  0.00    +0.000 C 
ATOM      3  O   UNL     1       0.337  11.582  19.116  0.00  0.00    +0.000 OA
ATOM      4  H   UNL     1      -1.187   9.475  17.289  0.00  0.00    +0.000 HD
ENDROOT
BRANCH   2   5
ATOM      5  C   UNL     1       0.931   9.323  18.766  0.00  0.00    +0.000 A 
ATOM      6  C   UNL     1       1.649   8.808  17.681  0.00  0.00    +0.000 A 
ATOM      7  C   UNL     1       2.493   7.705  17.857  0.00  0.00    +0.000 A 
ATOM      8  C   UNL     1       2.634   7.121  19.121  0.00  0.00    +0.000 A 
ATOM      9  C   UNL     1       1.920   7.641  20.205  0.00  0.00    +0.000 A 
ATOM     10  C   UNL     1       1.072   8.739  20.032  0.00  0.00    +0.000 A 
BRANCH   8  11
ATOM     11  C   UNL     1       3.529   5.977  19.308  0.00  0.00    +0.000 C 
ATOM     12  C   UNL     1       4.421   5.538  18.410  0.00  0.00    +0.000 C 
ATOM     13  S   UNL     1       4.761   6.172  16.841  0.00  0.00    +0.000 S 
ATOM     14  C   UNL     1       5.985   4.959  16.529  0.00  0.00    +0.000 C 
ATOM     15  S   UNL     1       6.896   4.809  15.155  0.00  0.00    +0.000 S 
ATOM     16  N   UNL     1       6.096   4.130  17.603  0.00  0.00    +0.000 N 
ATOM     17  C   UNL     1       5.288   4.360  18.679  0.00  0.00    +0.000 C 
ATOM     18  O   UNL     1       5.284   3.696  19.705  0.00  0.00    +0.000 OA
ATOM     19  H   UNL     1       6.751   3.364  17.617  0.00  0.00    +0.000 HD
ENDBRANCH   8  11
ENDBRANCH   2   5
BRANCH   1  20
ATOM     20  C   UNL     1      -1.941  11.458  17.432  0.00  0.00    +0.000 C 
ATOM     21  C   UNL     1      -2.559  11.234  16.052  0.00  0.00    +0.000 C 
BRANCH  20  23
ATOM     22  N   UNL     1      -2.782  12.414  19.547  0.00  0.00    +0.000 N 
ATOM     23  C   UNL     1      -3.075  11.578  18.480  0.00  0.00    +0.000 C 
ATOM     24  O   UNL     1      -4.137  10.981  18.325  0.00  0.00    +0.000 OA
ATOM     25  H   UNL     1      -1.819  12.732  19.608  0.00  0.00    +0.000 HD
BRANCH  22  31
ATOM     26  C   UNL     1      -3.359  12.702  21.925  0.00  0.00    +0.000 A 
ATOM     27  C   UNL     1      -4.257  13.213  22.890  0.00  0.00    +0.000 A 
ATOM     28  C   UNL     1      -5.469  13.798  22.523  0.00  0.00    +0.000 A 
ATOM     29  C   UNL     1      -5.805  13.889  21.182  0.00  0.00    +0.000 A 
ATOM     30  C   UNL     1      -4.919  13.413  20.214  0.00  0.00    +0.000 A 
ATOM     31  C   UNL     1      -3.691  12.825  20.558  0.00  0.00    +0.000 A 
BRANCH  26  32
ATOM     32  C   UNL     1      -2.094  12.036  22.429  0.00  0.00    +0.000 C 
BRANCH  32  34
ATOM     33  C   UNL     1      -0.292  13.722  21.966  0.00  0.00    +0.000 C 
ATOM     34  C   UNL     1      -1.085  13.011  23.054  0.00  0.00    +0.000 C 
ENDBRANCH  32  34
ENDBRANCH  26  32
ENDBRANCH  22  31
ENDBRANCH  20  23
ENDBRANCH   1  20
TORSDOF 7
ENDMDL
MODEL 8
REMARK VINA RESULT:      -7.8      3.217     10.270
REMARK  Name = 
REMARK  9 active torsions:
REMARK  status: ('A' for Active; 'I' for Inactive)
REMARK    1  A    between atoms: C_1  and  C_2
REMARK    2  A    between atoms: C_2  and  C_3
REMARK    3  A    between atoms: C_3  and  C_4
REMARK    4  A    between atoms: C_9  and  N_10
REMARK    5  A    between atoms: C_11  and  C_13
REMARK    6  A    between atoms: C_13  and  C_14
REMARK    7  A    between atoms: C_13  and  N_15
REMARK    8  A    between atoms: C_16  and  C_18
REMARK    9  A    between atoms: C_21  and  C_22
REMARK                            x       y       z     vdW  Elec       q    Type
REMARK                         _______ _______ _______ _____ _____    ______ ____
ROOT
ATOM      1  N   UNL     1       0.964  11.750  19.597  0.00  0.00    +0.000 N 
ATOM      2  C   UNL     1       1.022  10.708  20.493  0.00  0.00    +0.000 C 
ATOM      3  O   UNL     1       0.820  10.855  21.693  0.00  0.00    +0.000 OA
ATOM      4  H   UNL     1       1.163  11.585  18.618  0.00  0.00    +0.000 HD
ENDROOT
BRANCH   2   5
ATOM      5  C   UNL     1       1.320   9.362  19.932  0.00  0.00    +0.000 A 
ATOM      6  C   UNL     1       1.524   9.231  18.553  0.00  0.00    +0.000 A 
ATOM      7  C   UNL     1       1.845   7.984  18.006  0.00  0.00    +0.000 A 
ATOM      8  C   UNL     1       1.976   6.864  18.835  0.00  0.00    +0.000 A 
ATOM      9  C   UNL     1       1.779   6.998  20.213  0.00  0.00    +0.000 A 
ATOM     10  C   UNL     1       1.453   8.242  20.763  0.00  0.00    +0.000 A 
BRANCH   8  11
ATOM     11  C   UNL     1       2.327   5.563  18.264  0.00  0.00    +0.000 C 
ATOM     12  C   UNL     1       3.573   5.137  18.016  0.00  0.00    +0.000 C 
ATOM     13  S   UNL     1       5.062   5.965  18.293  0.00  0.00    +0.000 S 
ATOM     14  C   UNL     1       6.010   4.634  17.666  0.00  0.00    +0.000 C 
ATOM     15  S   UNL     1       7.661   4.568  17.550  0.00  0.00    +0.000 S 
ATOM     16  N   UNL     1       5.186   3.623  17.277  0.00  0.00    +0.000 N 
ATOM     17  C   UNL     1       3.841   3.798  17.426  0.00  0.00    +0.000 C 
ATOM     18  O   UNL     1       2.990   2.976  17.119  0.00  0.00    +0.000 OA
ATOM     19  H   UNL     1       5.544   2.765  16.888  0.00  0.00    +0.000 HD
ENDBRANCH   8  11
ENDBRANCH   2   5
BRANCH   1  20
ATOM     20  C   UNL     1       0.707  13.132  20.006  0.00  0.00    +0.000 C 
ATOM     21  C   UNL     1       1.479  14.090  19.099  0.00  0.00    +0.000 C 
BRANCH  20  23
ATOM     22  N   UNL     1      -1.646  12.394  20.107  0.00  0.00    +0.000 N 
ATOM     23  C   UNL     1      -0.801  13.480  19.941  0.00  0.00    +0.000 C 
ATOM     24  O   UNL     1      -1.168  14.640  19.776  0.00  0.00    +0.000 OA
ATOM     25  H   UNL     1      -1.201  11.481  20.101  0.00  0.00    +0.000 HD
BRANCH  22  31
ATOM     26  C   UNL     1      -3.910  12.044  19.200  0.00  0.00    +0.000 A 
ATOM     27  C   UNL     1      -5.306  12.029  19.425  0.00  0.00    +0.000 A 
ATOM     28  C   UNL     1      -5.854  12.440  20.640  0.00  0.00    +0.000 A 
ATOM     29  C   UNL     1      -5.017  12.867  21.657  0.00  0.00    +0.000 A 
ATOM     30  C   UNL     1      -3.635  12.865  21.462  0.00  0.00    +0.000 A 
ATOM     31  C   UNL     1      -3.058  12.451  20.249  0.00  0.00    +0.000 A 
BRANCH  26  32
ATOM     32  C   UNL     1      -3.418  11.630  17.826  0.00  0.00    +0.000 C 
BRANCH  32  34
ATOM     33  C   UNL     1      -2.457   9.840  16.350  0.00  0.00    +0.000 C 
ATOM     34  C   UNL     1      -3.045  10.144  17.722  0.00  0.00    +0.000 C 
ENDBRANCH  32  34
ENDBRANCH  26  32
ENDBRANCH  22  31
ENDBRANCH  20  23
ENDBRANCH   1  20
TORSDOF 7
ENDMDL
MODEL 9
REMARK VINA RESULT:      -7.8      1.508      1.814
REMARK  Name = 
REMARK  9 active torsions:
REMARK  status: ('A' for Active; 'I' for Inactive)
REMARK    1  A    between atoms: C_1  and  C_2
REMARK    2  A    between atoms: C_2  and  C_3
REMARK    3  A    between atoms: C_3  and  C_4
REMARK    4  A    between atoms: C_9  and  N_10
REMARK    5  A    between atoms: C_11  and  C_13
REMARK    6  A    between atoms: C_13  and  C_14
REMARK    7  A    between atoms: C_13  and  N_15
REMARK    8  A    between atoms: C_16  and  C_18
REMARK    9  A    between atoms: C_21  and  C_22
REMARK                            x       y       z     vdW  Elec       q    Type
REMARK                         _______ _______ _______ _____ _____    ______ ____
ROOT
ATOM      1  N   UNL     1       2.237   5.701  18.755  0.00  0.00    +0.000 N 
ATOM      2  C   UNL     1       2.023   6.445  19.892  0.00  0.00    +0.000 C 
ATOM      3  O   UNL     1       2.124   5.974  21.019  0.00  0.00    +0.000 OA
ATOM      4  H   UNL     1       2.119   6.126  17.844  0.00  0.00    +0.000 HD
ENDROOT
BRANCH   2   5
ATOM      5  C   UNL     1       1.683   7.880  19.696  0.00  0.00    +0.000 A 
ATOM      6  C   UNL     1       1.235   8.628  20.791  0.00  0.00    +0.000 A 
ATOM      7  C   UNL     1       0.946   9.989  20.641  0.00  0.00    +0.000 A 
ATOM      8  C   UNL     1       1.117  10.613  19.400  0.00  0.00    +0.000 A 
ATOM      9  C   UNL     1       1.572   9.865  18.308  0.00  0.00    +0.000 A 
ATOM     10  C   UNL     1       1.856   8.504  18.453  0.00  0.00    +0.000 A 
BRANCH   8  11
ATOM     11  C   UNL     1       0.830  12.040  19.247  0.00  0.00    +0.000 C 
ATOM     12  C   UNL     1      -0.298  12.649  19.637  0.00  0.00    +0.000 C 
ATOM     13  S   UNL     1      -1.678  11.953  20.405  0.00  0.00    +0.000 S 
ATOM     14  C   UNL     1      -2.515  13.489  20.469  0.00  0.00    +0.000 C 
ATOM     15  S   UNL     1      -4.022  13.766  21.097  0.00  0.00    +0.000 S 
ATOM     16  N   UNL     1      -1.737  14.462  19.919  0.00  0.00    +0.000 N 
ATOM     17  C   UNL     1      -0.511  14.107  19.437  0.00  0.00    +0.000 C 
ATOM     18  O   UNL     1       0.287  14.875  18.919  0.00  0.00    +0.000 OA
ATOM     19  H   UNL     1      -2.045  15.420  19.863  0.00  0.00    +0.000 HD
ENDBRANCH   8  11
ENDBRANCH   2   5
BRANCH   1  20
ATOM     20  C   UNL     1       2.554   4.272  18.792  0.00  0.00    +0.000 C 
ATOM     21  C   UNL     1       1.320   3.461  18.398  0.00  0.00    +0.000 C 
BRANCH  20  23
ATOM     22  N   UNL     1       3.982   4.876  16.871  0.00  0.00    +0.000 N 
ATOM     23  C   UNL     1       3.719   3.915  17.835  0.00  0.00    +0.000 C 
ATOM     24  O   UNL     1       4.342   2.866  17.972  0.00  0.00    +0.000 OA
ATOM     25  H   UNL     1       3.302   5.627  16.797  0.00  0.00    +0.000 HD
BRANCH  22  31
ATOM     26  C   UNL     1       6.183   5.742  16.181  0.00  0.00    +0.000 A 
ATOM     27  C   UNL     1       7.297   5.638  15.317  0.00  0.00    +0.000 A 
ATOM     28  C   UNL     1       7.318   4.734  14.256  0.00  0.00    +0.000 A 
ATOM     29  C   UNL     1       6.227   3.909  14.040  0.00  0.00    +0.000 A 
ATOM     30  C   UNL     1       5.127   3.979  14.898  0.00  0.00    +0.000 A 
ATOM     31  C   UNL     1       5.085   4.879  15.976  0.00  0.00    +0.000 A 
BRANCH  26  32
ATOM     32  C   UNL     1       6.237   6.795  17.270  0.00  0.00    +0.000 C 
BRANCH  32  34
ATOM     33  C   UNL     1       7.972   8.531  17.802  0.00  0.00    +0.000 C 
ATOM     34  C   UNL     1       7.647   7.044  17.824  0.00  0.00    +0.000 C 
ENDBRANCH  32  34
ENDBRANCH  26  32
ENDBRANCH  22  31
ENDBRANCH  20  23
ENDBRANCH   1  20
TORSDOF 7
ENDMDL
