MODEL 1
REMARK VINA RESULT:      -8.4      0.000      0.000
REMARK  Name = 
REMARK  1 active torsions:
REMARK  status: ('A' for Active; 'I' for Inactive)
REMARK    1  A    between atoms: C_1  and  N_2
REMARK                            x       y       z     vdW  Elec       q    Type
REMARK                         _______ _______ _______ _____ _____    ______ ____
ROOT
ATOM      1  C   UNL     1       5.439   5.071  15.987  0.00  0.00    +0.000 C 
ATOM      2  N   UNL     1       5.111   5.393  17.378  0.00  0.00    +0.000 NA
ATOM      3  C   UNL     1       5.427   4.190  18.193  0.00  0.00    +0.000 C 
ATOM      4  C   UNL     1       4.232   3.231  18.257  0.00  0.00    +0.000 C 
ATOM      5  C   UNL     1       3.257   3.954  19.139  0.00  0.00    +0.000 A 
ATOM      6  C   UNL     1       2.742   3.347  20.276  0.00  0.00    +0.000 A 
ATOM      7  C   UNL     1       2.085   4.136  21.201  0.00  0.00    +0.000 A 
ATOM      8  C   UNL     1       1.894   5.499  20.956  0.00  0.00    +0.000 A 
ATOM      9  C   UNL     1       2.331   6.133  19.771  0.00  0.00    +0.000 A 
ATOM     10  C   UNL     1       3.058   5.335  18.870  0.00  0.00    +0.000 A 
ATOM     11  C   UNL     1       3.681   5.859  17.572  0.00  0.00    +0.000 C 
ATOM     12  C   UNL     1       3.576   7.399  17.420  0.00  0.00    +0.000 C 
ATOM     13  C   UNL     1       2.530   8.117  18.256  0.00  0.00    +0.000 A 
ATOM     14  C   UNL     1       2.144   9.426  17.865  0.00  0.00    +0.000 A 
ATOM     15  C   UNL     1       1.281  10.204  18.644  0.00  0.00    +0.000 A 
ATOM     16  C   UNL     1       0.864   9.669  19.831  0.00  0.00    +0.000 A 
ATOM     17  C   UNL     1       1.222   8.399  20.239  0.00  0.00    +0.000 A 
ATOM     18  C   UNL     1       2.028   7.549  19.454  0.00  0.00    +0.000 A 
ATOM     19  O   UNL     1       0.674   8.125  21.458  0.00  0.00    +0.000 OA
ATOM     20  C   UNL     1       0.091   9.388  21.823  0.00  0.00    +0.000 C 
ATOM     21  O   UNL     1       0.072  10.323  20.734  0.00  0.00    +0.000 OA
ENDROOT
TORSDOF 0
ENDMDL
MODEL 2
REMARK VINA RESULT:      -7.7      1.666      3.427
REMARK  Name = 
REMARK  1 active torsions:
REMARK  status: ('A' for Active; 'I' for Inactive)
REMARK    1  A    between atoms: C_1  and  N_2
REMARK                            x       y       z     vdW  Elec       q    Type
REMARK                         _______ _______ _______ _____ _____    ______ ____
ROOT
ATOM      1  C   UNL     1       2.372   2.548  21.339  0.00  0.00    +0.000 C 
ATOM      2  N   UNL     1       2.194   3.394  20.156  0.00  0.00    +0.000 NA
ATOM      3  C   UNL     1       2.880   2.716  19.025  0.00  0.00    +0.000 C 
ATOM      4  C   UNL     1       4.357   3.121  18.945  0.00  0.00    +0.000 C 
ATOM      5  C   UNL     1       4.299   4.542  18.466  0.00  0.00    +0.000 A 
ATOM      6  C   UNL     1       4.990   4.936  17.329  0.00  0.00    +0.000 A 
ATOM      7  C   UNL     1       4.683   6.161  16.766  0.00  0.00    +0.000 A 
ATOM      8  C   UNL     1       3.744   7.000  17.373  0.00  0.00    +0.000 A 
ATOM      9  C   UNL     1       3.084   6.667  18.576  0.00  0.00    +0.000 A 
ATOM     10  C   UNL     1       3.353   5.390  19.101  0.00  0.00    +0.000 A 
ATOM     11  C   UNL     1       2.676   4.818  20.351  0.00  0.00    +0.000 C 
ATOM     12  C   UNL     1       1.537   5.718  20.897  0.00  0.00    +0.000 C 
ATOM     13  C   UNL     1       1.531   7.177  20.473  0.00  0.00    +0.000 A 
ATOM     14  C   UNL     1       0.765   8.093  21.242  0.00  0.00    +0.000 A 
ATOM     15  C   UNL     1       0.605   9.428  20.853  0.00  0.00    +0.000 A 
ATOM     16  C   UNL     1       1.176   9.802  19.668  0.00  0.00    +0.000 A 
ATOM     17  C   UNL     1       1.925   8.934  18.899  0.00  0.00    +0.000 A 
ATOM     18  C   UNL     1       2.177   7.601  19.286  0.00  0.00    +0.000 A 
ATOM     19  O   UNL     1       2.366   9.565  17.772  0.00  0.00    +0.000 OA
ATOM     20  C   UNL     1       1.690  10.832  17.846  0.00  0.00    +0.000 C 
ATOM     21  O   UNL     1       1.059  11.049  19.118  0.00  0.00    +0.000 OA
ENDROOT
TORSDOF 0
ENDMDL
MODEL 3
REMARK VINA RESULT:      -7.6      2.757      6.274
REMARK  Name = 
REMARK  1 active torsions:
REMARK  status: ('A' for Active; 'I' for Inactive)
REMARK    1  A    between atoms: C_1  and  N_2
REMARK                            x       y       z     vdW  Elec       q    Type
REMARK                         _______ _______ _______ _____ _____    ______ ____
ROOT
ATOM      1  C   UNL     1      -0.376  13.249  18.190  0.00  0.00    +0.000 C 
ATOM      2  N   UNL     1      -0.696  11.954  18.795  0.00  0.00    +0.000 NA
ATOM      3  C   UNL     1      -1.679  12.207  19.880  0.00  0.00    +0.000 C 
ATOM      4  C   UNL     1      -0.978  12.520  21.207  0.00  0.00    +0.000 C 
ATOM      5  C   UNL     1      -0.403  11.194  21.613  0.00  0.00    +0.000 A 
ATOM      6  C   UNL     1      -0.694  10.646  22.854  0.00  0.00    +0.000 A 
ATOM      7  C   UNL     1      -0.387   9.316  23.072  0.00  0.00    +0.000 A 
ATOM      8  C   UNL     1       0.259   8.570  22.081  0.00  0.00    +0.000 A 
ATOM      9  C   UNL     1       0.645   9.120  20.838  0.00  0.00    +0.000 A 
ATOM     10  C   UNL     1       0.265  10.454  20.603  0.00  0.00    +0.000 A 
ATOM     11  C   UNL     1       0.523  11.198  19.288  0.00  0.00    +0.000 C 
ATOM     12  C   UNL     1       1.099  10.288  18.172  0.00  0.00    +0.000 C 
ATOM     13  C   UNL     1       1.753   8.984  18.597  0.00  0.00    +0.000 A 
ATOM     14  C   UNL     1       2.617   8.338  17.674  0.00  0.00    +0.000 A 
ATOM     15  C   UNL     1       3.164   7.076  17.935  0.00  0.00    +0.000 A 
ATOM     16  C   UNL     1       2.787   6.466  19.099  0.00  0.00    +0.000 A 
ATOM     17  C   UNL     1       1.948   7.069  20.015  0.00  0.00    +0.000 A 
ATOM     18  C   UNL     1       1.433   8.368  19.832  0.00  0.00    +0.000 A 
ATOM     19  O   UNL     1       1.735   6.236  21.075  0.00  0.00    +0.000 OA
ATOM     20  C   UNL     1       2.381   5.025  20.649  0.00  0.00    +0.000 C 
ATOM     21  O   UNL     1       3.181   5.209  19.471  0.00  0.00    +0.000 OA
ENDROOT
TORSDOF 0
ENDMDL
MODEL 4
REMARK VINA RESULT:      -6.9      3.949      5.135
REMARK  Name = 
REMARK  1 active torsions:
REMARK  status: ('A' for Active; 'I' for Inactive)
REMARK    1  A    between atoms: C_1  and  N_2
REMARK                            x       y       z     vdW  Elec       q    Type
REMARK                         _______ _______ _______ _____ _____    ______ ____
ROOT
ATOM      1  C   UNL     1       5.828   3.710  13.569  0.00  0.00    +0.000 C 
ATOM      2  N   UNL     1       5.456   4.484  14.757  0.00  0.00    +0.000 NA
ATOM      3  C   UNL     1       6.500   5.524  14.948  0.00  0.00    +0.000 C 
ATOM      4  C   UNL     1       7.661   4.999  15.801  0.00  0.00    +0.000 C 
ATOM      5  C   UNL     1       7.063   4.903  17.175  0.00  0.00    +0.000 A 
ATOM      6  C   UNL     1       7.657   5.545  18.252  0.00  0.00    +0.000 A 
ATOM      7  C   UNL     1       6.931   5.671  19.421  0.00  0.00    +0.000 A 
ATOM      8  C   UNL     1       5.656   5.106  19.524  0.00  0.00    +0.000 A 
ATOM      9  C   UNL     1       5.056   4.374  18.475  0.00  0.00    +0.000 A 
ATOM     10  C   UNL     1       5.775   4.312  17.269  0.00  0.00    +0.000 A 
ATOM     11  C   UNL     1       5.257   3.633  15.996  0.00  0.00    +0.000 C 
ATOM     12  C   UNL     1       3.784   3.159  16.111  0.00  0.00    +0.000 C 
ATOM     13  C   UNL     1       3.210   2.986  17.508  0.00  0.00    +0.000 A 
ATOM     14  C   UNL     1       2.038   2.198  17.655  0.00  0.00    +0.000 A 
ATOM     15  C   UNL     1       1.375   2.086  18.882  0.00  0.00    +0.000 A 
ATOM     16  C   UNL     1       1.875   2.814  19.926  0.00  0.00    +0.000 A 
ATOM     17  C   UNL     1       3.012   3.588  19.814  0.00  0.00    +0.000 A 
ATOM     18  C   UNL     1       3.757   3.674  18.619  0.00  0.00    +0.000 A 
ATOM     19  O   UNL     1       3.278   4.207  21.000  0.00  0.00    +0.000 OA
ATOM     20  C   UNL     1       2.124   3.870  21.788  0.00  0.00    +0.000 C 
ATOM     21  O   UNL     1       1.308   2.863  21.171  0.00  0.00    +0.000 OA
ENDROOT
TORSDOF 0
ENDMDL
MODEL 5
REMARK VINA RESULT:      -6.9      3.634      5.737
REMARK  Name = 
REMARK  1 active torsions:
REMARK  status: ('A' for Active; 'I' for Inactive)
REMARK    1  A    between atoms: C_1  and  N_2
REMARK                            x       y       z     vdW  Elec       q    Type
REMARK                         _______ _______ _______ _____ _____    ______ ____
ROOT
ATOM      1  C   UNL     1       1.390   6.686  21.190  0.00  0.00    +0.000 C 
ATOM      2  N   UNL     1       1.512   5.789  20.037  0.00  0.00    +0.000 NA
ATOM      3  C   UNL     1       0.830   4.518  20.397  0.00  0.00    +0.000 C 
ATOM      4  C   UNL     1       1.788   3.550  21.101  0.00  0.00    +0.000 C 
ATOM      5  C   UNL     1       2.704   3.109  19.997  0.00  0.00    +0.000 A 
ATOM      6  C   UNL     1       2.876   1.761  19.715  0.00  0.00    +0.000 A 
ATOM      7  C   UNL     1       3.489   1.413  18.527  0.00  0.00    +0.000 A 
ATOM      8  C   UNL     1       3.977   2.402  17.669  0.00  0.00    +0.000 A 
ATOM      9  C   UNL     1       3.894   3.782  17.964  0.00  0.00    +0.000 A 
ATOM     10  C   UNL     1       3.206   4.125  19.142  0.00  0.00    +0.000 A 
ATOM     11  C   UNL     1       2.944   5.567  19.591  0.00  0.00    +0.000 C 
ATOM     12  C   UNL     1       3.365   6.623  18.536  0.00  0.00    +0.000 C 
ATOM     13  C   UNL     1       4.357   6.192  17.468  0.00  0.00    +0.000 A 
ATOM     14  C   UNL     1       5.049   7.204  16.751  0.00  0.00    +0.000 A 
ATOM     15  C   UNL     1       5.886   6.900  15.671  0.00  0.00    +0.000 A 
ATOM     16  C   UNL     1       5.968   5.587  15.300  0.00  0.00    +0.000 A 
ATOM     17  C   UNL     1       5.307   4.582  15.978  0.00  0.00    +0.000 A 
ATOM     18  C   UNL     1       4.513   4.829  17.116  0.00  0.00    +0.000 A 
ATOM     19  O   UNL     1       5.560   3.376  15.391  0.00  0.00    +0.000 OA
ATOM     20  C   UNL     1       6.294   3.754  14.215  0.00  0.00    +0.000 C 
ATOM     21  O   UNL     1       6.691   5.134  14.230  0.00  0.00    +0.000 OA
ENDROOT
TORSDOF 0
ENDMDL
MODEL 6
REMARK VINA RESULT:      -6.8      9.344     10.355
REMARK  Name = 
REMARK  1 active torsions:
REMARK  status: ('A' for Active; 'I' for Inactive)
REMARK    1  A    between atoms: C_1  and  N_2
REMARK                            x       y       z     vdW  Elec       q    Type
REMARK                         _______ _______ _______ _____ _____    ______ ____
ROOT
ATOM      1  C   UNL     1      11.607  16.098  17.751  0.00  0.00    +0.000 C 
ATOM      2  N   UNL     1      11.608  14.898  18.593  0.00  0.00    +0.000 NA
ATOM      3  C   UNL     1      11.988  13.753  17.724  0.00  0.00    +0.000 C 
ATOM      4  C   UNL     1      10.759  13.133  17.048  0.00  0.00    +0.000 C 
ATOM      5  C   UNL     1      10.056  12.443  18.180  0.00  0.00    +0.000 A 
ATOM      6  C   UNL     1       9.744  11.093  18.104  0.00  0.00    +0.000 A 
ATOM      7  C   UNL     1       9.365  10.441  19.262  0.00  0.00    +0.000 A 
ATOM      8  C   UNL     1       9.240  11.148  20.461  0.00  0.00    +0.000 A 
ATOM      9  C   UNL     1       9.468  12.540  20.557  0.00  0.00    +0.000 A 
ATOM     10  C   UNL     1       9.920  13.178  19.388  0.00  0.00    +0.000 A 
ATOM     11  C   UNL     1      10.295  14.662  19.313  0.00  0.00    +0.000 C 
ATOM     12  C   UNL     1      10.289  15.366  20.695  0.00  0.00    +0.000 C 
ATOM     13  C   UNL     1       9.505  14.703  21.817  0.00  0.00    +0.000 A 
ATOM     14  C   UNL     1       9.156  15.492  22.945  0.00  0.00    +0.000 A 
ATOM     15  C   UNL     1       8.544  14.934  24.073  0.00  0.00    +0.000 A 
ATOM     16  C   UNL     1       8.344  13.582  24.065  0.00  0.00    +0.000 A 
ATOM     17  C   UNL     1       8.674  12.789  22.984  0.00  0.00    +0.000 A 
ATOM     18  C   UNL     1       9.223  13.315  21.797  0.00  0.00    +0.000 A 
ATOM     19  O   UNL     1       8.375  11.484  23.250  0.00  0.00    +0.000 OA
ATOM     20  C   UNL     1       7.989  11.534  24.634  0.00  0.00    +0.000 C 
ATOM     21  O   UNL     1       7.817  12.876  25.113  0.00  0.00    +0.000 OA
ENDROOT
TORSDOF 0
ENDMDL
MODEL 7
REMARK VINA RESULT:      -6.7      1.754      3.701
REMARK  Name = 
REMARK  1 active torsions:
REMARK  status: ('A' for Active; 'I' for Inactive)
REMARK    1  A    between atoms: C_1  and  N_2
REMARK                            x       y       z     vdW  Elec       q    Type
REMARK                         _______ _______ _______ _____ _____    ______ ____
ROOT
ATOM      1  C   UNL     1       1.826   3.617  21.468  0.00  0.00    +0.000 C 
ATOM      2  N   UNL     1       1.523   4.550  20.378  0.00  0.00    +0.000 NA
ATOM      3  C   UNL     1       2.109   3.978  19.137  0.00  0.00    +0.000 C 
ATOM      4  C   UNL     1       3.565   4.421  18.952  0.00  0.00    +0.000 C 
ATOM      5  C   UNL     1       3.441   5.874  18.596  0.00  0.00    +0.000 A 
ATOM      6  C   UNL     1       4.015   6.371  17.435  0.00  0.00    +0.000 A 
ATOM      7  C   UNL     1       3.639   7.629  17.003  0.00  0.00    +0.000 A 
ATOM      8  C   UNL     1       2.750   8.397  17.761  0.00  0.00    +0.000 A 
ATOM      9  C   UNL     1       2.211   7.956  18.990  0.00  0.00    +0.000 A 
ATOM     10  C   UNL     1       2.548   6.648  19.383  0.00  0.00    +0.000 A 
ATOM     11  C   UNL     1       2.002   5.964  20.641  0.00  0.00    +0.000 C 
ATOM     12  C   UNL     1       0.906   6.793  21.362  0.00  0.00    +0.000 C 
ATOM     13  C   UNL     1       0.838   8.281  21.059  0.00  0.00    +0.000 A 
ATOM     14  C   UNL     1       0.136   9.117  21.967  0.00  0.00    +0.000 A 
ATOM     15  C   UNL     1      -0.080  10.474  21.703  0.00  0.00    +0.000 A 
ATOM     16  C   UNL     1       0.370  10.952  20.504  0.00  0.00    +0.000 A 
ATOM     17  C   UNL     1       1.056  10.164  19.601  0.00  0.00    +0.000 A 
ATOM     18  C   UNL     1       1.363   8.811  19.854  0.00  0.00    +0.000 A 
ATOM     19  O   UNL     1       1.378  10.892  18.492  0.00  0.00    +0.000 OA
ATOM     20  C   UNL     1       0.694  12.133  18.731  0.00  0.00    +0.000 C 
ATOM     21  O   UNL     1       0.184  12.236  20.069  0.00  0.00    +0.000 OA
ENDROOT
TORSDOF 0
ENDMDL
MODEL 8
REMARK VINA RESULT:      -6.5      3.096      5.557
REMARK  Name = 
REMARK  1 active torsions:
REMARK  status: ('A' for Active; 'I' for Inactive)
REMARK    1  A    between atoms: C_1  and  N_2
REMARK                            x       y       z     vdW  Elec       q    Type
REMARK                         _______ _______ _______ _____ _____    ______ ____
ROOT
ATOM      1  C   UNL     1       1.185   1.121  18.767  0.00  0.00    +0.000 C 
ATOM      2  N   UNL     1       2.110   2.121  19.306  0.00  0.00    +0.000 NA
ATOM      3  C   UNL     1       1.469   2.708  20.512  0.00  0.00    +0.000 C 
ATOM      4  C   UNL     1       0.579   3.902  20.145  0.00  0.00    +0.000 C 
ATOM      5  C   UNL     1       1.569   4.967  19.771  0.00  0.00    +0.000 A 
ATOM      6  C   UNL     1       1.546   6.206  20.395  0.00  0.00    +0.000 A 
ATOM      7  C   UNL     1       2.635   7.042  20.233  0.00  0.00    +0.000 A 
ATOM      8  C   UNL     1       3.698   6.663  19.408  0.00  0.00    +0.000 A 
ATOM      9  C   UNL     1       3.716   5.445  18.692  0.00  0.00    +0.000 A 
ATOM     10  C   UNL     1       2.635   4.574  18.919  0.00  0.00    +0.000 A 
ATOM     11  C   UNL     1       2.514   3.179  18.297  0.00  0.00    +0.000 C 
ATOM     12  C   UNL     1       3.783   2.744  17.518  0.00  0.00    +0.000 C 
ATOM     13  C   UNL     1       4.741   3.836  17.071  0.00  0.00    +0.000 A 
ATOM     14  C   UNL     1       5.674   3.528  16.045  0.00  0.00    +0.000 A 
ATOM     15  C   UNL     1       6.670   4.432  15.659  0.00  0.00    +0.000 A 
ATOM     16  C   UNL     1       6.740   5.610  16.351  0.00  0.00    +0.000 A 
ATOM     17  C   UNL     1       5.848   5.937  17.352  0.00  0.00    +0.000 A 
ATOM     18  C   UNL     1       4.783   5.091  17.726  0.00  0.00    +0.000 A 
ATOM     19  O   UNL     1       6.155   7.160  17.873  0.00  0.00    +0.000 OA
ATOM     20  C   UNL     1       7.396   7.471  17.216  0.00  0.00    +0.000 C 
ATOM     21  O   UNL     1       7.692   6.569  16.139  0.00  0.00    +0.000 OA
ENDROOT
TORSDOF 0
ENDMDL
MODEL 9
REMARK VINA RESULT:      -6.5      6.267      8.885
REMARK  Name = 
REMARK  1 active torsions:
REMARK  status: ('A' for Active; 'I' for Inactive)
REMARK    1  A    between atoms: C_1  and  N_2
REMARK                            x       y       z     vdW  Elec       q    Type
REMARK                         _______ _______ _______ _____ _____    ______ ____
ROOT
ATOM      1  C   UNL     1      -3.818  13.701  23.433  0.00  0.00    +0.000 C 
ATOM      2  N   UNL     1      -3.331  12.563  22.649  0.00  0.00    +0.000 NA
ATOM      3  C   UNL     1      -2.099  12.066  23.315  0.00  0.00    +0.000 C 
ATOM      4  C   UNL     1      -0.853  12.800  22.803  0.00  0.00    +0.000 C 
ATOM      5  C   UNL     1      -0.688  12.267  21.410  0.00  0.00    +0.000 A 
ATOM      6  C   UNL     1       0.508  11.689  21.008  0.00  0.00    +0.000 A 
ATOM      7  C   UNL     1       0.523  10.963  19.833  0.00  0.00    +0.000 A 
ATOM      8  C   UNL     1      -0.628  10.874  19.044  0.00  0.00    +0.000 A 
ATOM      9  C   UNL     1      -1.839  11.519  19.380  0.00  0.00    +0.000 A 
ATOM     10  C   UNL     1      -1.861  12.197  20.612  0.00  0.00    +0.000 A 
ATOM     11  C   UNL     1      -3.102  12.890  21.186  0.00  0.00    +0.000 C 
ATOM     12  C   UNL     1      -4.386  12.634  20.354  0.00  0.00    +0.000 C 
ATOM     13  C   UNL     1      -4.211  12.173  18.917  0.00  0.00    +0.000 A 
ATOM     14  C   UNL     1      -5.314  12.309  18.032  0.00  0.00    +0.000 A 
ATOM     15  C   UNL     1      -5.280  11.800  16.729  0.00  0.00    +0.000 A 
ATOM     16  C   UNL     1      -4.155  11.116  16.359  0.00  0.00    +0.000 A 
ATOM     17  C   UNL     1      -3.068  10.968  17.196  0.00  0.00    +0.000 A 
ATOM     18  C   UNL     1      -3.025  11.526  18.490  0.00  0.00    +0.000 A 
ATOM     19  O   UNL     1      -2.094  10.240  16.577  0.00  0.00    +0.000 OA
ATOM     20  C   UNL     1      -2.744   9.828  15.363  0.00  0.00    +0.000 C 
ATOM     21  O   UNL     1      -3.991  10.505  15.145  0.00  0.00    +0.000 OA
ENDROOT
TORSDOF 0
ENDMDL
