MODEL 1
REMARK VINA RESULT:      -5.3      0.000      0.000
REMARK  Name = 
REMARK  16 active torsions:
REMARK  status: ('A' for Active; 'I' for Inactive)
REMARK    1  A    between atoms: C_1  and  C_2
REMARK    2  A    between atoms: C_2  and  C_3
REMARK    3  A    between atoms: C_2  and  C_4
REMARK    4  A    between atoms: C_2  and  C_6
REMARK    5  A    between atoms: C_4  and  O_5
REMARK    6  A    between atoms: C_6  and  C_7
REMARK    7  A    between atoms: C_7  and  C_8
REMARK    8  A    between atoms: C_8  and  S_9
REMARK    9  A    between atoms: S_9  and  C_11
REMARK   10  A    between atoms: C_11  and  C_12
REMARK   11  A    between atoms: C_12  and  C_13
REMARK   12  A    between atoms: C_13  and  C_14
REMARK   13  A    between atoms: C_14  and  C_15
REMARK   14  A    between atoms: C_14  and  C_16
REMARK   15  A    between atoms: C_14  and  C_17
REMARK   16  A    between atoms: C_17  and  O_18
REMARK                            x       y       z     vdW  Elec       q    Type
REMARK                         _______ _______ _______ _____ _____    ______ ____
ROOT
ATOM      1  S   UNL     1       7.137   5.222  19.163  0.00  0.00    +0.000 S 
ATOM      2  O   UNL     1       7.747   5.275  20.611  0.00  0.00    +0.000 OA
ENDROOT
BRANCH   1   3
ATOM      3  C   UNL     1       7.594   6.772  18.318  0.00  0.00    +0.000 C 
BRANCH   3   4
ATOM      4  C   UNL     1       7.177   6.606  16.858  0.00  0.00    +0.000 C 
BRANCH   4   5
ATOM      5  C   UNL     1       7.390   5.204  16.292  0.00  0.00    +0.000 C 
BRANCH   5   7
ATOM      6  C   UNL     1       5.225   5.853  15.190  0.00  0.00    +0.000 C 
ATOM      7  C   UNL     1       6.366   4.817  15.181  0.00  0.00    +0.000 C 
ATOM      8  C   UNL     1       5.750   3.432  15.468  0.00  0.00    +0.000 C 
BRANCH   7   9
ATOM      9  C   UNL     1       7.042   4.819  13.787  0.00  0.00    +0.000 C 
BRANCH   9  10
ATOM     10  O   UNL     1       8.188   5.660  13.756  0.00  0.00    +0.000 OA
ATOM     11  H   UNL     1       8.481   5.715  12.830  0.00  0.00    +0.000 HD
ENDBRANCH   9  10
ENDBRANCH   7   9
ENDBRANCH   5   7
ENDBRANCH   4   5
ENDBRANCH   3   4
ENDBRANCH   1   3
BRANCH   1  12
ATOM     12  C   UNL     1       5.344   5.508  19.317  0.00  0.00    +0.000 C 
BRANCH  12  13
ATOM     13  C   UNL     1       4.661   4.328  18.630  0.00  0.00    +0.000 C 
BRANCH  13  14
ATOM     14  C   UNL     1       3.148   4.271  18.832  0.00  0.00    +0.000 C 
BRANCH  14  15
ATOM     15  C   UNL     1       2.633   2.883  19.325  0.00  0.00    +0.000 C 
ATOM     16  C   UNL     1       3.280   1.738  18.522  0.00  0.00    +0.000 C 
ATOM     17  C   UNL     1       2.962   2.678  20.819  0.00  0.00    +0.000 C 
BRANCH  15  18
ATOM     18  C   UNL     1       1.103   2.800  19.118  0.00  0.00    +0.000 C 
BRANCH  18  19
ATOM     19  O   UNL     1       0.383   3.181  20.282  0.00  0.00    +0.000 OA
ATOM     20  H   UNL     1       0.545   2.509  20.963  0.00  0.00    +0.000 HD
ENDBRANCH  18  19
ENDBRANCH  15  18
ENDBRANCH  14  15
ENDBRANCH  13  14
ENDBRANCH  12  13
ENDBRANCH   1  12
TORSDOF 12
ENDMDL
MODEL 2
REMARK VINA RESULT:      -5.3      2.459      6.464
REMARK  Name = 
REMARK  16 active torsions:
REMARK  status: ('A' for Active; 'I' for Inactive)
REMARK    1  A    between atoms: C_1  and  C_2
REMARK    2  A    between atoms: C_2  and  C_3
REMARK    3  A    between atoms: C_2  and  C_4
REMARK    4  A    between atoms: C_2  and  C_6
REMARK    5  A    between atoms: C_4  and  O_5
REMARK    6  A    between atoms: C_6  and  C_7
REMARK    7  A    between atoms: C_7  and  C_8
REMARK    8  A    between atoms: C_8  and  S_9
REMARK    9  A    between atoms: S_9  and  C_11
REMARK   10  A    between atoms: C_11  and  C_12
REMARK   11  A    between atoms: C_12  and  C_13
REMARK   12  A    between atoms: C_13  and  C_14
REMARK   13  A    between atoms: C_14  and  C_15
REMARK   14  A    between atoms: C_14  and  C_16
REMARK   15  A    between atoms: C_14  and  C_17
REMARK   16  A    between atoms: C_17  and  O_18
REMARK                            x       y       z     vdW  Elec       q    Type
REMARK                         _______ _______ _______ _____ _____    ______ ____
ROOT
ATOM      1  S   UNL     1       7.060   5.765  16.571  0.00  0.00    +0.000 S 
ATOM      2  O   UNL     1       7.964   4.494  16.780  0.00  0.00    +0.000 OA
ENDROOT
BRANCH   1   3
ATOM      3  C   UNL     1       5.957   5.897  18.016  0.00  0.00    +0.000 C 
BRANCH   3   4
ATOM      4  C   UNL     1       4.931   4.774  17.881  0.00  0.00    +0.000 C 
BRANCH   4   5
ATOM      5  C   UNL     1       3.501   5.174  18.235  0.00  0.00    +0.000 C 
BRANCH   5   7
ATOM      6  C   UNL     1       1.302   4.121  17.623  0.00  0.00    +0.000 C 
ATOM      7  C   UNL     1       2.559   3.960  18.500  0.00  0.00    +0.000 C 
ATOM      8  C   UNL     1       2.107   3.933  19.975  0.00  0.00    +0.000 C 
BRANCH   7   9
ATOM      9  C   UNL     1       3.264   2.629  18.137  0.00  0.00    +0.000 C 
BRANCH   9  10
ATOM     10  O   UNL     1       2.343   1.549  18.051  0.00  0.00    +0.000 OA
ATOM     11  H   UNL     1       2.855   0.725  18.126  0.00  0.00    +0.000 HD
ENDBRANCH   9  10
ENDBRANCH   7   9
ENDBRANCH   5   7
ENDBRANCH   4   5
ENDBRANCH   3   4
ENDBRANCH   1   3
BRANCH   1  12
ATOM     12  C   UNL     1       5.814   5.344  15.310  0.00  0.00    +0.000 C 
BRANCH  12  13
ATOM     13  C   UNL     1       6.535   4.507  14.256  0.00  0.00    +0.000 C 
BRANCH  13  14
ATOM     14  C   UNL     1       5.697   3.372  13.671  0.00  0.00    +0.000 C 
BRANCH  14  15
ATOM     15  C   UNL     1       5.783   3.266  12.116  0.00  0.00    +0.000 C 
ATOM     16  C   UNL     1       4.472   3.740  11.458  0.00  0.00    +0.000 C 
ATOM     17  C   UNL     1       6.942   4.129  11.575  0.00  0.00    +0.000 C 
BRANCH  15  18
ATOM     18  C   UNL     1       6.006   1.790  11.715  0.00  0.00    +0.000 C 
BRANCH  18  19
ATOM     19  O   UNL     1       7.330   1.555  11.253  0.00  0.00    +0.000 OA
ATOM     20  H   UNL     1       7.402   0.615  11.027  0.00  0.00    +0.000 HD
ENDBRANCH  18  19
ENDBRANCH  15  18
ENDBRANCH  14  15
ENDBRANCH  13  14
ENDBRANCH  12  13
ENDBRANCH   1  12
TORSDOF 12
ENDMDL
MODEL 3
REMARK VINA RESULT:      -5.2      2.496      3.763
REMARK  Name = 
REMARK  16 active torsions:
REMARK  status: ('A' for Active; 'I' for Inactive)
REMARK    1  A    between atoms: C_1  and  C_2
REMARK    2  A    between atoms: C_2  and  C_3
REMARK    3  A    between atoms: C_2  and  C_4
REMARK    4  A    between atoms: C_2  and  C_6
REMARK    5  A    between atoms: C_4  and  O_5
REMARK    6  A    between atoms: C_6  and  C_7
REMARK    7  A    between atoms: C_7  and  C_8
REMARK    8  A    between atoms: C_8  and  S_9
REMARK    9  A    between atoms: S_9  and  C_11
REMARK   10  A    between atoms: C_11  and  C_12
REMARK   11  A    between atoms: C_12  and  C_13
REMARK   12  A    between atoms: C_13  and  C_14
REMARK   13  A    between atoms: C_14  and  C_15
REMARK   14  A    between atoms: C_14  and  C_16
REMARK   15  A    between atoms: C_14  and  C_17
REMARK   16  A    between atoms: C_17  and  O_18
REMARK                            x       y       z     vdW  Elec       q    Type
REMARK                         _______ _______ _______ _____ _____    ______ ____
ROOT
ATOM      1  S   UNL     1       2.993   7.215  18.353  0.00  0.00    +0.000 S 
ATOM      2  O   UNL     1       2.002   8.117  17.529  0.00  0.00    +0.000 OA
ENDROOT
BRANCH   1   3
ATOM      3  C   UNL     1       2.953   5.546  17.622  0.00  0.00    +0.000 C 
BRANCH   3   4
ATOM      4  C   UNL     1       4.360   5.272  17.095  0.00  0.00    +0.000 C 
BRANCH   4   5
ATOM      5  C   UNL     1       5.364   6.395  17.350  0.00  0.00    +0.000 C 
BRANCH   5   7
ATOM      6  C   UNL     1       7.733   7.050  17.878  0.00  0.00    +0.000 C 
ATOM      7  C   UNL     1       6.707   5.904  17.971  0.00  0.00    +0.000 C 
ATOM      8  C   UNL     1       7.266   4.703  17.180  0.00  0.00    +0.000 C 
BRANCH   7   9
ATOM      9  C   UNL     1       6.514   5.516  19.459  0.00  0.00    +0.000 C 
BRANCH   9  10
ATOM     10  O   UNL     1       7.744   5.530  20.173  0.00  0.00    +0.000 OA
ATOM     11  H   UNL     1       7.929   4.616  20.450  0.00  0.00    +0.000 HD
ENDBRANCH   9  10
ENDBRANCH   7   9
ENDBRANCH   5   7
ENDBRANCH   4   5
ENDBRANCH   3   4
ENDBRANCH   1   3
BRANCH   1  12
ATOM     12  C   UNL     1       2.190   6.839  19.945  0.00  0.00    +0.000 C 
BRANCH  12  13
ATOM     13  C   UNL     1       2.594   5.411  20.303  0.00  0.00    +0.000 C 
BRANCH  13  14
ATOM     14  C   UNL     1       1.474   4.383  20.152  0.00  0.00    +0.000 C 
BRANCH  14  15
ATOM     15  C   UNL     1       1.945   2.909  20.348  0.00  0.00    +0.000 C 
ATOM     16  C   UNL     1       3.480   2.804  20.254  0.00  0.00    +0.000 C 
ATOM     17  C   UNL     1       1.502   2.373  21.726  0.00  0.00    +0.000 C 
BRANCH  15  18
ATOM     18  C   UNL     1       1.342   2.025  19.232  0.00  0.00    +0.000 C 
BRANCH  18  19
ATOM     19  O   UNL     1       0.192   2.616  18.644  0.00  0.00    +0.000 OA
ATOM     20  H   UNL     1      -0.231   1.947  18.083  0.00  0.00    +0.000 HD
ENDBRANCH  18  19
ENDBRANCH  15  18
ENDBRANCH  14  15
ENDBRANCH  13  14
ENDBRANCH  12  13
ENDBRANCH   1  12
TORSDOF 12
ENDMDL
MODEL 4
REMARK VINA RESULT:      -5.2      2.814      6.578
REMARK  Name = 
REMARK  16 active torsions:
REMARK  status: ('A' for Active; 'I' for Inactive)
REMARK    1  A    between atoms: C_1  and  C_2
REMARK    2  A    between atoms: C_2  and  C_3
REMARK    3  A    between atoms: C_2  and  C_4
REMARK    4  A    between atoms: C_2  and  C_6
REMARK    5  A    between atoms: C_4  and  O_5
REMARK    6  A    between atoms: C_6  and  C_7
REMARK    7  A    between atoms: C_7  and  C_8
REMARK    8  A    between atoms: C_8  and  S_9
REMARK    9  A    between atoms: S_9  and  C_11
REMARK   10  A    between atoms: C_11  and  C_12
REMARK   11  A    between atoms: C_12  and  C_13
REMARK   12  A    between atoms: C_13  and  C_14
REMARK   13  A    between atoms: C_14  and  C_15
REMARK   14  A    between atoms: C_14  and  C_16
REMARK   15  A    between atoms: C_14  and  C_17
REMARK   16  A    between atoms: C_17  and  O_18
REMARK                            x       y       z     vdW  Elec       q    Type
REMARK                         _______ _______ _______ _____ _____    ______ ____
ROOT
ATOM      1  S   UNL     1       2.059   7.426  18.107  0.00  0.00    +0.000 S 
ATOM      2  O   UNL     1       1.371   8.784  17.714  0.00  0.00    +0.000 OA
ENDROOT
BRANCH   1   3
ATOM      3  C   UNL     1       2.201   7.389  19.924  0.00  0.00    +0.000 C 
BRANCH   3   4
ATOM      4  C   UNL     1       1.680   6.023  20.369  0.00  0.00    +0.000 C 
BRANCH   4   5
ATOM      5  C   UNL     1       2.730   4.915  20.378  0.00  0.00    +0.000 C 
BRANCH   5   7
ATOM      6  C   UNL     1       3.386   2.595  19.665  0.00  0.00    +0.000 C 
ATOM      7  C   UNL     1       2.186   3.534  19.898  0.00  0.00    +0.000 C 
ATOM      8  C   UNL     1       1.434   3.682  18.559  0.00  0.00    +0.000 C 
BRANCH   7   9
ATOM      9  C   UNL     1       1.253   2.910  20.965  0.00  0.00    +0.000 C 
BRANCH   9  10
ATOM     10  O   UNL     1       1.979   2.449  22.098  0.00  0.00    +0.000 OA
ATOM     11  H   UNL     1       2.466   3.210  22.459  0.00  0.00    +0.000 HD
ENDBRANCH   9  10
ENDBRANCH   7   9
ENDBRANCH   5   7
ENDBRANCH   4   5
ENDBRANCH   3   4
ENDBRANCH   1   3
BRANCH   1  12
ATOM     12  C   UNL     1       3.828   7.573  17.694  0.00  0.00    +0.000 C 
BRANCH  12  13
ATOM     13  C   UNL     1       4.304   6.167  17.338  0.00  0.00    +0.000 C 
BRANCH  13  14
ATOM     14  C   UNL     1       5.727   6.105  16.786  0.00  0.00    +0.000 C 
BRANCH  14  15
ATOM     15  C   UNL     1       6.793   5.695  17.849  0.00  0.00    +0.000 C 
ATOM     16  C   UNL     1       6.122   5.289  19.175  0.00  0.00    +0.000 C 
ATOM     17  C   UNL     1       7.637   4.505  17.344  0.00  0.00    +0.000 C 
BRANCH  15  18
ATOM     18  C   UNL     1       7.720   6.899  18.137  0.00  0.00    +0.000 C 
BRANCH  18  19
ATOM     19  O   UNL     1       7.714   7.845  17.076  0.00  0.00    +0.000 OA
ATOM     20  H   UNL     1       7.675   7.353  16.241  0.00  0.00    +0.000 HD
ENDBRANCH  18  19
ENDBRANCH  15  18
ENDBRANCH  14  15
ENDBRANCH  13  14
ENDBRANCH  12  13
ENDBRANCH   1  12
TORSDOF 12
ENDMDL
MODEL 5
REMARK VINA RESULT:      -5.2      2.726      6.170
REMARK  Name = 
REMARK  16 active torsions:
REMARK  status: ('A' for Active; 'I' for Inactive)
REMARK    1  A    between atoms: C_1  and  C_2
REMARK    2  A    between atoms: C_2  and  C_3
REMARK    3  A    between atoms: C_2  and  C_4
REMARK    4  A    between atoms: C_2  and  C_6
REMARK    5  A    between atoms: C_4  and  O_5
REMARK    6  A    between atoms: C_6  and  C_7
REMARK    7  A    between atoms: C_7  and  C_8
REMARK    8  A    between atoms: C_8  and  S_9
REMARK    9  A    between atoms: S_9  and  C_11
REMARK   10  A    between atoms: C_11  and  C_12
REMARK   11  A    between atoms: C_12  and  C_13
REMARK   12  A    between atoms: C_13  and  C_14
REMARK   13  A    between atoms: C_14  and  C_15
REMARK   14  A    between atoms: C_14  and  C_16
REMARK   15  A    between atoms: C_14  and  C_17
REMARK   16  A    between atoms: C_17  and  O_18
REMARK                            x       y       z     vdW  Elec       q    Type
REMARK                         _______ _______ _______ _____ _____    ______ ____
ROOT
ATOM      1  S   UNL     1       2.010   7.498  18.249  0.00  0.00    +0.000 S 
ATOM      2  O   UNL     1       2.691   8.882  17.940  0.00  0.00    +0.000 OA
ENDROOT
BRANCH   1   3
ATOM      3  C   UNL     1       2.095   7.234  20.050  0.00  0.00    +0.000 C 
BRANCH   3   4
ATOM      4  C   UNL     1       2.503   5.776  20.254  0.00  0.00    +0.000 C 
BRANCH   4   5
ATOM      5  C   UNL     1       1.334   4.802  20.386  0.00  0.00    +0.000 C 
BRANCH   5   7
ATOM      6  C   UNL     1       0.882   2.612  19.237  0.00  0.00    +0.000 C 
ATOM      7  C   UNL     1       1.757   3.303  20.301  0.00  0.00    +0.000 C 
ATOM      8  C   UNL     1       1.514   2.592  21.648  0.00  0.00    +0.000 C 
BRANCH   7   9
ATOM      9  C   UNL     1       3.246   3.175  19.894  0.00  0.00    +0.000 C 
BRANCH   9  10
ATOM     10  O   UNL     1       3.398   2.516  18.643  0.00  0.00    +0.000 OA
ATOM     11  H   UNL     1       3.614   1.586  18.830  0.00  0.00    +0.000 HD
ENDBRANCH   9  10
ENDBRANCH   7   9
ENDBRANCH   5   7
ENDBRANCH   4   5
ENDBRANCH   3   4
ENDBRANCH   1   3
BRANCH   1  12
ATOM     12  C   UNL     1       3.168   6.193  17.723  0.00  0.00    +0.000 C 
BRANCH  12  13
ATOM     13  C   UNL     1       4.461   6.902  17.324  0.00  0.00    +0.000 C 
BRANCH  13  14
ATOM     14  C   UNL     1       5.538   5.977  16.760  0.00  0.00    +0.000 C 
BRANCH  14  15
ATOM     15  C   UNL     1       6.758   5.780  17.713  0.00  0.00    +0.000 C 
ATOM     16  C   UNL     1       7.590   4.552  17.296  0.00  0.00    +0.000 C 
ATOM     17  C   UNL     1       7.673   7.023  17.690  0.00  0.00    +0.000 C 
BRANCH  15  18
ATOM     18  C   UNL     1       6.249   5.540  19.153  0.00  0.00    +0.000 C 
BRANCH  18  19
ATOM     19  O   UNL     1       7.316   5.365  20.075  0.00  0.00    +0.000 OA
ATOM     20  H   UNL     1       7.022   5.701  20.936  0.00  0.00    +0.000 HD
ENDBRANCH  18  19
ENDBRANCH  15  18
ENDBRANCH  14  15
ENDBRANCH  13  14
ENDBRANCH  12  13
ENDBRANCH   1  12
TORSDOF 12
ENDMDL
MODEL 6
REMARK VINA RESULT:      -5.1      2.472      6.393
REMARK  Name = 
REMARK  16 active torsions:
REMARK  status: ('A' for Active; 'I' for Inactive)
REMARK    1  A    between atoms: C_1  and  C_2
REMARK    2  A    between atoms: C_2  and  C_3
REMARK    3  A    between atoms: C_2  and  C_4
REMARK    4  A    between atoms: C_2  and  C_6
REMARK    5  A    between atoms: C_4  and  O_5
REMARK    6  A    between atoms: C_6  and  C_7
REMARK    7  A    between atoms: C_7  and  C_8
REMARK    8  A    between atoms: C_8  and  S_9
REMARK    9  A    between atoms: S_9  and  C_11
REMARK   10  A    between atoms: C_11  and  C_12
REMARK   11  A    between atoms: C_12  and  C_13
REMARK   12  A    between atoms: C_13  and  C_14
REMARK   13  A    between atoms: C_14  and  C_15
REMARK   14  A    between atoms: C_14  and  C_16
REMARK   15  A    between atoms: C_14  and  C_17
REMARK   16  A    between atoms: C_17  and  O_18
REMARK                            x       y       z     vdW  Elec       q    Type
REMARK                         _______ _______ _______ _____ _____    ______ ____
ROOT
ATOM      1  S   UNL     1       6.560   6.035  16.768  0.00  0.00    +0.000 S 
ATOM      2  O   UNL     1       7.770   7.035  16.668  0.00  0.00    +0.000 OA
ENDROOT
BRANCH   1   3
ATOM      3  C   UNL     1       6.518   5.394  18.474  0.00  0.00    +0.000 C 
BRANCH   3   4
ATOM      4  C   UNL     1       5.525   4.233  18.474  0.00  0.00    +0.000 C 
BRANCH   4   5
ATOM      5  C   UNL     1       4.244   4.494  19.262  0.00  0.00    +0.000 C 
BRANCH   5   7
ATOM      6  C   UNL     1       3.106   3.685  17.171  0.00  0.00    +0.000 C 
ATOM      7  C   UNL     1       3.002   3.729  18.709  0.00  0.00    +0.000 C 
ATOM      8  C   UNL     1       1.699   4.469  19.074  0.00  0.00    +0.000 C 
BRANCH   7   9
ATOM      9  C   UNL     1       2.962   2.280  19.256  0.00  0.00    +0.000 C 
BRANCH   9  10
ATOM     10  O   UNL     1       3.159   1.320  18.226  0.00  0.00    +0.000 OA
ATOM     11  H   UNL     1       3.729   1.730  17.552  0.00  0.00    +0.000 HD
ENDBRANCH   9  10
ENDBRANCH   7   9
ENDBRANCH   5   7
ENDBRANCH   4   5
ENDBRANCH   3   4
ENDBRANCH   1   3
BRANCH   1  12
ATOM     12  C   UNL     1       7.048   4.504  15.909  0.00  0.00    +0.000 C 
BRANCH  12  13
ATOM     13  C   UNL     1       6.609   4.668  14.456  0.00  0.00    +0.000 C 
BRANCH  13  14
ATOM     14  C   UNL     1       6.162   3.373  13.782  0.00  0.00    +0.000 C 
BRANCH  14  15
ATOM     15  C   UNL     1       6.203   3.431  12.223  0.00  0.00    +0.000 C 
ATOM     16  C   UNL     1       4.781   3.544  11.639  0.00  0.00    +0.000 C 
ATOM     17  C   UNL     1       7.027   4.645  11.744  0.00  0.00    +0.000 C 
BRANCH  15  18
ATOM     18  C   UNL     1       6.835   2.130  11.677  0.00  0.00    +0.000 C 
BRANCH  18  19
ATOM     19  O   UNL     1       5.876   1.095  11.515  0.00  0.00    +0.000 OA
ATOM     20  H   UNL     1       5.103   1.320  12.057  0.00  0.00    +0.000 HD
ENDBRANCH  18  19
ENDBRANCH  15  18
ENDBRANCH  14  15
ENDBRANCH  13  14
ENDBRANCH  12  13
ENDBRANCH   1  12
TORSDOF 12
ENDMDL
MODEL 7
REMARK VINA RESULT:      -5.1      2.356      3.299
REMARK  Name = 
REMARK  16 active torsions:
REMARK  status: ('A' for Active; 'I' for Inactive)
REMARK    1  A    between atoms: C_1  and  C_2
REMARK    2  A    between atoms: C_2  and  C_3
REMARK    3  A    between atoms: C_2  and  C_4
REMARK    4  A    between atoms: C_2  and  C_6
REMARK    5  A    between atoms: C_4  and  O_5
REMARK    6  A    between atoms: C_6  and  C_7
REMARK    7  A    between atoms: C_7  and  C_8
REMARK    8  A    between atoms: C_8  and  S_9
REMARK    9  A    between atoms: S_9  and  C_11
REMARK   10  A    between atoms: C_11  and  C_12
REMARK   11  A    between atoms: C_12  and  C_13
REMARK   12  A    between atoms: C_13  and  C_14
REMARK   13  A    between atoms: C_14  and  C_15
REMARK   14  A    between atoms: C_14  and  C_16
REMARK   15  A    between atoms: C_14  and  C_17
REMARK   16  A    between atoms: C_17  and  O_18
REMARK                            x       y       z     vdW  Elec       q    Type
REMARK                         _______ _______ _______ _____ _____    ______ ____
ROOT
ATOM      1  S   UNL     1       6.730   5.131  16.703  0.00  0.00    +0.000 S 
ATOM      2  O   UNL     1       7.567   5.932  15.640  0.00  0.00    +0.000 OA
ENDROOT
BRANCH   1   3
ATOM      3  C   UNL     1       5.969   3.712  15.848  0.00  0.00    +0.000 C 
BRANCH   3   4
ATOM      4  C   UNL     1       6.260   3.900  14.360  0.00  0.00    +0.000 C 
BRANCH   4   5
ATOM      5  C   UNL     1       5.113   3.501  13.433  0.00  0.00    +0.000 C 
BRANCH   5   7
ATOM      6  C   UNL     1       6.860   4.044  11.709  0.00  0.00    +0.000 C 
ATOM      7  C   UNL     1       5.557   3.260  11.958  0.00  0.00    +0.000 C 
ATOM      8  C   UNL     1       4.491   3.790  10.976  0.00  0.00    +0.000 C 
BRANCH   7   9
ATOM      9  C   UNL     1       5.813   1.755  11.700  0.00  0.00    +0.000 C 
BRANCH   9  10
ATOM     10  O   UNL     1       7.143   1.513  11.256  0.00  0.00    +0.000 OA
ATOM     11  H   UNL     1       7.355   0.587  11.467  0.00  0.00    +0.000 HD
ENDBRANCH   9  10
ENDBRANCH   7   9
ENDBRANCH   5   7
ENDBRANCH   4   5
ENDBRANCH   3   4
ENDBRANCH   1   3
BRANCH   1  12
ATOM     12  C   UNL     1       5.220   6.092  17.043  0.00  0.00    +0.000 C 
BRANCH  12  13
ATOM     13  C   UNL     1       4.100   5.074  17.250  0.00  0.00    +0.000 C 
BRANCH  13  14
ATOM     14  C   UNL     1       3.228   5.338  18.476  0.00  0.00    +0.000 C 
BRANCH  14  15
ATOM     15  C   UNL     1       2.506   4.065  19.017  0.00  0.00    +0.000 C 
ATOM     16  C   UNL     1       1.729   3.353  17.893  0.00  0.00    +0.000 C 
ATOM     17  C   UNL     1       3.527   3.071  19.612  0.00  0.00    +0.000 C 
BRANCH  15  18
ATOM     18  C   UNL     1       1.490   4.476  20.108  0.00  0.00    +0.000 C 
BRANCH  18  19
ATOM     19  O   UNL     1       0.508   3.474  20.330  0.00  0.00    +0.000 OA
ATOM     20  H   UNL     1       0.868   2.845  20.975  0.00  0.00    +0.000 HD
ENDBRANCH  18  19
ENDBRANCH  15  18
ENDBRANCH  14  15
ENDBRANCH  13  14
ENDBRANCH  12  13
ENDBRANCH   1  12
TORSDOF 12
ENDMDL
MODEL 8
REMARK VINA RESULT:      -5.1      2.363      3.178
REMARK  Name = 
REMARK  16 active torsions:
REMARK  status: ('A' for Active; 'I' for Inactive)
REMARK    1  A    between atoms: C_1  and  C_2
REMARK    2  A    between atoms: C_2  and  C_3
REMARK    3  A    between atoms: C_2  and  C_4
REMARK    4  A    between atoms: C_2  and  C_6
REMARK    5  A    between atoms: C_4  and  O_5
REMARK    6  A    between atoms: C_6  and  C_7
REMARK    7  A    between atoms: C_7  and  C_8
REMARK    8  A    between atoms: C_8  and  S_9
REMARK    9  A    between atoms: S_9  and  C_11
REMARK   10  A    between atoms: C_11  and  C_12
REMARK   11  A    between atoms: C_12  and  C_13
REMARK   12  A    between atoms: C_13  and  C_14
REMARK   13  A    between atoms: C_14  and  C_15
REMARK   14  A    between atoms: C_14  and  C_16
REMARK   15  A    between atoms: C_14  and  C_17
REMARK   16  A    between atoms: C_17  and  O_18
REMARK                            x       y       z     vdW  Elec       q    Type
REMARK                         _______ _______ _______ _____ _____    ______ ____
ROOT
ATOM      1  S   UNL     1       6.550   4.588  16.853  0.00  0.00    +0.000 S 
ATOM      2  O   UNL     1       7.982   4.444  17.487  0.00  0.00    +0.000 OA
ENDROOT
BRANCH   1   3
ATOM      3  C   UNL     1       6.766   5.119  15.123  0.00  0.00    +0.000 C 
BRANCH   3   4
ATOM      4  C   UNL     1       5.617   4.496  14.333  0.00  0.00    +0.000 C 
BRANCH   4   5
ATOM      5  C   UNL     1       5.946   3.155  13.684  0.00  0.00    +0.000 C 
BRANCH   5   7
ATOM      6  C   UNL     1       6.945   4.091  11.575  0.00  0.00    +0.000 C 
ATOM      7  C   UNL     1       5.839   3.171  12.128  0.00  0.00    +0.000 C 
ATOM      8  C   UNL     1       4.479   3.746  11.681  0.00  0.00    +0.000 C 
BRANCH   7   9
ATOM      9  C   UNL     1       6.029   1.746  11.550  0.00  0.00    +0.000 C 
BRANCH   9  10
ATOM     10  O   UNL     1       7.392   1.474  11.251  0.00  0.00    +0.000 OA
ATOM     11  H   UNL     1       7.422   1.097  10.354  0.00  0.00    +0.000 HD
ENDBRANCH   9  10
ENDBRANCH   7   9
ENDBRANCH   5   7
ENDBRANCH   4   5
ENDBRANCH   3   4
ENDBRANCH   1   3
BRANCH   1  12
ATOM     12  C   UNL     1       5.810   6.113  17.521  0.00  0.00    +0.000 C 
BRANCH  12  13
ATOM     13  C   UNL     1       4.440   5.720  18.070  0.00  0.00    +0.000 C 
BRANCH  13  14
ATOM     14  C   UNL     1       4.263   4.223  18.311  0.00  0.00    +0.000 C 
BRANCH  14  15
ATOM     15  C   UNL     1       2.772   3.773  18.398  0.00  0.00    +0.000 C 
ATOM     16  C   UNL     1       1.839   4.840  17.792  0.00  0.00    +0.000 C 
ATOM     17  C   UNL     1       2.556   2.447  17.639  0.00  0.00    +0.000 C 
BRANCH  15  18
ATOM     18  C   UNL     1       2.377   3.589  19.882  0.00  0.00    +0.000 C 
BRANCH  18  19
ATOM     19  O   UNL     1       1.896   2.280  20.150  0.00  0.00    +0.000 OA
ATOM     20  H   UNL     1       2.300   1.678  19.504  0.00  0.00    +0.000 HD
ENDBRANCH  18  19
ENDBRANCH  15  18
ENDBRANCH  14  15
ENDBRANCH  13  14
ENDBRANCH  12  13
ENDBRANCH   1  12
TORSDOF 12
ENDMDL
MODEL 9
REMARK VINA RESULT:      -5.1      2.462      3.080
REMARK  Name = 
REMARK  16 active torsions:
REMARK  status: ('A' for Active; 'I' for Inactive)
REMARK    1  A    between atoms: C_1  and  C_2
REMARK    2  A    between atoms: C_2  and  C_3
REMARK    3  A    between atoms: C_2  and  C_4
REMARK    4  A    between atoms: C_2  and  C_6
REMARK    5  A    between atoms: C_4  and  O_5
REMARK    6  A    between atoms: C_6  and  C_7
REMARK    7  A    between atoms: C_7  and  C_8
REMARK    8  A    between atoms: C_8  and  S_9
REMARK    9  A    between atoms: S_9  and  C_11
REMARK   10  A    between atoms: C_11  and  C_12
REMARK   11  A    between atoms: C_12  and  C_13
REMARK   12  A    between atoms: C_13  and  C_14
REMARK   13  A    between atoms: C_14  and  C_15
REMARK   14  A    between atoms: C_14  and  C_16
REMARK   15  A    between atoms: C_14  and  C_17
REMARK   16  A    between atoms: C_17  and  O_18
REMARK                            x       y       z     vdW  Elec       q    Type
REMARK                         _______ _______ _______ _____ _____    ______ ____
ROOT
ATOM      1  S   UNL     1       6.196   4.402  16.820  0.00  0.00    +0.000 S 
ATOM      2  O   UNL     1       7.717   4.632  17.148  0.00  0.00    +0.000 OA
ENDROOT
BRANCH   1   3
ATOM      3  C   UNL     1       5.843   5.238  15.240  0.00  0.00    +0.000 C 
BRANCH   3   4
ATOM      4  C   UNL     1       6.582   4.449  14.160  0.00  0.00    +0.000 C 
BRANCH   4   5
ATOM      5  C   UNL     1       5.814   3.249  13.612  0.00  0.00    +0.000 C 
BRANCH   5   7
ATOM      6  C   UNL     1       6.865   4.124  11.502  0.00  0.00    +0.000 C 
ATOM      7  C   UNL     1       5.763   3.198  12.054  0.00  0.00    +0.000 C 
ATOM      8  C   UNL     1       4.405   3.718  11.537  0.00  0.00    +0.000 C 
BRANCH   7   9
ATOM      9  C   UNL     1       6.008   1.757  11.543  0.00  0.00    +0.000 C 
BRANCH   9  10
ATOM     10  O   UNL     1       7.383   1.519  11.271  0.00  0.00    +0.000 OA
ATOM     11  H   UNL     1       7.899   2.025  11.922  0.00  0.00    +0.000 HD
ENDBRANCH   9  10
ENDBRANCH   7   9
ENDBRANCH   5   7
ENDBRANCH   4   5
ENDBRANCH   3   4
ENDBRANCH   1   3
BRANCH   1  12
ATOM     12  C   UNL     1       5.232   5.482  17.926  0.00  0.00    +0.000 C 
BRANCH  12  13
ATOM     13  C   UNL     1       4.902   4.647  19.162  0.00  0.00    +0.000 C 
BRANCH  13  14
ATOM     14  C   UNL     1       3.411   4.549  19.476  0.00  0.00    +0.000 C 
BRANCH  14  15
ATOM     15  C   UNL     1       2.979   3.159  20.037  0.00  0.00    +0.000 C 
ATOM     16  C   UNL     1       4.200   2.239  20.230  0.00  0.00    +0.000 C 
ATOM     17  C   UNL     1       2.265   3.317  21.397  0.00  0.00    +0.000 C 
BRANCH  15  18
ATOM     18  C   UNL     1       2.025   2.474  19.030  0.00  0.00    +0.000 C 
BRANCH  18  19
ATOM     19  O   UNL     1       2.639   1.372  18.376  0.00  0.00    +0.000 OA
ATOM     20  H   UNL     1       2.476   0.581  18.913  0.00  0.00    +0.000 HD
ENDBRANCH  18  19
ENDBRANCH  15  18
ENDBRANCH  14  15
ENDBRANCH  13  14
ENDBRANCH  12  13
ENDBRANCH   1  12
TORSDOF 12
ENDMDL
