MODEL 1
REMARK VINA RESULT:      -8.0      0.000      0.000
REMARK  Name = 
REMARK  5 active torsions:
REMARK  status: ('A' for Active; 'I' for Inactive)
REMARK    1  A    between atoms: C_1  and  C_2
REMARK    2  A    between atoms: C_2  and  C_19
REMARK    3  A    between atoms: N_3  and  N_4
REMARK    4  A    between atoms: N_4  and  C_5
REMARK    5  A    between atoms: C_5  and  N_7
REMARK                            x       y       z     vdW  Elec       q    Type
REMARK                         _______ _______ _______ _____ _____    ______ ____
ROOT
ATOM      1  C   UNL     1       3.311   3.097  18.381  0.00  0.00    +0.000 C 
ATOM      2  S   UNL     1       2.639   1.848  18.672  0.00  0.00    +0.000 S 
ENDROOT
BRANCH   1   3
ATOM      3  N   UNL     1       2.663   4.371  18.672  0.00  0.00    +0.000 N 
ATOM      4  C   UNL     1       1.578   4.514  19.646  0.00  0.00    +0.000 C 
ATOM      5  C   UNL     1       1.945   5.606  20.663  0.00  0.00    +0.000 C 
ATOM      6  N   UNL     1       2.277   6.824  19.932  0.00  0.00    +0.000 N 
ATOM      7  C   UNL     1       1.567   8.056  20.122  0.00  0.00    +0.000 A 
ATOM      8  C   UNL     1       0.939   8.367  21.347  0.00  0.00    +0.000 A 
ATOM      9  C   UNL     1       0.267   9.581  21.491  0.00  0.00    +0.000 A 
ATOM     10  C   UNL     1       0.198  10.471  20.421  0.00  0.00    +0.000 A 
ATOM     11  C   UNL     1       0.823  10.138  19.219  0.00  0.00    +0.000 A 
ATOM     12  N   UNL     1       1.497   8.961  19.104  0.00  0.00    +0.000 NA
ATOM     13  C   UNL     1       3.341   6.712  18.944  0.00  0.00    +0.000 C 
ATOM     14  C   UNL     1       2.990   5.607  17.950  0.00  0.00    +0.000 C 
ENDBRANCH   1   3
BRANCH   1  15
ATOM     15  N   UNL     1       4.688   3.055  17.977  0.00  0.00    +0.000 N 
ATOM     16  H   UNL     1       5.405   2.816  18.656  0.00  0.00    +0.000 HD
BRANCH  15  19
ATOM     17  C   UNL     1       6.058   4.151  14.704  0.00  0.00    +0.000 C 
ATOM     18  C   UNL     1       5.845   4.122  16.196  0.00  0.00    +0.000 C 
ATOM     19  N   UNL     1       5.045   3.200  16.652  0.00  0.00    +0.000 NA
BRANCH  18  20
ATOM     20  C   UNL     1       6.611   5.098  17.065  0.00  0.00    +0.000 A 
ATOM     21  C   UNL     1       6.794   6.442  16.675  0.00  0.00    +0.000 A 
ATOM     22  C   UNL     1       7.513   7.315  17.500  0.00  0.00    +0.000 A 
ATOM     23  C   UNL     1       8.051   6.858  18.702  0.00  0.00    +0.000 A 
ATOM     24  C   UNL     1       7.868   5.526  19.058  0.00  0.00    +0.000 A 
ATOM     25  N   UNL     1       7.170   4.698  18.242  0.00  0.00    +0.000 NA
ENDBRANCH  18  20
ENDBRANCH  15  19
ENDBRANCH   1  15
TORSDOF 4
ENDMDL
MODEL 2
REMARK VINA RESULT:      -7.5      1.078      2.235
REMARK  Name = 
REMARK  5 active torsions:
REMARK  status: ('A' for Active; 'I' for Inactive)
REMARK    1  A    between atoms: C_1  and  C_2
REMARK    2  A    between atoms: C_2  and  C_19
REMARK    3  A    between atoms: N_3  and  N_4
REMARK    4  A    between atoms: N_4  and  C_5
REMARK    5  A    between atoms: C_5  and  N_7
REMARK                            x       y       z     vdW  Elec       q    Type
REMARK                         _______ _______ _______ _____ _____    ______ ____
ROOT
ATOM      1  C   UNL     1       2.863   3.055  18.702  0.00  0.00    +0.000 C 
ATOM      2  S   UNL     1       2.021   1.879  18.624  0.00  0.00    +0.000 S 
ENDROOT
BRANCH   1   3
ATOM      3  N   UNL     1       2.286   4.359  19.002  0.00  0.00    +0.000 N 
ATOM      4  C   UNL     1       1.470   4.622  20.190  0.00  0.00    +0.000 C 
ATOM      5  C   UNL     1       2.056   5.816  20.958  0.00  0.00    +0.000 C 
ATOM      6  N   UNL     1       2.179   6.941  20.039  0.00  0.00    +0.000 N 
ATOM      7  C   UNL     1       1.518   8.195  20.261  0.00  0.00    +0.000 A 
ATOM      8  C   UNL     1       1.203   8.647  21.560  0.00  0.00    +0.000 A 
ATOM      9  C   UNL     1       0.567   9.877  21.729  0.00  0.00    +0.000 A 
ATOM     10  C   UNL     1       0.224  10.644  20.617  0.00  0.00    +0.000 A 
ATOM     11  C   UNL     1       0.542  10.173  19.343  0.00  0.00    +0.000 A 
ATOM     12  N   UNL     1       1.186   8.983  19.197  0.00  0.00    +0.000 NA
ATOM     13  C   UNL     1       2.972   6.709  18.840  0.00  0.00    +0.000 C 
ATOM     14  C   UNL     1       2.406   5.504  18.089  0.00  0.00    +0.000 C 
ENDBRANCH   1   3
BRANCH   1  15
ATOM     15  N   UNL     1       4.288   2.878  18.666  0.00  0.00    +0.000 N 
ATOM     16  H   UNL     1       4.686   2.109  18.134  0.00  0.00    +0.000 HD
BRANCH  15  19
ATOM     17  C   UNL     1       6.870   5.454  19.360  0.00  0.00    +0.000 C 
ATOM     18  C   UNL     1       5.989   4.533  18.555  0.00  0.00    +0.000 C 
ATOM     19  N   UNL     1       5.134   3.813  19.225  0.00  0.00    +0.000 NA
BRANCH  18  20
ATOM     20  C   UNL     1       6.097   4.551  17.044  0.00  0.00    +0.000 A 
ATOM     21  C   UNL     1       7.324   4.813  16.398  0.00  0.00    +0.000 A 
ATOM     22  C   UNL     1       7.386   4.828  15.000  0.00  0.00    +0.000 A 
ATOM     23  C   UNL     1       6.238   4.588  14.246  0.00  0.00    +0.000 A 
ATOM     24  C   UNL     1       5.038   4.344  14.906  0.00  0.00    +0.000 A 
ATOM     25  N   UNL     1       5.001   4.338  16.262  0.00  0.00    +0.000 NA
ENDBRANCH  18  20
ENDBRANCH  15  19
ENDBRANCH   1  15
TORSDOF 4
ENDMDL
MODEL 3
REMARK VINA RESULT:      -7.1      2.956      5.208
REMARK  Name = 
REMARK  5 active torsions:
REMARK  status: ('A' for Active; 'I' for Inactive)
REMARK    1  A    between atoms: C_1  and  C_2
REMARK    2  A    between atoms: C_2  and  C_19
REMARK    3  A    between atoms: N_3  and  N_4
REMARK    4  A    between atoms: N_4  and  C_5
REMARK    5  A    between atoms: C_5  and  N_7
REMARK                            x       y       z     vdW  Elec       q    Type
REMARK                         _______ _______ _______ _____ _____    ______ ____
ROOT
ATOM      1  C   UNL     1       1.829   8.131  19.686  0.00  0.00    +0.000 C 
ATOM      2  S   UNL     1       2.293   8.225  18.317  0.00  0.00    +0.000 S 
ENDROOT
BRANCH   1   3
ATOM      3  N   UNL     1       0.730   8.966  20.154  0.00  0.00    +0.000 N 
ATOM      4  C   UNL     1       0.002   8.707  21.399  0.00  0.00    +0.000 C 
ATOM      5  C   UNL     1       0.015   9.973  22.270  0.00  0.00    +0.000 C 
ATOM      6  N   UNL     1      -0.499  11.084  21.478  0.00  0.00    +0.000 N 
ATOM      7  C   UNL     1      -1.655  11.840  21.868  0.00  0.00    +0.000 A 
ATOM      8  C   UNL     1      -2.025  11.982  23.222  0.00  0.00    +0.000 A 
ATOM      9  C   UNL     1      -3.153  12.733  23.556  0.00  0.00    +0.000 A 
ATOM     10  C   UNL     1      -3.921  13.320  22.553  0.00  0.00    +0.000 A 
ATOM     11  C   UNL     1      -3.536  13.162  21.222  0.00  0.00    +0.000 A 
ATOM     12  N   UNL     1      -2.419  12.448  20.915  0.00  0.00    +0.000 NA
ATOM     13  C   UNL     1       0.193  11.357  20.227  0.00  0.00    +0.000 C 
ATOM     14  C   UNL     1       0.204  10.092  19.372  0.00  0.00    +0.000 C 
ENDBRANCH   1   3
BRANCH   1  15
ATOM     15  N   UNL     1       2.346   7.074  20.511  0.00  0.00    +0.000 N 
ATOM     16  H   UNL     1       3.171   7.238  21.080  0.00  0.00    +0.000 HD
BRANCH  15  19
ATOM     17  C   UNL     1       1.021   3.617  20.236  0.00  0.00    +0.000 C 
ATOM     18  C   UNL     1       1.927   4.795  19.985  0.00  0.00    +0.000 C 
ATOM     19  N   UNL     1       1.663   5.884  20.651  0.00  0.00    +0.000 NA
BRANCH  18  20
ATOM     20  C   UNL     1       3.107   4.627  19.051  0.00  0.00    +0.000 A 
ATOM     21  C   UNL     1       2.953   4.056  17.769  0.00  0.00    +0.000 A 
ATOM     22  C   UNL     1       4.068   3.910  16.934  0.00  0.00    +0.000 A 
ATOM     23  C   UNL     1       5.326   4.323  17.368  0.00  0.00    +0.000 A 
ATOM     24  C   UNL     1       5.454   4.871  18.640  0.00  0.00    +0.000 A 
ATOM     25  N   UNL     1       4.361   5.000  19.433  0.00  0.00    +0.000 NA
ENDBRANCH  18  20
ENDBRANCH  15  19
ENDBRANCH   1  15
TORSDOF 4
ENDMDL
MODEL 4
REMARK VINA RESULT:      -7.1      0.847      1.562
REMARK  Name = 
REMARK  5 active torsions:
REMARK  status: ('A' for Active; 'I' for Inactive)
REMARK    1  A    between atoms: C_1  and  C_2
REMARK    2  A    between atoms: C_2  and  C_19
REMARK    3  A    between atoms: N_3  and  N_4
REMARK    4  A    between atoms: N_4  and  C_5
REMARK    5  A    between atoms: C_5  and  N_7
REMARK                            x       y       z     vdW  Elec       q    Type
REMARK                         _______ _______ _______ _____ _____    ______ ____
ROOT
ATOM      1  C   UNL     1       3.725   3.341  18.913  0.00  0.00    +0.000 C 
ATOM      2  S   UNL     1       2.915   2.170  19.177  0.00  0.00    +0.000 S 
ENDROOT
BRANCH   1   3
ATOM      3  N   UNL     1       3.322   4.649  19.416  0.00  0.00    +0.000 N 
ATOM      4  C   UNL     1       3.693   5.907  18.764  0.00  0.00    +0.000 C 
ATOM      5  C   UNL     1       2.426   6.732  18.488  0.00  0.00    +0.000 C 
ATOM      6  N   UNL     1       1.692   6.883  19.739  0.00  0.00    +0.000 N 
ATOM      7  C   UNL     1       1.393   8.165  20.308  0.00  0.00    +0.000 A 
ATOM      8  C   UNL     1       1.247   9.316  19.506  0.00  0.00    +0.000 A 
ATOM      9  C   UNL     1       0.948  10.542  20.101  0.00  0.00    +0.000 A 
ATOM     10  C   UNL     1       0.815  10.631  21.485  0.00  0.00    +0.000 A 
ATOM     11  C   UNL     1       0.967   9.479  22.257  0.00  0.00    +0.000 A 
ATOM     12  N   UNL     1       1.233   8.286  21.658  0.00  0.00    +0.000 NA
ATOM     13  C   UNL     1       1.322   5.650  20.421  0.00  0.00    +0.000 C 
ATOM     14  C   UNL     1       2.577   4.817  20.671  0.00  0.00    +0.000 C 
ENDBRANCH   1   3
BRANCH   1  15
ATOM     15  N   UNL     1       5.017   3.157  18.313  0.00  0.00    +0.000 N 
ATOM     16  H   UNL     1       5.785   2.795  18.872  0.00  0.00    +0.000 HD
BRANCH  15  19
ATOM     17  C   UNL     1       5.912   4.358  14.916  0.00  0.00    +0.000 C 
ATOM     18  C   UNL     1       5.883   4.306  16.422  0.00  0.00    +0.000 C 
ATOM     19  N   UNL     1       5.202   3.332  16.957  0.00  0.00    +0.000 NA
BRANCH  18  20
ATOM     20  C   UNL     1       6.686   5.322  17.206  0.00  0.00    +0.000 A 
ATOM     21  C   UNL     1       6.868   6.640  16.731  0.00  0.00    +0.000 A 
ATOM     22  C   UNL     1       7.622   7.551  17.479  0.00  0.00    +0.000 A 
ATOM     23  C   UNL     1       8.195   7.159  18.688  0.00  0.00    +0.000 A 
ATOM     24  C   UNL     1       8.012   5.853  19.129  0.00  0.00    +0.000 A 
ATOM     25  N   UNL     1       7.280   4.986  18.386  0.00  0.00    +0.000 NA
ENDBRANCH  18  20
ENDBRANCH  15  19
ENDBRANCH   1  15
TORSDOF 4
ENDMDL
MODEL 5
REMARK VINA RESULT:      -7.1      0.982      1.121
REMARK  Name = 
REMARK  5 active torsions:
REMARK  status: ('A' for Active; 'I' for Inactive)
REMARK    1  A    between atoms: C_1  and  C_2
REMARK    2  A    between atoms: C_2  and  C_19
REMARK    3  A    between atoms: N_3  and  N_4
REMARK    4  A    between atoms: N_4  and  C_5
REMARK    5  A    between atoms: C_5  and  N_7
REMARK                            x       y       z     vdW  Elec       q    Type
REMARK                         _______ _______ _______ _____ _____    ______ ____
ROOT
ATOM      1  C   UNL     1       3.081   3.728  19.560  0.00  0.00    +0.000 C 
ATOM      2  S   UNL     1       2.552   2.628  20.340  0.00  0.00    +0.000 S 
ENDROOT
BRANCH   1   3
ATOM      3  N   UNL     1       2.361   4.992  19.479  0.00  0.00    +0.000 N 
ATOM      4  C   UNL     1       1.561   5.531  20.583  0.00  0.00    +0.000 C 
ATOM      5  C   UNL     1       2.024   6.962  20.898  0.00  0.00    +0.000 C 
ATOM      6  N   UNL     1       1.977   7.744  19.668  0.00  0.00    +0.000 N 
ATOM      7  C   UNL     1       1.176   8.926  19.536  0.00  0.00    +0.000 A 
ATOM      8  C   UNL     1       0.855   9.732  20.649  0.00  0.00    +0.000 A 
ATOM      9  C   UNL     1       0.079  10.878  20.474  0.00  0.00    +0.000 A 
ATOM     10  C   UNL     1      -0.394  11.212  19.206  0.00  0.00    +0.000 A 
ATOM     11  C   UNL     1      -0.066  10.398  18.122  0.00  0.00    +0.000 A 
ATOM     12  N   UNL     1       0.713   9.297  18.307  0.00  0.00    +0.000 NA
ATOM     13  C   UNL     1       2.749   7.227  18.547  0.00  0.00    +0.000 C 
ATOM     14  C   UNL     1       2.308   5.795  18.250  0.00  0.00    +0.000 C 
ENDBRANCH   1   3
BRANCH   1  15
ATOM     15  N   UNL     1       4.410   3.610  19.026  0.00  0.00    +0.000 N 
ATOM     16  H   UNL     1       5.201   3.527  19.659  0.00  0.00    +0.000 HD
BRANCH  15  19
ATOM     17  C   UNL     1       5.480   3.930  15.486  0.00  0.00    +0.000 C 
ATOM     18  C   UNL     1       5.442   4.198  16.969  0.00  0.00    +0.000 C 
ATOM     19  N   UNL     1       4.621   3.469  17.671  0.00  0.00    +0.000 NA
BRANCH  18  20
ATOM     20  C   UNL     1       6.388   5.226  17.552  0.00  0.00    +0.000 A 
ATOM     21  C   UNL     1       6.544   6.500  16.963  0.00  0.00    +0.000 A 
ATOM     22  C   UNL     1       7.433   7.423  17.526  0.00  0.00    +0.000 A 
ATOM     23  C   UNL     1       8.165   7.086  18.663  0.00  0.00    +0.000 A 
ATOM     24  C   UNL     1       8.003   5.821  19.218  0.00  0.00    +0.000 A 
ATOM     25  N   UNL     1       7.138   4.942  18.654  0.00  0.00    +0.000 NA
ENDBRANCH  18  20
ENDBRANCH  15  19
ENDBRANCH   1  15
TORSDOF 4
ENDMDL
MODEL 6
REMARK VINA RESULT:      -7.0      0.891      2.270
REMARK  Name = 
REMARK  5 active torsions:
REMARK  status: ('A' for Active; 'I' for Inactive)
REMARK    1  A    between atoms: C_1  and  C_2
REMARK    2  A    between atoms: C_2  and  C_19
REMARK    3  A    between atoms: N_3  and  N_4
REMARK    4  A    between atoms: N_4  and  C_5
REMARK    5  A    between atoms: C_5  and  N_7
REMARK                            x       y       z     vdW  Elec       q    Type
REMARK                         _______ _______ _______ _____ _____    ______ ____
ROOT
ATOM      1  C   UNL     1       3.283   3.127  18.308  0.00  0.00    +0.000 C 
ATOM      2  S   UNL     1       2.493   1.934  18.090  0.00  0.00    +0.000 S 
ENDROOT
BRANCH   1   3
ATOM      3  N   UNL     1       2.639   4.387  18.660  0.00  0.00    +0.000 N 
ATOM      4  C   UNL     1       1.724   4.528  19.795  0.00  0.00    +0.000 C 
ATOM      5  C   UNL     1       2.205   5.673  20.700  0.00  0.00    +0.000 C 
ATOM      6  N   UNL     1       2.361   6.872  19.885  0.00  0.00    +0.000 N 
ATOM      7  C   UNL     1       1.640   8.084  20.150  0.00  0.00    +0.000 A 
ATOM      8  C   UNL     1       1.209   8.420  21.450  0.00  0.00    +0.000 A 
ATOM      9  C   UNL     1       0.519   9.614  21.664  0.00  0.00    +0.000 A 
ATOM     10  C   UNL     1       0.237  10.458  20.591  0.00  0.00    +0.000 A 
ATOM     11  C   UNL     1       0.670  10.100  19.314  0.00  0.00    +0.000 A 
ATOM     12  N   UNL     1       1.366   8.945  19.128  0.00  0.00    +0.000 NA
ATOM     13  C   UNL     1       3.252   6.760  18.739  0.00  0.00    +0.000 C 
ATOM     14  C   UNL     1       2.790   5.605  17.853  0.00  0.00    +0.000 C 
ENDBRANCH   1   3
BRANCH   1  15
ATOM     15  N   UNL     1       4.714   3.002  18.353  0.00  0.00    +0.000 N 
ATOM     16  H   UNL     1       5.162   2.195  17.928  0.00  0.00    +0.000 HD
BRANCH  15  19
ATOM     17  C   UNL     1       7.136   5.771  18.855  0.00  0.00    +0.000 C 
ATOM     18  C   UNL     1       6.312   4.744  18.120  0.00  0.00    +0.000 C 
ATOM     19  N   UNL     1       5.501   4.024  18.841  0.00  0.00    +0.000 NA
BRANCH  18  20
ATOM     20  C   UNL     1       6.421   4.660  16.612  0.00  0.00    +0.000 A 
ATOM     21  C   UNL     1       5.582   3.808  15.861  0.00  0.00    +0.000 A 
ATOM     22  C   UNL     1       5.716   3.751  14.468  0.00  0.00    +0.000 A 
ATOM     23  C   UNL     1       6.677   4.529  13.825  0.00  0.00    +0.000 A 
ATOM     24  C   UNL     1       7.500   5.350  14.588  0.00  0.00    +0.000 A 
ATOM     25  N   UNL     1       7.354   5.388  15.935  0.00  0.00    +0.000 NA
ENDBRANCH  18  20
ENDBRANCH  15  19
ENDBRANCH   1  15
TORSDOF 4
ENDMDL
MODEL 7
REMARK VINA RESULT:      -6.9      0.903      1.207
REMARK  Name = 
REMARK  5 active torsions:
REMARK  status: ('A' for Active; 'I' for Inactive)
REMARK    1  A    between atoms: C_1  and  C_2
REMARK    2  A    between atoms: C_2  and  C_19
REMARK    3  A    between atoms: N_3  and  N_4
REMARK    4  A    between atoms: N_4  and  C_5
REMARK    5  A    between atoms: C_5  and  N_7
REMARK                            x       y       z     vdW  Elec       q    Type
REMARK                         _______ _______ _______ _____ _____    ______ ____
ROOT
ATOM      1  C   UNL     1       3.025   3.625  18.870  0.00  0.00    +0.000 C 
ATOM      2  S   UNL     1       2.414   2.390  19.317  0.00  0.00    +0.000 S 
ENDROOT
BRANCH   1   3
ATOM      3  N   UNL     1       2.342   4.899  19.059  0.00  0.00    +0.000 N 
ATOM      4  C   UNL     1       1.544   5.212  20.247  0.00  0.00    +0.000 C 
ATOM      5  C   UNL     1       2.044   6.528  20.865  0.00  0.00    +0.000 C 
ATOM      6  N   UNL     1       2.034   7.556  19.831  0.00  0.00    +0.000 N 
ATOM      7  C   UNL     1       1.269   8.764  19.952  0.00  0.00    +0.000 A 
ATOM      8  C   UNL     1       0.958   9.321  21.210  0.00  0.00    +0.000 A 
ATOM      9  C   UNL     1       0.217  10.502  21.280  0.00  0.00    +0.000 A 
ATOM     10  C   UNL     1      -0.230  11.114  20.111  0.00  0.00    +0.000 A 
ATOM     11  C   UNL     1       0.087  10.541  18.880  0.00  0.00    +0.000 A 
ATOM     12  N   UNL     1       0.832   9.403  18.829  0.00  0.00    +0.000 NA
ATOM     13  C   UNL     1       2.804   7.269  18.630  0.00  0.00    +0.000 C 
ATOM     14  C   UNL     1       2.327   5.948  18.030  0.00  0.00    +0.000 C 
ENDBRANCH   1   3
BRANCH   1  15
ATOM     15  N   UNL     1       4.386   3.588  18.412  0.00  0.00    +0.000 N 
ATOM     16  H   UNL     1       5.141   3.492  19.086  0.00  0.00    +0.000 HD
BRANCH  15  19
ATOM     17  C   UNL     1       5.663   4.164  14.974  0.00  0.00    +0.000 C 
ATOM     18  C   UNL     1       5.529   4.331  16.467  0.00  0.00    +0.000 C 
ATOM     19  N   UNL     1       4.681   3.543  17.066  0.00  0.00    +0.000 NA
BRANCH  18  20
ATOM     20  C   UNL     1       6.418   5.330  17.175  0.00  0.00    +0.000 A 
ATOM     21  C   UNL     1       7.170   4.967  18.314  0.00  0.00    +0.000 A 
ATOM     22  C   UNL     1       7.976   5.920  18.949  0.00  0.00    +0.000 A 
ATOM     23  C   UNL     1       8.035   7.224  18.460  0.00  0.00    +0.000 A 
ATOM     24  C   UNL     1       7.276   7.560  17.344  0.00  0.00    +0.000 A 
ATOM     25  N   UNL     1       6.500   6.622  16.748  0.00  0.00    +0.000 NA
ENDBRANCH  18  20
ENDBRANCH  15  19
ENDBRANCH   1  15
TORSDOF 4
ENDMDL
MODEL 8
REMARK VINA RESULT:      -6.9      1.076      1.860
REMARK  Name = 
REMARK  5 active torsions:
REMARK  status: ('A' for Active; 'I' for Inactive)
REMARK    1  A    between atoms: C_1  and  C_2
REMARK    2  A    between atoms: C_2  and  C_19
REMARK    3  A    between atoms: N_3  and  N_4
REMARK    4  A    between atoms: N_4  and  C_5
REMARK    5  A    between atoms: C_5  and  N_7
REMARK                            x       y       z     vdW  Elec       q    Type
REMARK                         _______ _______ _______ _____ _____    ______ ____
ROOT
ATOM      1  C   UNL     1       3.857   3.511  18.351  0.00  0.00    +0.000 C 
ATOM      2  S   UNL     1       3.003   2.343  18.425  0.00  0.00    +0.000 S 
ENDROOT
BRANCH   1   3
ATOM      3  N   UNL     1       3.446   4.768  18.963  0.00  0.00    +0.000 N 
ATOM      4  C   UNL     1       3.685   6.075  18.346  0.00  0.00    +0.000 C 
ATOM      5  C   UNL     1       2.357   6.843  18.247  0.00  0.00    +0.000 C 
ATOM      6  N   UNL     1       1.752   6.892  19.573  0.00  0.00    +0.000 N 
ATOM      7  C   UNL     1       1.452   8.127  20.239  0.00  0.00    +0.000 A 
ATOM      8  C   UNL     1       1.168   9.306  19.520  0.00  0.00    +0.000 A 
ATOM      9  C   UNL     1       0.873  10.484  20.209  0.00  0.00    +0.000 A 
ATOM     10  C   UNL     1       0.882  10.497  21.602  0.00  0.00    +0.000 A 
ATOM     11  C   UNL     1       1.171   9.318  22.291  0.00  0.00    +0.000 A 
ATOM     12  N   UNL     1       1.431   8.173  21.603  0.00  0.00    +0.000 NA
ATOM     13  C   UNL     1       1.516   5.609  20.221  0.00  0.00    +0.000 C 
ATOM     14  C   UNL     1       2.830   4.834  20.295  0.00  0.00    +0.000 C 
ENDBRANCH   1   3
BRANCH   1  15
ATOM     15  N   UNL     1       5.187   3.353  17.830  0.00  0.00    +0.000 N 
ATOM     16  H   UNL     1       5.916   2.966  18.422  0.00  0.00    +0.000 HD
BRANCH  15  19
ATOM     17  C   UNL     1       6.283   4.716  14.555  0.00  0.00    +0.000 C 
ATOM     18  C   UNL     1       6.150   4.601  16.052  0.00  0.00    +0.000 C 
ATOM     19  N   UNL     1       5.461   3.589  16.499  0.00  0.00    +0.000 NA
BRANCH  18  20
ATOM     20  C   UNL     1       6.868   5.603  16.931  0.00  0.00    +0.000 A 
ATOM     21  C   UNL     1       7.518   5.205  18.120  0.00  0.00    +0.000 A 
ATOM     22  C   UNL     1       8.166   6.161  18.912  0.00  0.00    +0.000 A 
ATOM     23  C   UNL     1       8.168   7.502  18.530  0.00  0.00    +0.000 A 
ATOM     24  C   UNL     1       7.511   7.870  17.362  0.00  0.00    +0.000 A 
ATOM     25  N   UNL     1       6.887   6.928  16.612  0.00  0.00    +0.000 NA
ENDBRANCH  18  20
ENDBRANCH  15  19
ENDBRANCH   1  15
TORSDOF 4
ENDMDL
MODEL 9
REMARK VINA RESULT:      -6.8      2.461      4.212
REMARK  Name = 
REMARK  5 active torsions:
REMARK  status: ('A' for Active; 'I' for Inactive)
REMARK    1  A    between atoms: C_1  and  C_2
REMARK    2  A    between atoms: C_2  and  C_19
REMARK    3  A    between atoms: N_3  and  N_4
REMARK    4  A    between atoms: N_4  and  C_5
REMARK    5  A    between atoms: C_5  and  N_7
REMARK                            x       y       z     vdW  Elec       q    Type
REMARK                         _______ _______ _______ _____ _____    ______ ____
ROOT
ATOM      1  C   UNL     1       2.527   7.571  19.171  0.00  0.00    +0.000 C 
ATOM      2  S   UNL     1       3.075   7.818  17.853  0.00  0.00    +0.000 S 
ENDROOT
BRANCH   1   3
ATOM      3  N   UNL     1       1.463   8.415  19.700  0.00  0.00    +0.000 N 
ATOM      4  C   UNL     1       0.826   8.182  20.998  0.00  0.00    +0.000 C 
ATOM      5  C   UNL     1       0.900   9.465  21.841  0.00  0.00    +0.000 C 
ATOM      6  N   UNL     1       0.329  10.560  21.066  0.00  0.00    +0.000 N 
ATOM      7  C   UNL     1      -0.797  11.323  21.523  0.00  0.00    +0.000 A 
ATOM      8  C   UNL     1      -1.070  11.492  22.896  0.00  0.00    +0.000 A 
ATOM      9  C   UNL     1      -2.172  12.249  23.295  0.00  0.00    +0.000 A 
ATOM     10  C   UNL     1      -3.011  12.817  22.338  0.00  0.00    +0.000 A 
ATOM     11  C   UNL     1      -2.722  12.632  20.986  0.00  0.00    +0.000 A 
ATOM     12  N   UNL     1      -1.628  11.912  20.615  0.00  0.00    +0.000 NA
ATOM     13  C   UNL     1       0.930  10.808  19.764  0.00  0.00    +0.000 C 
ATOM     14  C   UNL     1       0.881   9.526  18.935  0.00  0.00    +0.000 C 
ENDBRANCH   1   3
BRANCH   1  15
ATOM     15  N   UNL     1       2.920   6.374  19.861  0.00  0.00    +0.000 N 
ATOM     16  H   UNL     1       3.581   6.431  20.631  0.00  0.00    +0.000 HD
BRANCH  15  19
ATOM     17  C   UNL     1       1.940   3.036  18.566  0.00  0.00    +0.000 C 
ATOM     18  C   UNL     1       2.788   4.264  18.778  0.00  0.00    +0.000 C 
ATOM     19  N   UNL     1       2.313   5.166  19.590  0.00  0.00    +0.000 NA
BRANCH  18  20
ATOM     20  C   UNL     1       4.142   4.345  18.105  0.00  0.00    +0.000 A 
ATOM     21  C   UNL     1       4.302   4.045  16.735  0.00  0.00    +0.000 A 
ATOM     22  C   UNL     1       5.570   4.124  16.148  0.00  0.00    +0.000 A 
ATOM     23  C   UNL     1       6.674   4.493  16.915  0.00  0.00    +0.000 A 
ATOM     24  C   UNL     1       6.494   4.770  18.265  0.00  0.00    +0.000 A 
ATOM     25  N   UNL     1       5.256   4.685  18.813  0.00  0.00    +0.000 NA
ENDBRANCH  18  20
ENDBRANCH  15  19
ENDBRANCH   1  15
TORSDOF 4
ENDMDL
