MODEL 1
REMARK VINA RESULT:      -7.5      0.000      0.000
REMARK  Name = 
REMARK  8 active torsions:
REMARK  status: ('A' for Active; 'I' for Inactive)
REMARK    1  A    between atoms: C_2  and  C_3
REMARK    2  A    between atoms: C_3  and  C_4
REMARK    3  A    between atoms: C_4  and  C_5
REMARK    4  A    between atoms: C_5  and  N_6
REMARK    5  A    between atoms: N_6  and  C_7
REMARK    6  A    between atoms: N_6  and  P_13
REMARK    7  A    between atoms: P_13  and  C_15
REMARK    8  A    between atoms: P_13  and  C_21
REMARK                            x       y       z     vdW  Elec       q    Type
REMARK                         _______ _______ _______ _____ _____    ______ ____
ROOT
ATOM      1  P   UNL     1       2.904   6.742  18.911  0.00  0.00    +0.000 P 
ATOM      2  O   UNL     1       2.076   6.991  17.630  0.00  0.00    +0.000 OA
ENDROOT
BRANCH   1   3
ATOM      3  C   UNL     1       2.160   5.122  19.804  0.00  0.00    +0.000 A 
ATOM      4  C   UNL     1       1.118   4.381  19.225  0.00  0.00    +0.000 A 
ATOM      5  C   UNL     1       0.620   3.272  19.904  0.00  0.00    +0.000 A 
ATOM      6  C   UNL     1       1.147   2.901  21.147  0.00  0.00    +0.000 A 
ATOM      7  C   UNL     1       2.184   3.640  21.720  0.00  0.00    +0.000 A 
ATOM      8  C   UNL     1       2.687   4.756  21.058  0.00  0.00    +0.000 A 
ENDBRANCH   1   3
BRANCH   1   9
ATOM      9  C   UNL     1       1.727   7.879  19.730  0.00  0.00    +0.000 A 
ATOM     10  C   UNL     1       1.282   9.035  19.069  0.00  0.00    +0.000 A 
ATOM     11  C   UNL     1       0.432   9.955  19.711  0.00  0.00    +0.000 A 
ATOM     12  C   UNL     1       0.017   9.755  21.023  0.00  0.00    +0.000 A 
ATOM     13  C   UNL     1       0.418   8.613  21.692  0.00  0.00    +0.000 A 
ATOM     14  C   UNL     1       1.238   7.687  21.046  0.00  0.00    +0.000 A 
ENDBRANCH   1   9
BRANCH   1  15
ATOM     15  N   UNL     1       4.049   5.636  18.115  0.00  0.00    +0.000 N 
BRANCH  15  16
ATOM     16  C   UNL     1       5.413   5.877  18.390  0.00  0.00    +0.000 A 
ATOM     17  C   UNL     1       6.259   6.594  17.544  0.00  0.00    +0.000 A 
ATOM     18  C   UNL     1       7.633   6.683  17.810  0.00  0.00    +0.000 A 
ATOM     19  C   UNL     1       8.145   6.042  18.922  0.00  0.00    +0.000 A 
ATOM     20  N   UNL     1       7.377   5.364  19.791  0.00  0.00    +0.000 NA
ATOM     21  C   UNL     1       6.049   5.312  19.509  0.00  0.00    +0.000 A 
ENDBRANCH  15  16
BRANCH  15  22
ATOM     22  C   UNL     1       3.627   4.651  17.118  0.00  0.00    +0.000 C 
BRANCH  22  23
ATOM     23  C   UNL     1       4.354   3.304  17.161  0.00  0.00    +0.000 C 
BRANCH  23  24
ATOM     24  C   UNL     1       3.622   2.229  17.953  0.00  0.00    +0.000 C 
BRANCH  24  26
ATOM     25  N   UNL     1       4.927   1.863  20.381  0.00  0.00    +0.000 NA
ATOM     26  C   UNL     1       4.335   2.029  19.280  0.00  0.00    +0.000 C 
ENDBRANCH  24  26
ENDBRANCH  23  24
ENDBRANCH  22  23
ENDBRANCH  15  22
ENDBRANCH   1  15
TORSDOF 8
ENDMDL
MODEL 2
REMARK VINA RESULT:      -7.4      0.656      1.657
REMARK  Name = 
REMARK  8 active torsions:
REMARK  status: ('A' for Active; 'I' for Inactive)
REMARK    1  A    between atoms: C_2  and  C_3
REMARK    2  A    between atoms: C_3  and  C_4
REMARK    3  A    between atoms: C_4  and  C_5
REMARK    4  A    between atoms: C_5  and  N_6
REMARK    5  A    between atoms: N_6  and  C_7
REMARK    6  A    between atoms: N_6  and  P_13
REMARK    7  A    between atoms: P_13  and  C_15
REMARK    8  A    between atoms: P_13  and  C_21
REMARK                            x       y       z     vdW  Elec       q    Type
REMARK                         _______ _______ _______ _____ _____    ______ ____
ROOT
ATOM      1  P   UNL     1       2.925   6.712  18.850  0.00  0.00    +0.000 P 
ATOM      2  O   UNL     1       2.037   6.939  17.606  0.00  0.00    +0.000 OA
ENDROOT
BRANCH   1   3
ATOM      3  C   UNL     1       2.198   5.135  19.831  0.00  0.00    +0.000 A 
ATOM      4  C   UNL     1       2.721   4.740  21.072  0.00  0.00    +0.000 A 
ATOM      5  C   UNL     1       2.192   3.617  21.702  0.00  0.00    +0.000 A 
ATOM      6  C   UNL     1       1.155   2.888  21.106  0.00  0.00    +0.000 A 
ATOM      7  C   UNL     1       0.635   3.284  19.872  0.00  0.00    +0.000 A 
ATOM      8  C   UNL     1       1.160   4.400  19.226  0.00  0.00    +0.000 A 
ENDBRANCH   1   3
BRANCH   1   9
ATOM      9  C   UNL     1       1.813   7.896  19.693  0.00  0.00    +0.000 A 
ATOM     10  C   UNL     1       1.377   7.649  21.004  0.00  0.00    +0.000 A 
ATOM     11  C   UNL     1       0.467   8.513  21.641  0.00  0.00    +0.000 A 
ATOM     12  C   UNL     1      -0.039   9.632  20.987  0.00  0.00    +0.000 A 
ATOM     13  C   UNL     1       0.391   9.917  19.704  0.00  0.00    +0.000 A 
ATOM     14  C   UNL     1       1.315   9.075  19.083  0.00  0.00    +0.000 A 
ENDBRANCH   1   9
BRANCH   1  15
ATOM     15  N   UNL     1       4.007   5.559  18.033  0.00  0.00    +0.000 N 
BRANCH  15  16
ATOM     16  C   UNL     1       5.385   5.855  18.123  0.00  0.00    +0.000 A 
ATOM     17  C   UNL     1       6.216   5.373  19.135  0.00  0.00    +0.000 A 
ATOM     18  C   UNL     1       7.544   5.811  19.243  0.00  0.00    +0.000 A 
ATOM     19  C   UNL     1       8.021   6.737  18.334  0.00  0.00    +0.000 A 
ATOM     20  N   UNL     1       7.281   7.213  17.318  0.00  0.00    +0.000 NA
ATOM     21  C   UNL     1       6.004   6.753  17.237  0.00  0.00    +0.000 A 
ENDBRANCH  15  16
BRANCH  15  22
ATOM     22  C   UNL     1       3.505   4.474  17.189  0.00  0.00    +0.000 C 
BRANCH  22  23
ATOM     23  C   UNL     1       4.305   3.169  17.234  0.00  0.00    +0.000 C 
BRANCH  23  24
ATOM     24  C   UNL     1       3.654   2.071  18.064  0.00  0.00    +0.000 C 
BRANCH  24  26
ATOM     25  N   UNL     1       5.002   1.860  20.487  0.00  0.00    +0.000 NA
ATOM     26  C   UNL     1       4.390   1.956  19.388  0.00  0.00    +0.000 C 
ENDBRANCH  24  26
ENDBRANCH  23  24
ENDBRANCH  22  23
ENDBRANCH  15  22
ENDBRANCH   1  15
TORSDOF 8
ENDMDL
MODEL 3
REMARK VINA RESULT:      -7.2      1.616      2.349
REMARK  Name = 
REMARK  8 active torsions:
REMARK  status: ('A' for Active; 'I' for Inactive)
REMARK    1  A    between atoms: C_2  and  C_3
REMARK    2  A    between atoms: C_3  and  C_4
REMARK    3  A    between atoms: C_4  and  C_5
REMARK    4  A    between atoms: C_5  and  N_6
REMARK    5  A    between atoms: N_6  and  C_7
REMARK    6  A    between atoms: N_6  and  P_13
REMARK    7  A    between atoms: P_13  and  C_15
REMARK    8  A    between atoms: P_13  and  C_21
REMARK                            x       y       z     vdW  Elec       q    Type
REMARK                         _______ _______ _______ _____ _____    ______ ____
ROOT
ATOM      1  P   UNL     1       3.588   6.579  18.719  0.00  0.00    +0.000 P 
ATOM      2  O   UNL     1       3.494   6.903  17.212  0.00  0.00    +0.000 OA
ENDROOT
BRANCH   1   3
ATOM      3  C   UNL     1       2.328   5.079  19.094  0.00  0.00    +0.000 A 
ATOM      4  C   UNL     1       1.907   4.787  20.400  0.00  0.00    +0.000 A 
ATOM      5  C   UNL     1       1.045   3.713  20.608  0.00  0.00    +0.000 A 
ATOM      6  C   UNL     1       0.606   2.933  19.530  0.00  0.00    +0.000 A 
ATOM      7  C   UNL     1       1.025   3.228  18.232  0.00  0.00    +0.000 A 
ATOM      8  C   UNL     1       1.894   4.292  18.009  0.00  0.00    +0.000 A 
ENDBRANCH   1   3
BRANCH   1   9
ATOM      9  C   UNL     1       2.306   7.866  18.939  0.00  0.00    +0.000 A 
ATOM     10  C   UNL     1       1.858   8.614  17.838  0.00  0.00    +0.000 A 
ATOM     11  C   UNL     1       0.924   9.655  18.001  0.00  0.00    +0.000 A 
ATOM     12  C   UNL     1       0.427   9.984  19.257  0.00  0.00    +0.000 A 
ATOM     13  C   UNL     1       0.829   9.248  20.357  0.00  0.00    +0.000 A 
ATOM     14  C   UNL     1       1.733   8.198  20.192  0.00  0.00    +0.000 A 
ENDBRANCH   1   9
BRANCH   1  15
ATOM     15  N   UNL     1       4.834   5.326  18.507  0.00  0.00    +0.000 N 
BRANCH  15  16
ATOM     16  C   UNL     1       5.417   5.264  17.223  0.00  0.00    +0.000 A 
ATOM     17  C   UNL     1       4.896   4.508  16.171  0.00  0.00    +0.000 A 
ATOM     18  C   UNL     1       5.596   4.383  14.962  0.00  0.00    +0.000 A 
ATOM     19  C   UNL     1       6.818   5.014  14.825  0.00  0.00    +0.000 A 
ATOM     20  N   UNL     1       7.356   5.781  15.788  0.00  0.00    +0.000 NA
ATOM     21  C   UNL     1       6.642   5.891  16.939  0.00  0.00    +0.000 A 
ENDBRANCH  15  16
BRANCH  15  22
ATOM     22  C   UNL     1       5.123   4.323  19.533  0.00  0.00    +0.000 C 
BRANCH  22  23
ATOM     23  C   UNL     1       5.005   2.862  19.091  0.00  0.00    +0.000 C 
BRANCH  23  24
ATOM     24  C   UNL     1       4.201   1.988  20.043  0.00  0.00    +0.000 C 
BRANCH  24  26
ATOM     25  N   UNL     1       5.930   0.893  21.926  0.00  0.00    +0.000 NA
ATOM     26  C   UNL     1       5.146   1.389  21.072  0.00  0.00    +0.000 C 
ENDBRANCH  24  26
ENDBRANCH  23  24
ENDBRANCH  22  23
ENDBRANCH  15  22
ENDBRANCH   1  15
TORSDOF 8
ENDMDL
MODEL 4
REMARK VINA RESULT:      -7.2      1.503      2.249
REMARK  Name = 
REMARK  8 active torsions:
REMARK  status: ('A' for Active; 'I' for Inactive)
REMARK    1  A    between atoms: C_2  and  C_3
REMARK    2  A    between atoms: C_3  and  C_4
REMARK    3  A    between atoms: C_4  and  C_5
REMARK    4  A    between atoms: C_5  and  N_6
REMARK    5  A    between atoms: N_6  and  C_7
REMARK    6  A    between atoms: N_6  and  P_13
REMARK    7  A    between atoms: P_13  and  C_15
REMARK    8  A    between atoms: P_13  and  C_21
REMARK                            x       y       z     vdW  Elec       q    Type
REMARK                         _______ _______ _______ _____ _____    ______ ____
ROOT
ATOM      1  P   UNL     1       3.143   6.670  18.758  0.00  0.00    +0.000 P 
ATOM      2  O   UNL     1       2.379   6.950  17.445  0.00  0.00    +0.000 OA
ENDROOT
BRANCH   1   3
ATOM      3  C   UNL     1       2.359   5.027  19.573  0.00  0.00    +0.000 A 
ATOM      4  C   UNL     1       1.311   4.331  18.951  0.00  0.00    +0.000 A 
ATOM      5  C   UNL     1       0.785   3.203  19.575  0.00  0.00    +0.000 A 
ATOM      6  C   UNL     1       1.291   2.769  20.807  0.00  0.00    +0.000 A 
ATOM      7  C   UNL     1       2.334   3.463  21.422  0.00  0.00    +0.000 A 
ATOM      8  C   UNL     1       2.865   4.597  20.815  0.00  0.00    +0.000 A 
ENDBRANCH   1   3
BRANCH   1   9
ATOM      9  C   UNL     1       1.924   7.784  19.547  0.00  0.00    +0.000 A 
ATOM     10  C   UNL     1       1.434   8.902  18.853  0.00  0.00    +0.000 A 
ATOM     11  C   UNL     1       0.550   9.808  19.470  0.00  0.00    +0.000 A 
ATOM     12  C   UNL     1       0.145   9.631  20.788  0.00  0.00    +0.000 A 
ATOM     13  C   UNL     1       0.590   8.525  21.489  0.00  0.00    +0.000 A 
ATOM     14  C   UNL     1       1.444   7.612  20.869  0.00  0.00    +0.000 A 
ENDBRANCH   1   9
BRANCH   1  15
ATOM     15  N   UNL     1       4.329   5.585  17.993  0.00  0.00    +0.000 N 
BRANCH  15  16
ATOM     16  C   UNL     1       5.682   5.953  18.161  0.00  0.00    +0.000 A 
ATOM     17  C   UNL     1       6.529   5.375  19.107  0.00  0.00    +0.000 A 
ATOM     18  C   UNL     1       7.823   5.877  19.314  0.00  0.00    +0.000 A 
ATOM     19  C   UNL     1       8.248   6.962  18.571  0.00  0.00    +0.000 A 
ATOM     20  N   UNL     1       7.491   7.541  17.623  0.00  0.00    +0.000 NA
ATOM     21  C   UNL     1       6.251   7.017  17.441  0.00  0.00    +0.000 A 
ENDBRANCH  15  16
BRANCH  15  22
ATOM     22  C   UNL     1       3.934   4.484  17.114  0.00  0.00    +0.000 C 
BRANCH  22  23
ATOM     23  C   UNL     1       5.071   3.794  16.356  0.00  0.00    +0.000 C 
BRANCH  23  24
ATOM     24  C   UNL     1       5.216   4.246  14.910  0.00  0.00    +0.000 C 
BRANCH  24  26
ATOM     25  N   UNL     1       7.747   5.346  14.566  0.00  0.00    +0.000 NA
ATOM     26  C   UNL     1       6.600   4.847  14.722  0.00  0.00    +0.000 C 
ENDBRANCH  24  26
ENDBRANCH  23  24
ENDBRANCH  22  23
ENDBRANCH  15  22
ENDBRANCH   1  15
TORSDOF 8
ENDMDL
MODEL 5
REMARK VINA RESULT:      -7.1      1.344      2.427
REMARK  Name = 
REMARK  8 active torsions:
REMARK  status: ('A' for Active; 'I' for Inactive)
REMARK    1  A    between atoms: C_2  and  C_3
REMARK    2  A    between atoms: C_3  and  C_4
REMARK    3  A    between atoms: C_4  and  C_5
REMARK    4  A    between atoms: C_5  and  N_6
REMARK    5  A    between atoms: N_6  and  C_7
REMARK    6  A    between atoms: N_6  and  P_13
REMARK    7  A    between atoms: P_13  and  C_15
REMARK    8  A    between atoms: P_13  and  C_21
REMARK                            x       y       z     vdW  Elec       q    Type
REMARK                         _______ _______ _______ _____ _____    ______ ____
ROOT
ATOM      1  P   UNL     1       3.041   6.840  18.777  0.00  0.00    +0.000 P 
ATOM      2  O   UNL     1       2.270   7.075  17.459  0.00  0.00    +0.000 OA
ENDROOT
BRANCH   1   3
ATOM      3  C   UNL     1       2.268   5.220  19.647  0.00  0.00    +0.000 A 
ATOM      4  C   UNL     1       2.632   4.845  20.949  0.00  0.00    +0.000 A 
ATOM      5  C   UNL     1       2.080   3.691  21.500  0.00  0.00    +0.000 A 
ATOM      6  C   UNL     1       1.177   2.913  20.765  0.00  0.00    +0.000 A 
ATOM      7  C   UNL     1       0.816   3.289  19.470  0.00  0.00    +0.000 A 
ATOM      8  C   UNL     1       1.366   4.435  18.903  0.00  0.00    +0.000 A 
ENDBRANCH   1   3
BRANCH   1   9
ATOM      9  C   UNL     1       1.822   7.974  19.536  0.00  0.00    +0.000 A 
ATOM     10  C   UNL     1       1.383   7.763  20.853  0.00  0.00    +0.000 A 
ATOM     11  C   UNL     1       0.395   8.584  21.428  0.00  0.00    +0.000 A 
ATOM     12  C   UNL     1      -0.188   9.620  20.706  0.00  0.00    +0.000 A 
ATOM     13  C   UNL     1       0.242   9.868  19.415  0.00  0.00    +0.000 A 
ATOM     14  C   UNL     1       1.241   9.072  18.855  0.00  0.00    +0.000 A 
ENDBRANCH   1   9
BRANCH   1  15
ATOM     15  N   UNL     1       4.227   5.736  18.040  0.00  0.00    +0.000 N 
BRANCH  15  16
ATOM     16  C   UNL     1       5.569   5.942  18.430  0.00  0.00    +0.000 A 
ATOM     17  C   UNL     1       6.455   6.776  17.747  0.00  0.00    +0.000 A 
ATOM     18  C   UNL     1       7.809   6.833  18.107  0.00  0.00    +0.000 A 
ATOM     19  C   UNL     1       8.261   6.043  19.147  0.00  0.00    +0.000 A 
ATOM     20  N   UNL     1       7.451   5.244  19.863  0.00  0.00    +0.000 NA
ATOM     21  C   UNL     1       6.143   5.227  19.495  0.00  0.00    +0.000 A 
ENDBRANCH  15  16
BRANCH  15  22
ATOM     22  C   UNL     1       3.869   4.790  16.982  0.00  0.00    +0.000 C 
BRANCH  22  23
ATOM     23  C   UNL     1       5.025   3.971  16.399  0.00  0.00    +0.000 C 
BRANCH  23  24
ATOM     24  C   UNL     1       5.280   4.226  14.921  0.00  0.00    +0.000 C 
BRANCH  24  26
ATOM     25  N   UNL     1       7.778   5.415  14.635  0.00  0.00    +0.000 NA
ATOM     26  C   UNL     1       6.645   4.875  14.765  0.00  0.00    +0.000 C 
ENDBRANCH  24  26
ENDBRANCH  23  24
ENDBRANCH  22  23
ENDBRANCH  15  22
ENDBRANCH   1  15
TORSDOF 8
ENDMDL
MODEL 6
REMARK VINA RESULT:      -7.1      1.330      1.993
REMARK  Name = 
REMARK  8 active torsions:
REMARK  status: ('A' for Active; 'I' for Inactive)
REMARK    1  A    between atoms: C_2  and  C_3
REMARK    2  A    between atoms: C_3  and  C_4
REMARK    3  A    between atoms: C_4  and  C_5
REMARK    4  A    between atoms: C_5  and  N_6
REMARK    5  A    between atoms: N_6  and  C_7
REMARK    6  A    between atoms: N_6  and  P_13
REMARK    7  A    between atoms: P_13  and  C_15
REMARK    8  A    between atoms: P_13  and  C_21
REMARK                            x       y       z     vdW  Elec       q    Type
REMARK                         _______ _______ _______ _____ _____    ______ ____
ROOT
ATOM      1  P   UNL     1       3.058   6.679  18.885  0.00  0.00    +0.000 P 
ATOM      2  O   UNL     1       2.321   6.903  17.546  0.00  0.00    +0.000 OA
ENDROOT
BRANCH   1   3
ATOM      3  C   UNL     1       2.281   5.052  19.737  0.00  0.00    +0.000 A 
ATOM      4  C   UNL     1       1.251   4.326  19.121  0.00  0.00    +0.000 A 
ATOM      5  C   UNL     1       0.728   3.211  19.772  0.00  0.00    +0.000 A 
ATOM      6  C   UNL     1       1.220   2.821  21.024  0.00  0.00    +0.000 A 
ATOM      7  C   UNL     1       2.246   3.545  21.633  0.00  0.00    +0.000 A 
ATOM      8  C   UNL     1       2.773   4.667  21.000  0.00  0.00    +0.000 A 
ENDBRANCH   1   3
BRANCH   1   9
ATOM      9  C   UNL     1       1.805   7.800  19.607  0.00  0.00    +0.000 A 
ATOM     10  C   UNL     1       1.356   8.918  18.887  0.00  0.00    +0.000 A 
ATOM     11  C   UNL     1       0.445   9.829  19.455  0.00  0.00    +0.000 A 
ATOM     12  C   UNL     1      -0.029   9.656  20.752  0.00  0.00    +0.000 A 
ATOM     13  C   UNL     1       0.375   8.550  21.477  0.00  0.00    +0.000 A 
ATOM     14  C   UNL     1       1.256   7.633  20.904  0.00  0.00    +0.000 A 
ENDBRANCH   1   9
BRANCH   1  15
ATOM     15  N   UNL     1       4.278   5.589  18.184  0.00  0.00    +0.000 N 
BRANCH  15  16
ATOM     16  C   UNL     1       5.622   5.950  18.424  0.00  0.00    +0.000 A 
ATOM     17  C   UNL     1       6.311   6.909  17.679  0.00  0.00    +0.000 A 
ATOM     18  C   UNL     1       7.682   7.126  17.881  0.00  0.00    +0.000 A 
ATOM     19  C   UNL     1       8.349   6.369  18.826  0.00  0.00    +0.000 A 
ATOM     20  N   UNL     1       7.735   5.455  19.596  0.00  0.00    +0.000 NA
ATOM     21  C   UNL     1       6.404   5.284  19.383  0.00  0.00    +0.000 A 
ENDBRANCH  15  16
BRANCH  15  22
ATOM     22  C   UNL     1       3.925   4.488  17.286  0.00  0.00    +0.000 C 
BRANCH  22  23
ATOM     23  C   UNL     1       4.538   4.547  15.885  0.00  0.00    +0.000 C 
BRANCH  23  24
ATOM     24  C   UNL     1       5.831   3.757  15.741  0.00  0.00    +0.000 C 
BRANCH  24  26
ATOM     25  N   UNL     1       7.707   5.343  14.437  0.00  0.00    +0.000 NA
ATOM     26  C   UNL     1       6.857   4.623  15.028  0.00  0.00    +0.000 C 
ENDBRANCH  24  26
ENDBRANCH  23  24
ENDBRANCH  22  23
ENDBRANCH  15  22
ENDBRANCH   1  15
TORSDOF 8
ENDMDL
MODEL 7
REMARK VINA RESULT:      -6.7      1.695      2.554
REMARK  Name = 
REMARK  8 active torsions:
REMARK  status: ('A' for Active; 'I' for Inactive)
REMARK    1  A    between atoms: C_2  and  C_3
REMARK    2  A    between atoms: C_3  and  C_4
REMARK    3  A    between atoms: C_4  and  C_5
REMARK    4  A    between atoms: C_5  and  N_6
REMARK    5  A    between atoms: N_6  and  C_7
REMARK    6  A    between atoms: N_6  and  P_13
REMARK    7  A    between atoms: P_13  and  C_15
REMARK    8  A    between atoms: P_13  and  C_21
REMARK                            x       y       z     vdW  Elec       q    Type
REMARK                         _______ _______ _______ _____ _____    ______ ____
ROOT
ATOM      1  P   UNL     1       3.688   6.352  18.481  0.00  0.00    +0.000 P 
ATOM      2  O   UNL     1       3.474   6.652  16.981  0.00  0.00    +0.000 OA
ENDROOT
BRANCH   1   3
ATOM      3  C   UNL     1       2.363   4.959  19.013  0.00  0.00    +0.000 A 
ATOM      4  C   UNL     1       2.118   4.660  20.362  0.00  0.00    +0.000 A 
ATOM      5  C   UNL     1       1.200   3.662  20.677  0.00  0.00    +0.000 A 
ATOM      6  C   UNL     1       0.531   2.964  19.663  0.00  0.00    +0.000 A 
ATOM      7  C   UNL     1       0.776   3.265  18.322  0.00  0.00    +0.000 A 
ATOM      8  C   UNL     1       1.698   4.254  17.991  0.00  0.00    +0.000 A 
ENDBRANCH   1   3
BRANCH   1   9
ATOM      9  C   UNL     1       2.532   7.737  18.785  0.00  0.00    +0.000 A 
ATOM     10  C   UNL     1       1.918   7.884  20.039  0.00  0.00    +0.000 A 
ATOM     11  C   UNL     1       0.973   8.902  20.268  0.00  0.00    +0.000 A 
ATOM     12  C   UNL     1       0.609   9.785  19.257  0.00  0.00    +0.000 A 
ATOM     13  C   UNL     1       1.216   9.682  18.019  0.00  0.00    +0.000 A 
ATOM     14  C   UNL     1       2.173   8.690  17.800  0.00  0.00    +0.000 A 
ENDBRANCH   1   9
BRANCH   1  15
ATOM     15  N   UNL     1       4.813   5.003  18.187  0.00  0.00    +0.000 N 
BRANCH  15  16
ATOM     16  C   UNL     1       5.457   5.016  16.930  0.00  0.00    +0.000 A 
ATOM     17  C   UNL     1       5.053   4.237  15.845  0.00  0.00    +0.000 A 
ATOM     18  C   UNL     1       5.814   4.196  14.668  0.00  0.00    +0.000 A 
ATOM     19  C   UNL     1       6.981   4.933  14.596  0.00  0.00    +0.000 A 
ATOM     20  N   UNL     1       7.405   5.727  15.594  0.00  0.00    +0.000 NA
ATOM     21  C   UNL     1       6.633   5.754  16.712  0.00  0.00    +0.000 A 
ENDBRANCH  15  16
BRANCH  15  22
ATOM     22  C   UNL     1       4.943   3.873  19.107  0.00  0.00    +0.000 C 
BRANCH  22  23
ATOM     23  C   UNL     1       4.600   2.498  18.528  0.00  0.00    +0.000 C 
BRANCH  23  24
ATOM     24  C   UNL     1       3.982   1.538  19.535  0.00  0.00    +0.000 C 
BRANCH  24  26
ATOM     25  N   UNL     1       5.677   1.327  21.730  0.00  0.00    +0.000 NA
ATOM     26  C   UNL     1       4.909   1.423  20.734  0.00  0.00    +0.000 C 
ENDBRANCH  24  26
ENDBRANCH  23  24
ENDBRANCH  22  23
ENDBRANCH  15  22
ENDBRANCH   1  15
TORSDOF 8
ENDMDL
MODEL 8
REMARK VINA RESULT:      -6.7      1.619      2.393
REMARK  Name = 
REMARK  8 active torsions:
REMARK  status: ('A' for Active; 'I' for Inactive)
REMARK    1  A    between atoms: C_2  and  C_3
REMARK    2  A    between atoms: C_3  and  C_4
REMARK    3  A    between atoms: C_4  and  C_5
REMARK    4  A    between atoms: C_5  and  N_6
REMARK    5  A    between atoms: N_6  and  C_7
REMARK    6  A    between atoms: N_6  and  P_13
REMARK    7  A    between atoms: P_13  and  C_15
REMARK    8  A    between atoms: P_13  and  C_21
REMARK                            x       y       z     vdW  Elec       q    Type
REMARK                         _______ _______ _______ _____ _____    ______ ____
ROOT
ATOM      1  P   UNL     1       3.133   6.806  18.698  0.00  0.00    +0.000 P 
ATOM      2  O   UNL     1       2.412   7.080  17.359  0.00  0.00    +0.000 OA
ENDROOT
BRANCH   1   3
ATOM      3  C   UNL     1       2.348   5.146  19.477  0.00  0.00    +0.000 A 
ATOM      4  C   UNL     1       2.676   4.722  20.773  0.00  0.00    +0.000 A 
ATOM      5  C   UNL     1       2.118   3.542  21.259  0.00  0.00    +0.000 A 
ATOM      6  C   UNL     1       1.244   2.787  20.465  0.00  0.00    +0.000 A 
ATOM      7  C   UNL     1       0.920   3.214  19.176  0.00  0.00    +0.000 A 
ATOM      8  C   UNL     1       1.476   4.386  18.674  0.00  0.00    +0.000 A 
ENDBRANCH   1   3
BRANCH   1   9
ATOM      9  C   UNL     1       1.868   7.896  19.447  0.00  0.00    +0.000 A 
ATOM     10  C   UNL     1       1.359   8.989  18.727  0.00  0.00    +0.000 A 
ATOM     11  C   UNL     1       0.438   9.878  19.314  0.00  0.00    +0.000 A 
ATOM     12  C   UNL     1       0.015   9.709  20.628  0.00  0.00    +0.000 A 
ATOM     13  C   UNL     1       0.479   8.627  21.354  0.00  0.00    +0.000 A 
ATOM     14  C   UNL     1       1.370   7.731  20.763  0.00  0.00    +0.000 A 
ENDBRANCH   1   9
BRANCH   1  15
ATOM     15  N   UNL     1       4.363   5.745  17.970  0.00  0.00    +0.000 N 
BRANCH  15  16
ATOM     16  C   UNL     1       5.683   5.944  18.432  0.00  0.00    +0.000 A 
ATOM     17  C   UNL     1       6.599   6.797  17.815  0.00  0.00    +0.000 A 
ATOM     18  C   UNL     1       7.934   6.848  18.244  0.00  0.00    +0.000 A 
ATOM     19  C   UNL     1       8.336   6.033  19.285  0.00  0.00    +0.000 A 
ATOM     20  N   UNL     1       7.494   5.215  19.940  0.00  0.00    +0.000 NA
ATOM     21  C   UNL     1       6.206   5.205  19.507  0.00  0.00    +0.000 A 
ENDBRANCH  15  16
BRANCH  15  22
ATOM     22  C   UNL     1       4.064   4.843  16.857  0.00  0.00    +0.000 C 
BRANCH  22  23
ATOM     23  C   UNL     1       4.927   5.020  15.605  0.00  0.00    +0.000 C 
BRANCH  23  24
ATOM     24  C   UNL     1       5.928   3.896  15.377  0.00  0.00    +0.000 C 
BRANCH  24  26
ATOM     25  N   UNL     1       6.412   3.668  12.648  0.00  0.00    +0.000 NA
ATOM     26  C   UNL     1       6.193   3.771  13.886  0.00  0.00    +0.000 C 
ENDBRANCH  24  26
ENDBRANCH  23  24
ENDBRANCH  22  23
ENDBRANCH  15  22
ENDBRANCH   1  15
TORSDOF 8
ENDMDL
MODEL 9
REMARK VINA RESULT:      -6.7      2.136      5.660
REMARK  Name = 
REMARK  8 active torsions:
REMARK  status: ('A' for Active; 'I' for Inactive)
REMARK    1  A    between atoms: C_2  and  C_3
REMARK    2  A    between atoms: C_3  and  C_4
REMARK    3  A    between atoms: C_4  and  C_5
REMARK    4  A    between atoms: C_5  and  N_6
REMARK    5  A    between atoms: N_6  and  C_7
REMARK    6  A    between atoms: N_6  and  P_13
REMARK    7  A    between atoms: P_13  and  C_15
REMARK    8  A    between atoms: P_13  and  C_21
REMARK                            x       y       z     vdW  Elec       q    Type
REMARK                         _______ _______ _______ _____ _____    ______ ____
ROOT
ATOM      1  P   UNL     1       4.131   5.944  17.735  0.00  0.00    +0.000 P 
ATOM      2  O   UNL     1       5.374   6.285  18.586  0.00  0.00    +0.000 OA
ENDROOT
BRANCH   1   3
ATOM      3  C   UNL     1       3.664   4.037  18.087  0.00  0.00    +0.000 A 
ATOM      4  C   UNL     1       4.484   3.217  18.877  0.00  0.00    +0.000 A 
ATOM      5  C   UNL     1       4.123   1.886  19.071  0.00  0.00    +0.000 A 
ATOM      6  C   UNL     1       2.960   1.371  18.485  0.00  0.00    +0.000 A 
ATOM      7  C   UNL     1       2.146   2.190  17.701  0.00  0.00    +0.000 A 
ATOM      8  C   UNL     1       2.498   3.520  17.490  0.00  0.00    +0.000 A 
ENDBRANCH   1   3
BRANCH   1   9
ATOM      9  C   UNL     1       5.321   5.529  16.407  0.00  0.00    +0.000 A 
ATOM     10  C   UNL     1       4.909   4.773  15.298  0.00  0.00    +0.000 A 
ATOM     11  C   UNL     1       5.827   4.387  14.303  0.00  0.00    +0.000 A 
ATOM     12  C   UNL     1       7.172   4.730  14.394  0.00  0.00    +0.000 A 
ATOM     13  C   UNL     1       7.603   5.496  15.462  0.00  0.00    +0.000 A 
ATOM     14  C   UNL     1       6.688   5.903  16.433  0.00  0.00    +0.000 A 
ENDBRANCH   1   9
BRANCH   1  15
ATOM     15  N   UNL     1       2.973   6.345  19.025  0.00  0.00    +0.000 N 
BRANCH  15  16
ATOM     16  C   UNL     1       2.331   7.597  18.894  0.00  0.00    +0.000 A 
ATOM     17  C   UNL     1       2.346   8.356  17.723  0.00  0.00    +0.000 A 
ATOM     18  C   UNL     1       1.803   9.649  17.699  0.00  0.00    +0.000 A 
ATOM     19  C   UNL     1       1.258  10.170  18.857  0.00  0.00    +0.000 A 
ATOM     20  N   UNL     1       1.186   9.477  20.007  0.00  0.00    +0.000 NA
ATOM     21  C   UNL     1       1.707   8.222  19.987  0.00  0.00    +0.000 A 
ENDBRANCH  15  16
BRANCH  15  22
ATOM     22  C   UNL     1       2.813   5.520  20.223  0.00  0.00    +0.000 C 
BRANCH  22  23
ATOM     23  C   UNL     1       1.372   5.290  20.688  0.00  0.00    +0.000 C 
BRANCH  23  24
ATOM     24  C   UNL     1       0.914   3.841  20.592  0.00  0.00    +0.000 C 
BRANCH  24  26
ATOM     25  N   UNL     1       2.526   2.281  22.236  0.00  0.00    +0.000 NA
ATOM     26  C   UNL     1       1.795   2.989  21.491  0.00  0.00    +0.000 C 
ENDBRANCH  24  26
ENDBRANCH  23  24
ENDBRANCH  22  23
ENDBRANCH  15  22
ENDBRANCH   1  15
TORSDOF 8
ENDMDL
