MODEL 1
REMARK VINA RESULT:      -7.0      0.000      0.000
REMARK  Name = 
REMARK  9 active torsions:
REMARK  status: ('A' for Active; 'I' for Inactive)
REMARK    1  A    between atoms: C_1  and  C_2
REMARK    2  A    between atoms: C_2  and  N_3
REMARK    3  A    between atoms: C_7  and  S_8
REMARK    4  A    between atoms: S_8  and  C_9
REMARK    5  A    between atoms: C_9  and  C_10
REMARK    6  A    between atoms: C_10  and  C_12
REMARK    7  A    between atoms: C_14  and  C_15
REMARK    8  A    between atoms: N_16  and  C_17
REMARK    9  A    between atoms: C_20  and  C_21
REMARK                            x       y       z     vdW  Elec       q    Type
REMARK                         _______ _______ _______ _____ _____    ______ ____
ROOT
ATOM      1  C   UNL     1       3.148   4.837  18.100  0.00  0.00    +0.000 C 
ATOM      2  O   UNL     1       2.469   4.107  17.374  0.00  0.00    +0.000 OA
ENDROOT
BRANCH   1   3
ATOM      3  C   UNL     1       2.664   6.186  18.462  0.00  0.00    +0.000 A 
ATOM      4  C   UNL     1       2.709   7.375  17.689  0.00  0.00    +0.000 A 
ATOM      5  C   UNL     1       2.147   8.398  18.428  0.00  0.00    +0.000 A 
ATOM      6  C   UNL     1       1.957   9.823  18.029  0.00  0.00    +0.000 C 
ATOM      7  N   UNL     1       1.791   7.881  19.662  0.00  0.00    +0.000 N 
ATOM      8  C   UNL     1       2.055   6.521  19.681  0.00  0.00    +0.000 A 
ATOM      9  C   UNL     1       1.770   5.568  20.796  0.00  0.00    +0.000 C 
BRANCH   7  10
ATOM     10  C   UNL     1       1.299   8.750  20.731  0.00  0.00    +0.000 C 
ATOM     11  C   UNL     1       0.105   9.676  20.660  0.00  0.00    +0.000 C 
ATOM     12  C   UNL     1       0.024   8.440  21.492  0.00  0.00    +0.000 C 
ENDBRANCH   7  10
ENDBRANCH   1   3
BRANCH   1  13
ATOM     13  C   UNL     1       4.499   4.384  18.650  0.00  0.00    +0.000 C 
BRANCH  13  14
ATOM     14  S   UNL     1       5.722   4.197  17.309  0.00  0.00    +0.000 S 
BRANCH  14  19
ATOM     15  N   UNL     1       8.774   8.419  18.760  0.00  0.00    +0.000 N 
ATOM     16  C   UNL     1       7.986   7.521  18.117  0.00  0.00    +0.000 A 
ATOM     17  N   UNL     1       7.389   7.703  16.956  0.00  0.00    +0.000 NA
ATOM     18  N   UNL     1       6.609   6.629  16.577  0.00  0.00    +0.000 NA
ATOM     19  C   UNL     1       6.641   5.668  17.469  0.00  0.00    +0.000 A 
ATOM     20  S   UNL     1       7.647   5.986  18.820  0.00  0.00    +0.000 S 
ATOM     21  H   UNL     1       8.968   8.220  19.736  0.00  0.00    +0.000 HD
BRANCH  15  23
ATOM     22  C   UNL     1       9.635  10.676  19.108  0.00  0.00    +0.000 C 
ATOM     23  C   UNL     1       8.562   9.824  18.449  0.00  0.00    +0.000 C 
ENDBRANCH  15  23
ENDBRANCH  14  19
ENDBRANCH  13  14
ENDBRANCH   1  13
TORSDOF 6
ENDMDL
MODEL 2
REMARK VINA RESULT:      -6.6      2.478      3.977
REMARK  Name = 
REMARK  9 active torsions:
REMARK  status: ('A' for Active; 'I' for Inactive)
REMARK    1  A    between atoms: C_1  and  C_2
REMARK    2  A    between atoms: C_2  and  N_3
REMARK    3  A    between atoms: C_7  and  S_8
REMARK    4  A    between atoms: S_8  and  C_9
REMARK    5  A    between atoms: C_9  and  C_10
REMARK    6  A    between atoms: C_10  and  C_12
REMARK    7  A    between atoms: C_14  and  C_15
REMARK    8  A    between atoms: N_16  and  C_17
REMARK    9  A    between atoms: C_20  and  C_21
REMARK                            x       y       z     vdW  Elec       q    Type
REMARK                         _______ _______ _______ _____ _____    ______ ____
ROOT
ATOM      1  C   UNL     1       3.519   4.359  18.316  0.00  0.00    +0.000 C 
ATOM      2  O   UNL     1       2.790   3.497  17.817  0.00  0.00    +0.000 OA
ENDROOT
BRANCH   1   3
ATOM      3  C   UNL     1       2.987   5.706  18.607  0.00  0.00    +0.000 A 
ATOM      4  C   UNL     1       2.974   6.849  17.766  0.00  0.00    +0.000 A 
ATOM      5  C   UNL     1       2.383   7.891  18.454  0.00  0.00    +0.000 A 
ATOM      6  C   UNL     1       2.131   9.282  17.977  0.00  0.00    +0.000 C 
ATOM      7  N   UNL     1       2.064   7.433  19.721  0.00  0.00    +0.000 N 
ATOM      8  C   UNL     1       2.381   6.088  19.813  0.00  0.00    +0.000 A 
ATOM      9  C   UNL     1       2.149   5.190  20.986  0.00  0.00    +0.000 C 
BRANCH   7  10
ATOM     10  C   UNL     1       1.552   8.343  20.746  0.00  0.00    +0.000 C 
ATOM     11  C   UNL     1       0.467   9.382  20.566  0.00  0.00    +0.000 C 
ATOM     12  C   UNL     1       0.182   8.158  21.370  0.00  0.00    +0.000 C 
ENDBRANCH   7  10
ENDBRANCH   1   3
BRANCH   1  13
ATOM     13  C   UNL     1       4.981   4.073  18.651  0.00  0.00    +0.000 C 
BRANCH  13  14
ATOM     14  S   UNL     1       6.049   5.473  18.171  0.00  0.00    +0.000 S 
BRANCH  14  19
ATOM     15  N   UNL     1       6.091   3.770  13.039  0.00  0.00    +0.000 N 
ATOM     16  C   UNL     1       6.309   4.400  14.221  0.00  0.00    +0.000 A 
ATOM     17  N   UNL     1       7.288   5.243  14.483  0.00  0.00    +0.000 NA
ATOM     18  N   UNL     1       7.284   5.684  15.791  0.00  0.00    +0.000 NA
ATOM     19  C   UNL     1       6.298   5.155  16.477  0.00  0.00    +0.000 A 
ATOM     20  S   UNL     1       5.286   4.108  15.575  0.00  0.00    +0.000 S 
ATOM     21  H   UNL     1       5.444   2.989  13.065  0.00  0.00    +0.000 HD
BRANCH  15  23
ATOM     22  C   UNL     1       7.072   2.329  11.330  0.00  0.00    +0.000 C 
ATOM     23  C   UNL     1       7.241   3.587  12.167  0.00  0.00    +0.000 C 
ENDBRANCH  15  23
ENDBRANCH  14  19
ENDBRANCH  13  14
ENDBRANCH   1  13
TORSDOF 6
ENDMDL
MODEL 3
REMARK VINA RESULT:      -6.4      4.671      8.294
REMARK  Name = 
REMARK  9 active torsions:
REMARK  status: ('A' for Active; 'I' for Inactive)
REMARK    1  A    between atoms: C_1  and  C_2
REMARK    2  A    between atoms: C_2  and  N_3
REMARK    3  A    between atoms: C_7  and  S_8
REMARK    4  A    between atoms: S_8  and  C_9
REMARK    5  A    between atoms: C_9  and  C_10
REMARK    6  A    between atoms: C_10  and  C_12
REMARK    7  A    between atoms: C_14  and  C_15
REMARK    8  A    between atoms: N_16  and  C_17
REMARK    9  A    between atoms: C_20  and  C_21
REMARK                            x       y       z     vdW  Elec       q    Type
REMARK                         _______ _______ _______ _____ _____    ______ ____
ROOT
ATOM      1  C   UNL     1       1.972   7.987  19.317  0.00  0.00    +0.000 C 
ATOM      2  O   UNL     1       1.840   8.148  20.533  0.00  0.00    +0.000 OA
ENDROOT
BRANCH   1   3
ATOM      3  C   UNL     1       2.657   6.785  18.795  0.00  0.00    +0.000 A 
ATOM      4  C   UNL     1       3.572   6.693  17.714  0.00  0.00    +0.000 A 
ATOM      5  C   UNL     1       3.954   5.373  17.577  0.00  0.00    +0.000 A 
ATOM      6  C   UNL     1       4.912   4.791  16.592  0.00  0.00    +0.000 C 
ATOM      7  N   UNL     1       3.265   4.634  18.522  0.00  0.00    +0.000 N 
ATOM      8  C   UNL     1       2.506   5.488  19.305  0.00  0.00    +0.000 A 
ATOM      9  C   UNL     1       1.655   5.114  20.476  0.00  0.00    +0.000 C 
BRANCH   7  10
ATOM     10  C   UNL     1       3.341   3.172  18.541  0.00  0.00    +0.000 C 
ATOM     11  C   UNL     1       2.359   2.230  19.200  0.00  0.00    +0.000 C 
ATOM     12  C   UNL     1       2.409   2.311  17.711  0.00  0.00    +0.000 C 
ENDBRANCH   7  10
ENDBRANCH   1   3
BRANCH   1  13
ATOM     13  C   UNL     1       1.439   9.006  18.313  0.00  0.00    +0.000 C 
BRANCH  13  14
ATOM     14  S   UNL     1       0.933  10.547  19.152  0.00  0.00    +0.000 S 
BRANCH  14  19
ATOM     15  N   UNL     1      -4.109  12.010  17.858  0.00  0.00    +0.000 N 
ATOM     16  C   UNL     1      -2.875  11.448  17.927  0.00  0.00    +0.000 A 
ATOM     17  N   UNL     1      -2.453  10.413  17.228  0.00  0.00    +0.000 NA
ATOM     18  N   UNL     1      -1.167  10.034  17.551  0.00  0.00    +0.000 NA
ATOM     19  C   UNL     1      -0.658  10.797  18.488  0.00  0.00    +0.000 A 
ATOM     20  S   UNL     1      -1.694  12.052  19.024  0.00  0.00    +0.000 S 
ATOM     21  H   UNL     1      -4.350  12.644  18.613  0.00  0.00    +0.000 HD
BRANCH  15  23
ATOM     22  C   UNL     1      -6.502  11.573  18.056  0.00  0.00    +0.000 C 
ATOM     23  C   UNL     1      -5.196  11.161  17.397  0.00  0.00    +0.000 C 
ENDBRANCH  15  23
ENDBRANCH  14  19
ENDBRANCH  13  14
ENDBRANCH   1  13
TORSDOF 6
ENDMDL
MODEL 4
REMARK VINA RESULT:      -6.3      0.787      1.951
REMARK  Name = 
REMARK  9 active torsions:
REMARK  status: ('A' for Active; 'I' for Inactive)
REMARK    1  A    between atoms: C_1  and  C_2
REMARK    2  A    between atoms: C_2  and  N_3
REMARK    3  A    between atoms: C_7  and  S_8
REMARK    4  A    between atoms: S_8  and  C_9
REMARK    5  A    between atoms: C_9  and  C_10
REMARK    6  A    between atoms: C_10  and  C_12
REMARK    7  A    between atoms: C_14  and  C_15
REMARK    8  A    between atoms: N_16  and  C_17
REMARK    9  A    between atoms: C_20  and  C_21
REMARK                            x       y       z     vdW  Elec       q    Type
REMARK                         _______ _______ _______ _____ _____    ______ ____
ROOT
ATOM      1  C   UNL     1       3.037   5.066  18.666  0.00  0.00    +0.000 C 
ATOM      2  O   UNL     1       2.422   4.455  17.787  0.00  0.00    +0.000 OA
ENDROOT
BRANCH   1   3
ATOM      3  C   UNL     1       2.437   6.257  19.303  0.00  0.00    +0.000 A 
ATOM      4  C   UNL     1       1.798   6.352  20.566  0.00  0.00    +0.000 A 
ATOM      5  C   UNL     1       1.385   7.657  20.749  0.00  0.00    +0.000 A 
ATOM      6  C   UNL     1       0.684   8.243  21.930  0.00  0.00    +0.000 C 
ATOM      7  N   UNL     1       1.715   8.369  19.609  0.00  0.00    +0.000 N 
ATOM      8  C   UNL     1       2.401   7.540  18.737  0.00  0.00    +0.000 A 
ATOM      9  C   UNL     1       2.988   7.918  17.415  0.00  0.00    +0.000 C 
BRANCH   7  10
ATOM     10  C   UNL     1       1.280   9.754  19.430  0.00  0.00    +0.000 C 
ATOM     11  C   UNL     1       1.572  10.642  18.241  0.00  0.00    +0.000 C 
ATOM     12  C   UNL     1       0.186  10.130  18.449  0.00  0.00    +0.000 C 
ENDBRANCH   7  10
ENDBRANCH   1   3
BRANCH   1  13
ATOM     13  C   UNL     1       4.422   4.621  19.128  0.00  0.00    +0.000 C 
BRANCH  13  14
ATOM     14  S   UNL     1       5.529   4.343  17.703  0.00  0.00    +0.000 S 
BRANCH  14  19
ATOM     15  N   UNL     1       8.766   8.564  18.675  0.00  0.00    +0.000 N 
ATOM     16  C   UNL     1       7.908   7.655  18.148  0.00  0.00    +0.000 A 
ATOM     17  N   UNL     1       7.205   7.799  17.042  0.00  0.00    +0.000 NA
ATOM     18  N   UNL     1       6.377   6.725  16.786  0.00  0.00    +0.000 NA
ATOM     19  C   UNL     1       6.480   5.802  17.712  0.00  0.00    +0.000 A 
ATOM     20  S   UNL     1       7.614   6.157  18.947  0.00  0.00    +0.000 S 
ATOM     21  H   UNL     1       9.050   8.403  19.636  0.00  0.00    +0.000 HD
BRANCH  15  23
ATOM     22  C   UNL     1       9.875  10.688  18.208  0.00  0.00    +0.000 C 
ATOM     23  C   UNL     1       8.547   9.959  18.325  0.00  0.00    +0.000 C 
ENDBRANCH  15  23
ENDBRANCH  14  19
ENDBRANCH  13  14
ENDBRANCH   1  13
TORSDOF 6
ENDMDL
MODEL 5
REMARK VINA RESULT:      -6.2      2.873      3.711
REMARK  Name = 
REMARK  9 active torsions:
REMARK  status: ('A' for Active; 'I' for Inactive)
REMARK    1  A    between atoms: C_1  and  C_2
REMARK    2  A    between atoms: C_2  and  N_3
REMARK    3  A    between atoms: C_7  and  S_8
REMARK    4  A    between atoms: S_8  and  C_9
REMARK    5  A    between atoms: C_9  and  C_10
REMARK    6  A    between atoms: C_10  and  C_12
REMARK    7  A    between atoms: C_14  and  C_15
REMARK    8  A    between atoms: N_16  and  C_17
REMARK    9  A    between atoms: C_20  and  C_21
REMARK                            x       y       z     vdW  Elec       q    Type
REMARK                         _______ _______ _______ _____ _____    ______ ____
ROOT
ATOM      1  C   UNL     1       2.737   5.901  19.191  0.00  0.00    +0.000 C 
ATOM      2  O   UNL     1       2.129   5.144  18.428  0.00  0.00    +0.000 OA
ENDROOT
BRANCH   1   3
ATOM      3  C   UNL     1       2.050   7.067  19.785  0.00  0.00    +0.000 A 
ATOM      4  C   UNL     1       1.462   7.183  21.071  0.00  0.00    +0.000 A 
ATOM      5  C   UNL     1       0.930   8.451  21.195  0.00  0.00    +0.000 A 
ATOM      6  C   UNL     1       0.227   9.041  22.372  0.00  0.00    +0.000 C 
ATOM      7  N   UNL     1       1.136   9.115  19.999  0.00  0.00    +0.000 N 
ATOM      8  C   UNL     1       1.862   8.301  19.145  0.00  0.00    +0.000 A 
ATOM      9  C   UNL     1       2.350   8.647  17.775  0.00  0.00    +0.000 C 
BRANCH   7  10
ATOM     10  C   UNL     1       0.558  10.438  19.759  0.00  0.00    +0.000 C 
ATOM     11  C   UNL     1       0.486  11.160  18.433  0.00  0.00    +0.000 C 
ATOM     12  C   UNL     1      -0.764  10.615  19.036  0.00  0.00    +0.000 C 
ENDBRANCH   7  10
ENDBRANCH   1   3
BRANCH   1  13
ATOM     13  C   UNL     1       4.201   5.665  19.552  0.00  0.00    +0.000 C 
BRANCH  13  14
ATOM     14  S   UNL     1       4.685   3.935  19.227  0.00  0.00    +0.000 S 
BRANCH  14  19
ATOM     15  N   UNL     1       7.725   5.071  14.902  0.00  0.00    +0.000 N 
ATOM     16  C   UNL     1       6.814   4.585  15.782  0.00  0.00    +0.000 A 
ATOM     17  N   UNL     1       5.779   3.824  15.488  0.00  0.00    +0.000 NA
ATOM     18  N   UNL     1       4.998   3.529  16.587  0.00  0.00    +0.000 NA
ATOM     19  C   UNL     1       5.471   4.079  17.679  0.00  0.00    +0.000 A 
ATOM     20  S   UNL     1       6.916   4.971  17.458  0.00  0.00    +0.000 S 
ATOM     21  H   UNL     1       8.320   5.817  15.246  0.00  0.00    +0.000 HD
BRANCH  15  23
ATOM     22  C   UNL     1       8.419   5.796  12.677  0.00  0.00    +0.000 C 
ATOM     23  C   UNL     1       7.296   5.215  13.519  0.00  0.00    +0.000 C 
ENDBRANCH  15  23
ENDBRANCH  14  19
ENDBRANCH  13  14
ENDBRANCH   1  13
TORSDOF 6
ENDMDL
MODEL 6
REMARK VINA RESULT:      -6.1      2.444      4.280
REMARK  Name = 
REMARK  9 active torsions:
REMARK  status: ('A' for Active; 'I' for Inactive)
REMARK    1  A    between atoms: C_1  and  C_2
REMARK    2  A    between atoms: C_2  and  N_3
REMARK    3  A    between atoms: C_7  and  S_8
REMARK    4  A    between atoms: S_8  and  C_9
REMARK    5  A    between atoms: C_9  and  C_10
REMARK    6  A    between atoms: C_10  and  C_12
REMARK    7  A    between atoms: C_14  and  C_15
REMARK    8  A    between atoms: N_16  and  C_17
REMARK    9  A    between atoms: C_20  and  C_21
REMARK                            x       y       z     vdW  Elec       q    Type
REMARK                         _______ _______ _______ _____ _____    ______ ____
ROOT
ATOM      1  C   UNL     1       3.381   4.852  18.530  0.00  0.00    +0.000 C 
ATOM      2  O   UNL     1       2.845   4.252  17.593  0.00  0.00    +0.000 OA
ENDROOT
BRANCH   1   3
ATOM      3  C   UNL     1       2.721   6.027  19.135  0.00  0.00    +0.000 A 
ATOM      4  C   UNL     1       2.027   6.108  20.370  0.00  0.00    +0.000 A 
ATOM      5  C   UNL     1       1.569   7.401  20.530  0.00  0.00    +0.000 A 
ATOM      6  C   UNL     1       0.802   7.970  21.676  0.00  0.00    +0.000 C 
ATOM      7  N   UNL     1       1.927   8.118  19.401  0.00  0.00    +0.000 N 
ATOM      8  C   UNL     1       2.673   7.307  18.563  0.00  0.00    +0.000 A 
ATOM      9  C   UNL     1       3.306   7.697  17.266  0.00  0.00    +0.000 C 
BRANCH   7  10
ATOM     10  C   UNL     1       1.461   9.491  19.198  0.00  0.00    +0.000 C 
ATOM     11  C   UNL     1       1.756  10.373  18.006  0.00  0.00    +0.000 C 
ATOM     12  C   UNL     1       0.380   9.828  18.189  0.00  0.00    +0.000 C 
ENDBRANCH   7  10
ENDBRANCH   1   3
BRANCH   1  13
ATOM     13  C   UNL     1       4.728   4.409  19.096  0.00  0.00    +0.000 C 
BRANCH  13  14
ATOM     14  S   UNL     1       6.070   5.507  18.527  0.00  0.00    +0.000 S 
BRANCH  14  19
ATOM     15  N   UNL     1       6.095   3.454  13.525  0.00  0.00    +0.000 N 
ATOM     16  C   UNL     1       6.109   4.251  14.623  0.00  0.00    +0.000 A 
ATOM     17  N   UNL     1       6.361   5.544  14.641  0.00  0.00    +0.000 NA
ATOM     18  N   UNL     1       6.355   6.077  15.914  0.00  0.00    +0.000 NA
ATOM     19  C   UNL     1       6.100   5.164  16.820  0.00  0.00    +0.000 A 
ATOM     20  S   UNL     1       5.817   3.596  16.189  0.00  0.00    +0.000 S 
ATOM     21  H   UNL     1       6.113   2.455  13.701  0.00  0.00    +0.000 HD
BRANCH  15  23
ATOM     22  C   UNL     1       7.149   2.721  11.449  0.00  0.00    +0.000 C 
ATOM     23  C   UNL     1       6.884   3.890  12.383  0.00  0.00    +0.000 C 
ENDBRANCH  15  23
ENDBRANCH  14  19
ENDBRANCH  13  14
ENDBRANCH   1  13
TORSDOF 6
ENDMDL
MODEL 7
REMARK VINA RESULT:      -6.1      3.472      5.455
REMARK  Name = 
REMARK  9 active torsions:
REMARK  status: ('A' for Active; 'I' for Inactive)
REMARK    1  A    between atoms: C_1  and  C_2
REMARK    2  A    between atoms: C_2  and  N_3
REMARK    3  A    between atoms: C_7  and  S_8
REMARK    4  A    between atoms: S_8  and  C_9
REMARK    5  A    between atoms: C_9  and  C_10
REMARK    6  A    between atoms: C_10  and  C_12
REMARK    7  A    between atoms: C_14  and  C_15
REMARK    8  A    between atoms: N_16  and  C_17
REMARK    9  A    between atoms: C_20  and  C_21
REMARK                            x       y       z     vdW  Elec       q    Type
REMARK                         _______ _______ _______ _____ _____    ______ ____
ROOT
ATOM      1  C   UNL     1       6.578   5.316  19.062  0.00  0.00    +0.000 C 
ATOM      2  O   UNL     1       7.028   5.121  20.195  0.00  0.00    +0.000 OA
ENDROOT
BRANCH   1   3
ATOM      3  C   UNL     1       5.119   5.402  18.846  0.00  0.00    +0.000 A 
ATOM      4  C   UNL     1       4.348   6.536  18.478  0.00  0.00    +0.000 A 
ATOM      5  C   UNL     1       3.024   6.155  18.395  0.00  0.00    +0.000 A 
ATOM      6  C   UNL     1       1.847   6.996  18.026  0.00  0.00    +0.000 C 
ATOM      7  N   UNL     1       2.945   4.818  18.744  0.00  0.00    +0.000 N 
ATOM      8  C   UNL     1       4.222   4.331  18.975  0.00  0.00    +0.000 A 
ATOM      9  C   UNL     1       4.597   2.927  19.321  0.00  0.00    +0.000 C 
BRANCH   7  10
ATOM     10  C   UNL     1       1.652   4.151  18.895  0.00  0.00    +0.000 C 
ATOM     11  C   UNL     1       1.399   2.824  19.576  0.00  0.00    +0.000 C 
ATOM     12  C   UNL     1       0.937   4.082  20.231  0.00  0.00    +0.000 C 
ENDBRANCH   7  10
ENDBRANCH   1   3
BRANCH   1  13
ATOM     13  C   UNL     1       7.497   5.476  17.853  0.00  0.00    +0.000 C 
BRANCH  13  14
ATOM     14  S   UNL     1       6.670   6.411  16.522  0.00  0.00    +0.000 S 
BRANCH  14  19
ATOM     15  N   UNL     1       6.471   3.021  12.314  0.00  0.00    +0.000 N 
ATOM     16  C   UNL     1       6.298   3.672  13.492  0.00  0.00    +0.000 A 
ATOM     17  N   UNL     1       5.357   3.430  14.382  0.00  0.00    +0.000 NA
ATOM     18  N   UNL     1       5.402   4.290  15.461  0.00  0.00    +0.000 NA
ATOM     19  C   UNL     1       6.378   5.159  15.347  0.00  0.00    +0.000 A 
ATOM     20  S   UNL     1       7.334   4.975  13.938  0.00  0.00    +0.000 S 
ATOM     21  H   UNL     1       7.088   3.471  11.645  0.00  0.00    +0.000 HD
BRANCH  15  23
ATOM     22  C   UNL     1       4.310   3.430  11.255  0.00  0.00    +0.000 C 
ATOM     23  C   UNL     1       5.300   2.381  11.735  0.00  0.00    +0.000 C 
ENDBRANCH  15  23
ENDBRANCH  14  19
ENDBRANCH  13  14
ENDBRANCH   1  13
TORSDOF 6
ENDMDL
MODEL 8
REMARK VINA RESULT:      -6.1      2.740      3.973
REMARK  Name = 
REMARK  9 active torsions:
REMARK  status: ('A' for Active; 'I' for Inactive)
REMARK    1  A    between atoms: C_1  and  C_2
REMARK    2  A    between atoms: C_2  and  N_3
REMARK    3  A    between atoms: C_7  and  S_8
REMARK    4  A    between atoms: S_8  and  C_9
REMARK    5  A    between atoms: C_9  and  C_10
REMARK    6  A    between atoms: C_10  and  C_12
REMARK    7  A    between atoms: C_14  and  C_15
REMARK    8  A    between atoms: N_16  and  C_17
REMARK    9  A    between atoms: C_20  and  C_21
REMARK                            x       y       z     vdW  Elec       q    Type
REMARK                         _______ _______ _______ _____ _____    ______ ____
ROOT
ATOM      1  C   UNL     1       2.870   6.040  19.256  0.00  0.00    +0.000 C 
ATOM      2  O   UNL     1       2.292   5.056  18.785  0.00  0.00    +0.000 OA
ENDROOT
BRANCH   1   3
ATOM      3  C   UNL     1       2.092   7.150  19.844  0.00  0.00    +0.000 A 
ATOM      4  C   UNL     1       1.510   7.231  21.136  0.00  0.00    +0.000 A 
ATOM      5  C   UNL     1       0.871   8.449  21.252  0.00  0.00    +0.000 A 
ATOM      6  C   UNL     1       0.134   8.992  22.430  0.00  0.00    +0.000 C 
ATOM      7  N   UNL     1       1.006   9.113  20.045  0.00  0.00    +0.000 N 
ATOM      8  C   UNL     1       1.790   8.354  19.192  0.00  0.00    +0.000 A 
ATOM      9  C   UNL     1       2.230   8.724  17.812  0.00  0.00    +0.000 C 
BRANCH   7  10
ATOM     10  C   UNL     1       0.312  10.377  19.797  0.00  0.00    +0.000 C 
ATOM     11  C   UNL     1       0.271  11.139  18.491  0.00  0.00    +0.000 C 
ATOM     12  C   UNL     1      -0.959  10.445  18.971  0.00  0.00    +0.000 C 
ENDBRANCH   7  10
ENDBRANCH   1   3
BRANCH   1  13
ATOM     13  C   UNL     1       4.393   6.148  19.255  0.00  0.00    +0.000 C 
BRANCH  13  14
ATOM     14  S   UNL     1       5.165   4.512  19.008  0.00  0.00    +0.000 S 
BRANCH  14  19
ATOM     15  N   UNL     1       6.791   5.571  13.960  0.00  0.00    +0.000 N 
ATOM     16  C   UNL     1       6.689   5.210  15.265  0.00  0.00    +0.000 A 
ATOM     17  N   UNL     1       7.599   4.561  15.964  0.00  0.00    +0.000 NA
ATOM     18  N   UNL     1       7.192   4.288  17.254  0.00  0.00    +0.000 NA
ATOM     19  C   UNL     1       5.984   4.740  17.487  0.00  0.00    +0.000 A 
ATOM     20  S   UNL     1       5.263   5.559  16.166  0.00  0.00    +0.000 S 
ATOM     21  H   UNL     1       5.927   5.856  13.511  0.00  0.00    +0.000 HD
BRANCH  15  23
ATOM     22  C   UNL     1       6.893   3.831  12.251  0.00  0.00    +0.000 C 
ATOM     23  C   UNL     1       7.688   4.786  13.127  0.00  0.00    +0.000 C 
ENDBRANCH  15  23
ENDBRANCH  14  19
ENDBRANCH  13  14
ENDBRANCH   1  13
TORSDOF 6
ENDMDL
MODEL 9
REMARK VINA RESULT:      -6.1      4.547      8.345
REMARK  Name = 
REMARK  9 active torsions:
REMARK  status: ('A' for Active; 'I' for Inactive)
REMARK    1  A    between atoms: C_1  and  C_2
REMARK    2  A    between atoms: C_2  and  N_3
REMARK    3  A    between atoms: C_7  and  S_8
REMARK    4  A    between atoms: S_8  and  C_9
REMARK    5  A    between atoms: C_9  and  C_10
REMARK    6  A    between atoms: C_10  and  C_12
REMARK    7  A    between atoms: C_14  and  C_15
REMARK    8  A    between atoms: N_16  and  C_17
REMARK    9  A    between atoms: C_20  and  C_21
REMARK                            x       y       z     vdW  Elec       q    Type
REMARK                         _______ _______ _______ _____ _____    ______ ____
ROOT
ATOM      1  C   UNL     1       1.836   8.334  19.250  0.00  0.00    +0.000 C 
ATOM      2  O   UNL     1       1.609   8.453  20.458  0.00  0.00    +0.000 OA
ENDROOT
BRANCH   1   3
ATOM      3  C   UNL     1       2.574   7.159  18.744  0.00  0.00    +0.000 A 
ATOM      4  C   UNL     1       3.499   7.095  17.670  0.00  0.00    +0.000 A 
ATOM      5  C   UNL     1       3.938   5.791  17.548  0.00  0.00    +0.000 A 
ATOM      6  C   UNL     1       4.926   5.241  16.575  0.00  0.00    +0.000 C 
ATOM      7  N   UNL     1       3.273   5.032  18.495  0.00  0.00    +0.000 N 
ATOM      8  C   UNL     1       2.474   5.860  19.266  0.00  0.00    +0.000 A 
ATOM      9  C   UNL     1       1.631   5.461  20.434  0.00  0.00    +0.000 C 
BRANCH   7  10
ATOM     10  C   UNL     1       3.411   3.575  18.528  0.00  0.00    +0.000 C 
ATOM     11  C   UNL     1       2.433   2.594  19.134  0.00  0.00    +0.000 C 
ATOM     12  C   UNL     1       2.567   2.671  17.650  0.00  0.00    +0.000 C 
ENDBRANCH   7  10
ENDBRANCH   1   3
BRANCH   1  13
ATOM     13  C   UNL     1       1.367   9.381  18.242  0.00  0.00    +0.000 C 
BRANCH  13  14
ATOM     14  S   UNL     1       0.955  10.953  19.075  0.00  0.00    +0.000 S 
BRANCH  14  19
ATOM     15  N   UNL     1      -4.161  10.689  17.343  0.00  0.00    +0.000 N 
ATOM     16  C   UNL     1      -3.005  10.943  18.008  0.00  0.00    +0.000 A 
ATOM     17  N   UNL     1      -2.843  11.821  18.978  0.00  0.00    +0.000 NA
ATOM     18  N   UNL     1      -1.540  11.893  19.426  0.00  0.00    +0.000 NA
ATOM     19  C   UNL     1      -0.757  11.065  18.777  0.00  0.00    +0.000 A 
ATOM     20  S   UNL     1      -1.553  10.115  17.594  0.00  0.00    +0.000 S 
ATOM     21  H   UNL     1      -4.071  10.160  16.483  0.00  0.00    +0.000 HD
BRANCH  15  23
ATOM     22  C   UNL     1      -6.403  11.337  18.058  0.00  0.00    +0.000 C 
ATOM     23  C   UNL     1      -5.149  11.757  17.308  0.00  0.00    +0.000 C 
ENDBRANCH  15  23
ENDBRANCH  14  19
ENDBRANCH  13  14
ENDBRANCH   1  13
TORSDOF 6
ENDMDL
