MODEL 1
REMARK VINA RESULT:      -6.5      0.000      0.000
REMARK  Name = 
REMARK  7 active torsions:
REMARK  status: ('A' for Active; 'I' for Inactive)
REMARK    1  A    between atoms: C_2  and  C_3
REMARK    2  A    between atoms: C_3  and  O_4
REMARK    3  A    between atoms: O_4  and  C_5
REMARK    4  A    between atoms: C_5  and  C_7
REMARK    5  A    between atoms: N_10  and  C_11
REMARK    6  A    between atoms: C_11  and  C_12
REMARK    7  A    between atoms: C_12  and  C_13
REMARK                            x       y       z     vdW  Elec       q    Type
REMARK                         _______ _______ _______ _____ _____    ______ ____
ROOT
ATOM      1  O   UNL     1       6.180   5.726  18.726  0.00  0.00    +0.000 OA
ATOM      2  C   UNL     1       5.906   5.522  17.545  0.00  0.00    +0.000 C 
ATOM      3  N   UNL     1       4.866   6.158  16.892  0.00  0.00    +0.000 N 
ATOM      4  H   UNL     1       4.915   6.193  15.880  0.00  0.00    +0.000 HD
ENDROOT
BRANCH   2   5
ATOM      5  C   UNL     1       6.698   4.535  16.683  0.00  0.00    +0.000 C 
BRANCH   5   6
ATOM      6  O   UNL     1       5.955   4.063  15.562  0.00  0.00    +0.000 OA
BRANCH   6   7
ATOM      7  C   UNL     1       6.514   4.363  14.364  0.00  0.00    +0.000 C 
ATOM      8  O   UNL     1       7.197   5.349  14.122  0.00  0.00    +0.000 OA
BRANCH   7   9
ATOM      9  C   UNL     1       6.170   3.341  13.339  0.00  0.00    +0.000 C 
ATOM     10  C   UNL     1       5.185   3.662  12.238  0.00  0.00    +0.000 C 
ATOM     11  C   UNL     1       6.640   3.489  11.911  0.00  0.00    +0.000 C 
ENDBRANCH   7   9
ENDBRANCH   6   7
ENDBRANCH   5   6
ENDBRANCH   2   5
BRANCH   3  12
ATOM     12  C   UNL     1       4.095   7.182  17.580  0.00  0.00    +0.000 C 
BRANCH  12  13
ATOM     13  C   UNL     1       2.602   6.848  17.626  0.00  0.00    +0.000 C 
BRANCH  13  14
ATOM     14  C   UNL     1       2.280   5.765  18.628  0.00  0.00    +0.000 A 
ATOM     15  C   UNL     1       2.465   5.978  20.001  0.00  0.00    +0.000 A 
ATOM     16  C   UNL     1       2.162   4.973  20.922  0.00  0.00    +0.000 A 
ATOM     17  C   UNL     1       1.679   3.745  20.475  0.00  0.00    +0.000 A 
ATOM     18 CL   UNL     1       1.302   2.507  21.607  0.00  0.00    +0.000 Cl
ATOM     19  C   UNL     1       1.498   3.515  19.112  0.00  0.00    +0.000 A 
ATOM     20  C   UNL     1       1.802   4.521  18.191  0.00  0.00    +0.000 A 
ENDBRANCH  13  14
ENDBRANCH  12  13
ENDBRANCH   3  12
TORSDOF 7
ENDMDL
MODEL 2
REMARK VINA RESULT:      -6.4      2.032      3.264
REMARK  Name = 
REMARK  7 active torsions:
REMARK  status: ('A' for Active; 'I' for Inactive)
REMARK    1  A    between atoms: C_2  and  C_3
REMARK    2  A    between atoms: C_3  and  O_4
REMARK    3  A    between atoms: O_4  and  C_5
REMARK    4  A    between atoms: C_5  and  C_7
REMARK    5  A    between atoms: N_10  and  C_11
REMARK    6  A    between atoms: C_11  and  C_12
REMARK    7  A    between atoms: C_12  and  C_13
REMARK                            x       y       z     vdW  Elec       q    Type
REMARK                         _______ _______ _______ _____ _____    ______ ____
ROOT
ATOM      1  O   UNL     1       7.733   5.419  14.116  0.00  0.00    +0.000 OA
ATOM      2  C   UNL     1       6.874   4.735  14.668  0.00  0.00    +0.000 C 
ATOM      3  N   UNL     1       6.548   4.870  16.005  0.00  0.00    +0.000 N 
ATOM      4  H   UNL     1       5.637   4.527  16.291  0.00  0.00    +0.000 HD
ENDROOT
BRANCH   2   5
ATOM      5  C   UNL     1       6.081   3.661  13.919  0.00  0.00    +0.000 C 
BRANCH   5   6
ATOM      6  O   UNL     1       6.290   3.705  12.510  0.00  0.00    +0.000 OA
BRANCH   6   7
ATOM      7  C   UNL     1       5.523   2.830  11.811  0.00  0.00    +0.000 C 
ATOM      8  O   UNL     1       5.896   1.757  11.361  0.00  0.00    +0.000 OA
BRANCH   7   9
ATOM      9  C   UNL     1       4.143   3.354  11.627  0.00  0.00    +0.000 C 
ATOM     10  C   UNL     1       3.744   4.019  10.329  0.00  0.00    +0.000 C 
ATOM     11  C   UNL     1       3.178   2.675  10.684  0.00  0.00    +0.000 C 
ENDBRANCH   7   9
ENDBRANCH   6   7
ENDBRANCH   5   6
ENDBRANCH   2   5
BRANCH   3  12
ATOM     12  C   UNL     1       7.169   5.916  16.802  0.00  0.00    +0.000 C 
BRANCH  12  13
ATOM     13  C   UNL     1       6.538   6.036  18.191  0.00  0.00    +0.000 C 
BRANCH  13  14
ATOM     14  C   UNL     1       5.186   5.370  18.275  0.00  0.00    +0.000 A 
ATOM     15  C   UNL     1       4.034   6.017  17.804  0.00  0.00    +0.000 A 
ATOM     16  C   UNL     1       2.787   5.394  17.882  0.00  0.00    +0.000 A 
ATOM     17  C   UNL     1       2.682   4.122  18.439  0.00  0.00    +0.000 A 
ATOM     18 CL   UNL     1       1.148   3.351  18.532  0.00  0.00    +0.000 Cl
ATOM     19  C   UNL     1       3.816   3.468  18.920  0.00  0.00    +0.000 A 
ATOM     20  C   UNL     1       5.063   4.093  18.841  0.00  0.00    +0.000 A 
ENDBRANCH  13  14
ENDBRANCH  12  13
ENDBRANCH   3  12
TORSDOF 7
ENDMDL
MODEL 3
REMARK VINA RESULT:      -6.3      1.096      1.745
REMARK  Name = 
REMARK  7 active torsions:
REMARK  status: ('A' for Active; 'I' for Inactive)
REMARK    1  A    between atoms: C_2  and  C_3
REMARK    2  A    between atoms: C_3  and  O_4
REMARK    3  A    between atoms: O_4  and  C_5
REMARK    4  A    between atoms: C_5  and  C_7
REMARK    5  A    between atoms: N_10  and  C_11
REMARK    6  A    between atoms: C_11  and  C_12
REMARK    7  A    between atoms: C_12  and  C_13
REMARK                            x       y       z     vdW  Elec       q    Type
REMARK                         _______ _______ _______ _____ _____    ______ ____
ROOT
ATOM      1  O   UNL     1       5.529   3.971  17.256  0.00  0.00    +0.000 OA
ATOM      2  C   UNL     1       5.878   4.669  16.307  0.00  0.00    +0.000 C 
ATOM      3  N   UNL     1       5.668   6.035  16.259  0.00  0.00    +0.000 N 
ATOM      4  H   UNL     1       6.260   6.568  15.630  0.00  0.00    +0.000 HD
ENDROOT
BRANCH   2   5
ATOM      5  C   UNL     1       6.580   4.084  15.079  0.00  0.00    +0.000 C 
BRANCH   5   6
ATOM      6  O   UNL     1       6.325   4.830  13.891  0.00  0.00    +0.000 OA
BRANCH   6   7
ATOM      7  C   UNL     1       6.496   4.121  12.747  0.00  0.00    +0.000 C 
ATOM      8  O   UNL     1       7.402   4.275  11.941  0.00  0.00    +0.000 OA
BRANCH   7   9
ATOM      9  C   UNL     1       5.407   3.123  12.567  0.00  0.00    +0.000 C 
ATOM     10  C   UNL     1       4.412   3.272  11.438  0.00  0.00    +0.000 C 
ATOM     11  C   UNL     1       5.424   2.163  11.401  0.00  0.00    +0.000 C 
ENDBRANCH   7   9
ENDBRANCH   6   7
ENDBRANCH   5   6
ENDBRANCH   2   5
BRANCH   3  12
ATOM     12  C   UNL     1       5.089   6.721  17.404  0.00  0.00    +0.000 C 
BRANCH  12  13
ATOM     13  C   UNL     1       3.561   6.764  17.339  0.00  0.00    +0.000 C 
BRANCH  13  14
ATOM     14  C   UNL     1       2.911   5.774  18.277  0.00  0.00    +0.000 A 
ATOM     15  C   UNL     1       2.110   4.735  17.783  0.00  0.00    +0.000 A 
ATOM     16  C   UNL     1       1.514   3.821  18.655  0.00  0.00    +0.000 A 
ATOM     17  C   UNL     1       1.710   3.946  20.029  0.00  0.00    +0.000 A 
ATOM     18 CL   UNL     1       0.982   2.820  21.105  0.00  0.00    +0.000 Cl
ATOM     19  C   UNL     1       2.498   4.979  20.537  0.00  0.00    +0.000 A 
ATOM     20  C   UNL     1       3.093   5.892  19.663  0.00  0.00    +0.000 A 
ENDBRANCH  13  14
ENDBRANCH  12  13
ENDBRANCH   3  12
TORSDOF 7
ENDMDL
MODEL 4
REMARK VINA RESULT:      -6.3      0.873      1.574
REMARK  Name = 
REMARK  7 active torsions:
REMARK  status: ('A' for Active; 'I' for Inactive)
REMARK    1  A    between atoms: C_2  and  C_3
REMARK    2  A    between atoms: C_3  and  O_4
REMARK    3  A    between atoms: O_4  and  C_5
REMARK    4  A    between atoms: C_5  and  C_7
REMARK    5  A    between atoms: N_10  and  C_11
REMARK    6  A    between atoms: C_11  and  C_12
REMARK    7  A    between atoms: C_12  and  C_13
REMARK                            x       y       z     vdW  Elec       q    Type
REMARK                         _______ _______ _______ _____ _____    ______ ____
ROOT
ATOM      1  O   UNL     1       6.823   7.745  17.120  0.00  0.00    +0.000 OA
ATOM      2  C   UNL     1       6.275   6.679  16.848  0.00  0.00    +0.000 C 
ATOM      3  N   UNL     1       4.941   6.428  17.112  0.00  0.00    +0.000 N 
ATOM      4  H   UNL     1       4.499   5.690  16.575  0.00  0.00    +0.000 HD
ENDROOT
BRANCH   2   5
ATOM      5  C   UNL     1       7.028   5.520  16.189  0.00  0.00    +0.000 C 
BRANCH   5   6
ATOM      6  O   UNL     1       6.660   5.329  14.825  0.00  0.00    +0.000 OA
BRANCH   6   7
ATOM      7  C   UNL     1       5.820   4.284  14.623  0.00  0.00    +0.000 C 
ATOM      8  O   UNL     1       4.838   4.016  15.301  0.00  0.00    +0.000 OA
BRANCH   7   9
ATOM      9  C   UNL     1       6.257   3.460  13.464  0.00  0.00    +0.000 C 
ATOM     10  C   UNL     1       5.456   3.454  12.182  0.00  0.00    +0.000 C 
ATOM     11  C   UNL     1       6.806   4.110  12.216  0.00  0.00    +0.000 C 
ENDBRANCH   7   9
ENDBRANCH   6   7
ENDBRANCH   5   6
ENDBRANCH   2   5
BRANCH   3  12
ATOM     12  C   UNL     1       4.098   7.482  17.657  0.00  0.00    +0.000 C 
BRANCH  12  13
ATOM     13  C   UNL     1       2.613   7.120  17.599  0.00  0.00    +0.000 C 
BRANCH  13  14
ATOM     14  C   UNL     1       2.254   5.986  18.529  0.00  0.00    +0.000 A 
ATOM     15  C   UNL     1       1.829   4.749  18.024  0.00  0.00    +0.000 A 
ATOM     16  C   UNL     1       1.501   3.703  18.890  0.00  0.00    +0.000 A 
ATOM     17  C   UNL     1       1.588   3.891  20.267  0.00  0.00    +0.000 A 
ATOM     18 CL   UNL     1       1.189   2.604  21.335  0.00  0.00    +0.000 Cl
ATOM     19  C   UNL     1       2.001   5.118  20.786  0.00  0.00    +0.000 A 
ATOM     20  C   UNL     1       2.328   6.163  19.919  0.00  0.00    +0.000 A 
ENDBRANCH  13  14
ENDBRANCH  12  13
ENDBRANCH   3  12
TORSDOF 7
ENDMDL
MODEL 5
REMARK VINA RESULT:      -6.3      1.020      1.506
REMARK  Name = 
REMARK  7 active torsions:
REMARK  status: ('A' for Active; 'I' for Inactive)
REMARK    1  A    between atoms: C_2  and  C_3
REMARK    2  A    between atoms: C_3  and  O_4
REMARK    3  A    between atoms: O_4  and  C_5
REMARK    4  A    between atoms: C_5  and  C_7
REMARK    5  A    between atoms: N_10  and  C_11
REMARK    6  A    between atoms: C_11  and  C_12
REMARK    7  A    between atoms: C_12  and  C_13
REMARK                            x       y       z     vdW  Elec       q    Type
REMARK                         _______ _______ _______ _____ _____    ______ ____
ROOT
ATOM      1  O   UNL     1       4.880   3.740  17.896  0.00  0.00    +0.000 OA
ATOM      2  C   UNL     1       5.149   4.435  16.918  0.00  0.00    +0.000 C 
ATOM      3  N   UNL     1       4.720   5.742  16.782  0.00  0.00    +0.000 N 
ATOM      4  H   UNL     1       5.243   6.331  16.142  0.00  0.00    +0.000 HD
ENDROOT
BRANCH   2   5
ATOM      5  C   UNL     1       5.988   3.909  15.751  0.00  0.00    +0.000 C 
BRANCH   5   6
ATOM      6  O   UNL     1       6.761   4.931  15.124  0.00  0.00    +0.000 OA
BRANCH   6   7
ATOM      7  C   UNL     1       6.973   4.727  13.800  0.00  0.00    +0.000 C 
ATOM      8  O   UNL     1       7.681   5.414  13.077  0.00  0.00    +0.000 OA
BRANCH   7   9
ATOM      9  C   UNL     1       6.201   3.555  13.307  0.00  0.00    +0.000 C 
ATOM     10  C   UNL     1       5.146   3.728  12.237  0.00  0.00    +0.000 C 
ATOM     11  C   UNL     1       6.426   3.012  11.915  0.00  0.00    +0.000 C 
ENDBRANCH   7   9
ENDBRANCH   6   7
ENDBRANCH   5   6
ENDBRANCH   2   5
BRANCH   3  12
ATOM     12  C   UNL     1       3.989   6.383  17.864  0.00  0.00    +0.000 C 
BRANCH  12  13
ATOM     13  C   UNL     1       2.503   6.016  17.854  0.00  0.00    +0.000 C 
BRANCH  13  14
ATOM     14  C   UNL     1       2.137   5.047  18.953  0.00  0.00    +0.000 A 
ATOM     15  C   UNL     1       1.403   3.885  18.673  0.00  0.00    +0.000 A 
ATOM     16  C   UNL     1       1.070   2.993  19.693  0.00  0.00    +0.000 A 
ATOM     17  C   UNL     1       1.462   3.260  21.003  0.00  0.00    +0.000 A 
ATOM     18 CL   UNL     1       1.056   2.160  22.261  0.00  0.00    +0.000 Cl
ATOM     19  C   UNL     1       2.185   4.415  21.300  0.00  0.00    +0.000 A 
ATOM     20  C   UNL     1       2.517   5.308  20.278  0.00  0.00    +0.000 A 
ENDBRANCH  13  14
ENDBRANCH  12  13
ENDBRANCH   3  12
TORSDOF 7
ENDMDL
MODEL 6
REMARK VINA RESULT:      -6.3      1.909      2.692
REMARK  Name = 
REMARK  7 active torsions:
REMARK  status: ('A' for Active; 'I' for Inactive)
REMARK    1  A    between atoms: C_2  and  C_3
REMARK    2  A    between atoms: C_3  and  O_4
REMARK    3  A    between atoms: O_4  and  C_5
REMARK    4  A    between atoms: C_5  and  C_7
REMARK    5  A    between atoms: N_10  and  C_11
REMARK    6  A    between atoms: C_11  and  C_12
REMARK    7  A    between atoms: C_12  and  C_13
REMARK                            x       y       z     vdW  Elec       q    Type
REMARK                         _______ _______ _______ _____ _____    ______ ____
ROOT
ATOM      1  O   UNL     1       7.559   5.585  15.414  0.00  0.00    +0.000 OA
ATOM      2  C   UNL     1       6.607   4.817  15.529  0.00  0.00    +0.000 C 
ATOM      3  N   UNL     1       6.230   4.259  16.736  0.00  0.00    +0.000 N 
ATOM      4  H   UNL     1       5.275   3.923  16.807  0.00  0.00    +0.000 HD
ENDROOT
BRANCH   2   5
ATOM      5  C   UNL     1       5.746   4.403  14.333  0.00  0.00    +0.000 C 
BRANCH   5   6
ATOM      6  O   UNL     1       6.344   3.369  13.555  0.00  0.00    +0.000 OA
BRANCH   6   7
ATOM      7  C   UNL     1       6.847   3.793  12.369  0.00  0.00    +0.000 C 
ATOM      8  O   UNL     1       7.531   4.793  12.201  0.00  0.00    +0.000 OA
BRANCH   7   9
ATOM      9  C   UNL     1       6.439   2.891  11.258  0.00  0.00    +0.000 C 
ATOM     10  C   UNL     1       7.259   1.665  10.927  0.00  0.00    +0.000 C 
ATOM     11  C   UNL     1       5.899   1.509  11.544  0.00  0.00    +0.000 C 
ENDBRANCH   7   9
ENDBRANCH   6   7
ENDBRANCH   5   6
ENDBRANCH   2   5
BRANCH   3  12
ATOM     12  C   UNL     1       6.916   4.643  17.960  0.00  0.00    +0.000 C 
BRANCH  12  13
ATOM     13  C   UNL     1       5.948   5.152  19.030  0.00  0.00    +0.000 C 
BRANCH  13  14
ATOM     14  C   UNL     1       4.603   4.467  18.970  0.00  0.00    +0.000 A 
ATOM     15  C   UNL     1       3.507   5.089  18.355  0.00  0.00    +0.000 A 
ATOM     16  C   UNL     1       2.267   4.449  18.301  0.00  0.00    +0.000 A 
ATOM     17  C   UNL     1       2.113   3.186  18.868  0.00  0.00    +0.000 A 
ATOM     18 CL   UNL     1       0.588   2.395  18.799  0.00  0.00    +0.000 Cl
ATOM     19  C   UNL     1       3.191   2.558  19.491  0.00  0.00    +0.000 A 
ATOM     20  C   UNL     1       4.431   3.199  19.545  0.00  0.00    +0.000 A 
ENDBRANCH  13  14
ENDBRANCH  12  13
ENDBRANCH   3  12
TORSDOF 7
ENDMDL
MODEL 7
REMARK VINA RESULT:      -6.2      3.162      4.514
REMARK  Name = 
REMARK  7 active torsions:
REMARK  status: ('A' for Active; 'I' for Inactive)
REMARK    1  A    between atoms: C_2  and  C_3
REMARK    2  A    between atoms: C_3  and  O_4
REMARK    3  A    between atoms: O_4  and  C_5
REMARK    4  A    between atoms: C_5  and  C_7
REMARK    5  A    between atoms: N_10  and  C_11
REMARK    6  A    between atoms: C_11  and  C_12
REMARK    7  A    between atoms: C_12  and  C_13
REMARK                            x       y       z     vdW  Elec       q    Type
REMARK                         _______ _______ _______ _____ _____    ______ ____
ROOT
ATOM      1  O   UNL     1       4.873   3.768  19.038  0.00  0.00    +0.000 OA
ATOM      2  C   UNL     1       4.456   4.183  17.959  0.00  0.00    +0.000 C 
ATOM      3  N   UNL     1       3.219   4.783  17.809  0.00  0.00    +0.000 N 
ATOM      4  H   UNL     1       3.094   5.379  16.998  0.00  0.00    +0.000 HD
ENDROOT
BRANCH   2   5
ATOM      5  C   UNL     1       5.276   4.073  16.671  0.00  0.00    +0.000 C 
BRANCH   5   6
ATOM      6  O   UNL     1       6.662   4.331  16.876  0.00  0.00    +0.000 OA
BRANCH   6   7
ATOM      7  C   UNL     1       7.064   5.554  16.447  0.00  0.00    +0.000 C 
ATOM      8  O   UNL     1       7.535   5.804  15.347  0.00  0.00    +0.000 OA
BRANCH   7   9
ATOM      9  C   UNL     1       6.888   6.581  17.509  0.00  0.00    +0.000 C 
ATOM     10  C   UNL     1       7.960   6.792  18.554  0.00  0.00    +0.000 C 
ATOM     11  C   UNL     1       7.718   7.843  17.510  0.00  0.00    +0.000 C 
ENDBRANCH   7   9
ENDBRANCH   6   7
ENDBRANCH   5   6
ENDBRANCH   2   5
BRANCH   3  12
ATOM     12  C   UNL     1       2.383   5.025  18.975  0.00  0.00    +0.000 C 
BRANCH  12  13
ATOM     13  C   UNL     1       2.904   6.183  19.828  0.00  0.00    +0.000 C 
BRANCH  13  14
ATOM     14  C   UNL     1       2.191   7.483  19.541  0.00  0.00    +0.000 A 
ATOM     15  C   UNL     1       1.470   8.145  20.544  0.00  0.00    +0.000 A 
ATOM     16  C   UNL     1       0.815   9.348  20.272  0.00  0.00    +0.000 A 
ATOM     17  C   UNL     1       0.872   9.894  18.992  0.00  0.00    +0.000 A 
ATOM     18 CL   UNL     1       0.070  11.377  18.655  0.00  0.00    +0.000 Cl
ATOM     19  C   UNL     1       1.578   9.243  17.980  0.00  0.00    +0.000 A 
ATOM     20  C   UNL     1       2.232   8.039  18.254  0.00  0.00    +0.000 A 
ENDBRANCH  13  14
ENDBRANCH  12  13
ENDBRANCH   3  12
TORSDOF 7
ENDMDL
MODEL 8
REMARK VINA RESULT:      -6.2      2.124      2.994
REMARK  Name = 
REMARK  7 active torsions:
REMARK  status: ('A' for Active; 'I' for Inactive)
REMARK    1  A    between atoms: C_2  and  C_3
REMARK    2  A    between atoms: C_3  and  O_4
REMARK    3  A    between atoms: O_4  and  C_5
REMARK    4  A    between atoms: C_5  and  C_7
REMARK    5  A    between atoms: N_10  and  C_11
REMARK    6  A    between atoms: C_11  and  C_12
REMARK    7  A    between atoms: C_12  and  C_13
REMARK                            x       y       z     vdW  Elec       q    Type
REMARK                         _______ _______ _______ _____ _____    ______ ____
ROOT
ATOM      1  O   UNL     1       5.145   3.067  19.975  0.00  0.00    +0.000 OA
ATOM      2  C   UNL     1       5.226   3.618  18.880  0.00  0.00    +0.000 C 
ATOM      3  N   UNL     1       4.448   3.257  17.795  0.00  0.00    +0.000 N 
ATOM      4  H   UNL     1       4.334   3.950  17.063  0.00  0.00    +0.000 HD
ENDROOT
BRANCH   2   5
ATOM      5  C   UNL     1       6.206   4.764  18.614  0.00  0.00    +0.000 C 
BRANCH   5   6
ATOM      6  O   UNL     1       7.194   4.430  17.642  0.00  0.00    +0.000 OA
BRANCH   6   7
ATOM      7  C   UNL     1       7.107   5.152  16.497  0.00  0.00    +0.000 C 
ATOM      8  O   UNL     1       7.199   6.369  16.413  0.00  0.00    +0.000 OA
BRANCH   7   9
ATOM      9  C   UNL     1       6.851   4.273  15.325  0.00  0.00    +0.000 C 
ATOM     10  C   UNL     1       5.554   4.380  14.556  0.00  0.00    +0.000 C 
ATOM     11  C   UNL     1       6.836   4.837  13.924  0.00  0.00    +0.000 C 
ENDBRANCH   7   9
ENDBRANCH   6   7
ENDBRANCH   5   6
ENDBRANCH   2   5
BRANCH   3  12
ATOM     12  C   UNL     1       3.418   2.241  17.946  0.00  0.00    +0.000 C 
BRANCH  12  13
ATOM     13  C   UNL     1       2.011   2.841  17.954  0.00  0.00    +0.000 C 
BRANCH  13  14
ATOM     14  C   UNL     1       1.944   4.158  18.690  0.00  0.00    +0.000 A 
ATOM     15  C   UNL     1       2.138   5.371  18.013  0.00  0.00    +0.000 A 
ATOM     16  C   UNL     1       2.073   6.585  18.699  0.00  0.00    +0.000 A 
ATOM     17  C   UNL     1       1.822   6.594  20.070  0.00  0.00    +0.000 A 
ATOM     18 CL   UNL     1       1.737   8.088  20.916  0.00  0.00    +0.000 Cl
ATOM     19  C   UNL     1       1.635   5.397  20.759  0.00  0.00    +0.000 A 
ATOM     20  C   UNL     1       1.701   4.182  20.071  0.00  0.00    +0.000 A 
ENDBRANCH  13  14
ENDBRANCH  12  13
ENDBRANCH   3  12
TORSDOF 7
ENDMDL
MODEL 9
REMARK VINA RESULT:      -6.2      3.646      6.520
REMARK  Name = 
REMARK  7 active torsions:
REMARK  status: ('A' for Active; 'I' for Inactive)
REMARK    1  A    between atoms: C_2  and  C_3
REMARK    2  A    between atoms: C_3  and  O_4
REMARK    3  A    between atoms: O_4  and  C_5
REMARK    4  A    between atoms: C_5  and  C_7
REMARK    5  A    between atoms: N_10  and  C_11
REMARK    6  A    between atoms: C_11  and  C_12
REMARK    7  A    between atoms: C_12  and  C_13
REMARK                            x       y       z     vdW  Elec       q    Type
REMARK                         _______ _______ _______ _____ _____    ______ ____
ROOT
ATOM      1  O   UNL     1       2.314   6.975  19.167  0.00  0.00    +0.000 OA
ATOM      2  C   UNL     1       2.593   6.028  19.899  0.00  0.00    +0.000 C 
ATOM      3  N   UNL     1       3.827   5.403  19.885  0.00  0.00    +0.000 N 
ATOM      4  H   UNL     1       4.084   4.880  20.715  0.00  0.00    +0.000 HD
ENDROOT
BRANCH   2   5
ATOM      5  C   UNL     1       1.592   5.450  20.902  0.00  0.00    +0.000 C 
BRANCH   5   6
ATOM      6  O   UNL     1       0.690   4.520  20.306  0.00  0.00    +0.000 OA
BRANCH   6   7
ATOM      7  C   UNL     1       1.141   3.241  20.300  0.00  0.00    +0.000 C 
ATOM      8  O   UNL     1       1.579   2.635  21.268  0.00  0.00    +0.000 OA
BRANCH   7   9
ATOM      9  C   UNL     1       1.066   2.651  18.937  0.00  0.00    +0.000 C 
ATOM     10  C   UNL     1       1.654   3.383  17.752  0.00  0.00    +0.000 C 
ATOM     11  C   UNL     1       2.306   2.126  18.252  0.00  0.00    +0.000 C 
ENDBRANCH   7   9
ENDBRANCH   6   7
ENDBRANCH   5   6
ENDBRANCH   2   5
BRANCH   3  12
ATOM     12  C   UNL     1       4.892   5.917  19.038  0.00  0.00    +0.000 C 
BRANCH  12  13
ATOM     13  C   UNL     1       5.930   4.845  18.700  0.00  0.00    +0.000 C 
BRANCH  13  14
ATOM     14  C   UNL     1       6.046   4.594  17.216  0.00  0.00    +0.000 A 
ATOM     15  C   UNL     1       5.026   3.934  16.516  0.00  0.00    +0.000 A 
ATOM     16  C   UNL     1       5.138   3.708  15.143  0.00  0.00    +0.000 A 
ATOM     17  C   UNL     1       6.276   4.134  14.461  0.00  0.00    +0.000 A 
ATOM     18 CL   UNL     1       6.415   3.861  12.769  0.00  0.00    +0.000 Cl
ATOM     19  C   UNL     1       7.303   4.785  15.144  0.00  0.00    +0.000 A 
ATOM     20  C   UNL     1       7.190   5.010  16.518  0.00  0.00    +0.000 A 
ENDBRANCH  13  14
ENDBRANCH  12  13
ENDBRANCH   3  12
TORSDOF 7
ENDMDL
