MODEL 1
REMARK VINA RESULT:      -8.6      0.000      0.000
REMARK  Name = 
REMARK  8 active torsions:
REMARK  status: ('A' for Active; 'I' for Inactive)
REMARK    1  A    between atoms: C_1  and  C_2
REMARK    2  A    between atoms: C_2  and  C_3
REMARK    3  A    between atoms: C_2  and  C_4
REMARK    4  A    between atoms: C_7  and  N_8
REMARK    5  A    between atoms: C_9  and  C_11
REMARK    6  A    between atoms: C_11  and  S_12
REMARK    7  A    between atoms: S_12  and  C_13
REMARK    8  A    between atoms: C_15  and  C_16
REMARK                            x       y       z     vdW  Elec       q    Type
REMARK                         _______ _______ _______ _____ _____    ______ ____
ROOT
ATOM      1  C   UNL     1       5.221   5.406  19.466  0.00  0.00    +0.000 A 
ATOM      2  N   UNL     1       4.384   6.508  19.369  0.00  0.00    +0.000 N 
ATOM      3  C   UNL     1       3.006   6.411  19.302  0.00  0.00    +0.000 A 
ATOM      4  N   UNL     1       2.382   5.265  19.264  0.00  0.00    +0.000 NA
ATOM      5  C   UNL     1       3.168   4.157  19.279  0.00  0.00    +0.000 A 
ATOM      6  N   UNL     1       2.770   2.924  19.214  0.00  0.00    +0.000 NA
ATOM      7  C   UNL     1       3.960   2.218  19.301  0.00  0.00    +0.000 A 
ATOM      8  N   UNL     1       5.063   2.904  19.425  0.00  0.00    +0.000 NA
ATOM      9  C   UNL     1       4.624   4.201  19.401  0.00  0.00    +0.000 A 
ATOM     10  H   UNL     1       4.799   7.437  19.429  0.00  0.00    +0.000 HD
ENDROOT
BRANCH   3  11
ATOM     11  C   UNL     1       2.184   7.656  19.288  0.00  0.00    +0.000 A 
ATOM     12  C   UNL     1       1.489   8.045  20.440  0.00  0.00    +0.000 A 
ATOM     13  C   UNL     1       0.714   9.210  20.433  0.00  0.00    +0.000 A 
ATOM     14  C   UNL     1       0.624   9.983  19.275  0.00  0.00    +0.000 A 
ATOM     15  C   UNL     1       1.312   9.598  18.125  0.00  0.00    +0.000 A 
ATOM     16  C   UNL     1       2.086   8.440  18.138  0.00  0.00    +0.000 A 
ATOM     17  F   UNL     1       2.721   8.086  17.009  0.00  0.00    +0.000 F 
ENDBRANCH   3  11
BRANCH   1  18
ATOM     18  S   UNL     1       6.965   5.421  19.684  0.00  0.00    +0.000 S 
BRANCH  18  19
ATOM     19  C   UNL     1       7.613   6.171  18.178  0.00  0.00    +0.000 C 
BRANCH  19  21
ATOM     20  N   UNL     1       6.754   5.684  15.939  0.00  0.00    +0.000 N 
ATOM     21  C   UNL     1       7.522   5.230  16.995  0.00  0.00    +0.000 C 
ATOM     22  O   UNL     1       8.109   4.149  17.056  0.00  0.00    +0.000 OA
ATOM     23  H   UNL     1       6.380   6.625  16.004  0.00  0.00    +0.000 HD
BRANCH  20  27
ATOM     24  C   UNL     1       5.750   3.555  12.411  0.00  0.00    +0.000 A 
ATOM     25  C   UNL     1       6.975   4.223  12.503  0.00  0.00    +0.000 A 
ATOM     26  C   UNL     1       7.327   4.920  13.661  0.00  0.00    +0.000 A 
ATOM     27  C   UNL     1       6.464   4.968  14.758  0.00  0.00    +0.000 A 
ATOM     28  C   UNL     1       5.253   4.274  14.688  0.00  0.00    +0.000 A 
ATOM     29  C   UNL     1       4.892   3.589  13.519  0.00  0.00    +0.000 A 
BRANCH  24  31
ATOM     30  C   UNL     1       5.850   1.357  11.186  0.00  0.00    +0.000 C 
ATOM     31  C   UNL     1       5.397   2.817  11.134  0.00  0.00    +0.000 C 
ATOM     32  C   UNL     1       3.905   2.922  10.814  0.00  0.00    +0.000 C 
ENDBRANCH  24  31
ENDBRANCH  20  27
ENDBRANCH  19  21
ENDBRANCH  18  19
ENDBRANCH   1  18
TORSDOF 6
ENDMDL
MODEL 2
REMARK VINA RESULT:      -8.6      5.148      8.213
REMARK  Name = 
REMARK  8 active torsions:
REMARK  status: ('A' for Active; 'I' for Inactive)
REMARK    1  A    between atoms: C_1  and  C_2
REMARK    2  A    between atoms: C_2  and  C_3
REMARK    3  A    between atoms: C_2  and  C_4
REMARK    4  A    between atoms: C_7  and  N_8
REMARK    5  A    between atoms: C_9  and  C_11
REMARK    6  A    between atoms: C_11  and  S_12
REMARK    7  A    between atoms: S_12  and  C_13
REMARK    8  A    between atoms: C_15  and  C_16
REMARK                            x       y       z     vdW  Elec       q    Type
REMARK                         _______ _______ _______ _____ _____    ______ ____
ROOT
ATOM      1  C   UNL     1       6.550   5.872  17.916  0.00  0.00    +0.000 A 
ATOM      2  N   UNL     1       5.459   5.518  18.696  0.00  0.00    +0.000 N 
ATOM      3  C   UNL     1       4.446   4.687  18.253  0.00  0.00    +0.000 A 
ATOM      4  N   UNL     1       4.405   4.214  17.037  0.00  0.00    +0.000 NA
ATOM      5  C   UNL     1       5.416   4.598  16.213  0.00  0.00    +0.000 A 
ATOM      6  N   UNL     1       5.558   4.280  14.964  0.00  0.00    +0.000 NA
ATOM      7  C   UNL     1       6.752   4.902  14.630  0.00  0.00    +0.000 A 
ATOM      8  N   UNL     1       7.369   5.570  15.565  0.00  0.00    +0.000 NA
ATOM      9  C   UNL     1       6.536   5.431  16.644  0.00  0.00    +0.000 A 
ATOM     10  H   UNL     1       5.442   5.821  19.669  0.00  0.00    +0.000 HD
ENDROOT
BRANCH   3  11
ATOM     11  C   UNL     1       3.357   4.292  19.194  0.00  0.00    +0.000 A 
ATOM     12  C   UNL     1       3.299   2.980  19.682  0.00  0.00    +0.000 A 
ATOM     13  C   UNL     1       2.280   2.604  20.562  0.00  0.00    +0.000 A 
ATOM     14  C   UNL     1       1.312   3.531  20.950  0.00  0.00    +0.000 A 
ATOM     15  C   UNL     1       1.365   4.837  20.466  0.00  0.00    +0.000 A 
ATOM     16  C   UNL     1       2.384   5.210  19.593  0.00  0.00    +0.000 A 
ATOM     17  F   UNL     1       2.397   6.470  19.129  0.00  0.00    +0.000 F 
ENDBRANCH   3  11
BRANCH   1  18
ATOM     18  S   UNL     1       7.947   6.811  18.420  0.00  0.00    +0.000 S 
BRANCH  18  19
ATOM     19  C   UNL     1       7.685   8.447  17.710  0.00  0.00    +0.000 C 
BRANCH  19  21
ATOM     20  N   UNL     1       8.652  10.694  17.680  0.00  0.00    +0.000 N 
ATOM     21  C   UNL     1       8.573   9.491  18.354  0.00  0.00    +0.000 C 
ATOM     22  O   UNL     1       9.159   9.201  19.397  0.00  0.00    +0.000 OA
ATOM     23  H   UNL     1       8.061  10.812  16.863  0.00  0.00    +0.000 HD
BRANCH  20  27
ATOM     24  C   UNL     1      11.152  13.979  18.653  0.00  0.00    +0.000 A 
ATOM     25  C   UNL     1       9.810  13.979  19.046  0.00  0.00    +0.000 A 
ATOM     26  C   UNL     1       8.975  12.900  18.744  0.00  0.00    +0.000 A 
ATOM     27  C   UNL     1       9.458  11.795  18.040  0.00  0.00    +0.000 A 
ATOM     28  C   UNL     1      10.807  11.772  17.675  0.00  0.00    +0.000 A 
ATOM     29  C   UNL     1      11.641  12.862  17.963  0.00  0.00    +0.000 A 
BRANCH  24  31
ATOM     30  C   UNL     1      12.093  16.164  17.828  0.00  0.00    +0.000 C 
ATOM     31  C   UNL     1      12.026  15.172  18.990  0.00  0.00    +0.000 C 
ATOM     32  C   UNL     1      11.572  15.859  20.279  0.00  0.00    +0.000 C 
ENDBRANCH  24  31
ENDBRANCH  20  27
ENDBRANCH  19  21
ENDBRANCH  18  19
ENDBRANCH   1  18
TORSDOF 6
ENDMDL
MODEL 3
REMARK VINA RESULT:      -8.4      5.256      8.216
REMARK  Name = 
REMARK  8 active torsions:
REMARK  status: ('A' for Active; 'I' for Inactive)
REMARK    1  A    between atoms: C_1  and  C_2
REMARK    2  A    between atoms: C_2  and  C_3
REMARK    3  A    between atoms: C_2  and  C_4
REMARK    4  A    between atoms: C_7  and  N_8
REMARK    5  A    between atoms: C_9  and  C_11
REMARK    6  A    between atoms: C_11  and  S_12
REMARK    7  A    between atoms: S_12  and  C_13
REMARK    8  A    between atoms: C_15  and  C_16
REMARK                            x       y       z     vdW  Elec       q    Type
REMARK                         _______ _______ _______ _____ _____    ______ ____
ROOT
ATOM      1  C   UNL     1       6.620   5.775  18.072  0.00  0.00    +0.000 A 
ATOM      2  N   UNL     1       5.535   5.413  18.857  0.00  0.00    +0.000 N 
ATOM      3  C   UNL     1       4.571   4.509  18.450  0.00  0.00    +0.000 A 
ATOM      4  N   UNL     1       4.572   3.965  17.263  0.00  0.00    +0.000 NA
ATOM      5  C   UNL     1       5.576   4.350  16.432  0.00  0.00    +0.000 A 
ATOM      6  N   UNL     1       5.754   3.968  15.205  0.00  0.00    +0.000 NA
ATOM      7  C   UNL     1       6.921   4.629  14.852  0.00  0.00    +0.000 A 
ATOM      8  N   UNL     1       7.490   5.379  15.754  0.00  0.00    +0.000 NA
ATOM      9  C   UNL     1       6.648   5.261  16.828  0.00  0.00    +0.000 A 
ATOM     10  H   UNL     1       5.487   5.771  19.811  0.00  0.00    +0.000 HD
ENDROOT
BRANCH   3  11
ATOM     11  C   UNL     1       3.487   4.115  19.398  0.00  0.00    +0.000 A 
ATOM     12  C   UNL     1       2.342   4.912  19.516  0.00  0.00    +0.000 A 
ATOM     13  C   UNL     1       1.324   4.550  20.405  0.00  0.00    +0.000 A 
ATOM     14  C   UNL     1       1.451   3.399  21.182  0.00  0.00    +0.000 A 
ATOM     15  C   UNL     1       2.590   2.603  21.069  0.00  0.00    +0.000 A 
ATOM     16  C   UNL     1       3.600   2.965  20.180  0.00  0.00    +0.000 A 
ATOM     17  F   UNL     1       4.693   2.189  20.108  0.00  0.00    +0.000 F 
ENDBRANCH   3  11
BRANCH   1  18
ATOM     18  S   UNL     1       7.961   6.809  18.539  0.00  0.00    +0.000 S 
BRANCH  18  19
ATOM     19  C   UNL     1       7.746   8.313  17.568  0.00  0.00    +0.000 C 
BRANCH  19  21
ATOM     20  N   UNL     1       8.271  10.702  17.543  0.00  0.00    +0.000 N 
ATOM     21  C   UNL     1       8.424   9.503  18.213  0.00  0.00    +0.000 C 
ATOM     22  O   UNL     1       9.060   9.326  19.252  0.00  0.00    +0.000 OA
ATOM     23  H   UNL     1       7.665  10.709  16.730  0.00  0.00    +0.000 HD
BRANCH  20  27
ATOM     24  C   UNL     1      10.155  14.353  18.595  0.00  0.00    +0.000 A 
ATOM     25  C   UNL     1       8.828  14.351  18.155  0.00  0.00    +0.000 A 
ATOM     26  C   UNL     1       8.188  13.156  17.814  0.00  0.00    +0.000 A 
ATOM     27  C   UNL     1       8.857  11.934  17.905  0.00  0.00    +0.000 A 
ATOM     28  C   UNL     1      10.172  11.925  18.378  0.00  0.00    +0.000 A 
ATOM     29  C   UNL     1      10.820  13.125  18.703  0.00  0.00    +0.000 A 
BRANCH  24  31
ATOM     30  C   UNL     1      12.330  15.505  19.126  0.00  0.00    +0.000 C 
ATOM     31  C   UNL     1      10.820  15.670  18.946  0.00  0.00    +0.000 C 
ATOM     32  C   UNL     1      10.501  16.757  17.917  0.00  0.00    +0.000 C 
ENDBRANCH  24  31
ENDBRANCH  20  27
ENDBRANCH  19  21
ENDBRANCH  18  19
ENDBRANCH   1  18
TORSDOF 6
ENDMDL
MODEL 4
REMARK VINA RESULT:      -8.3      4.167      6.857
REMARK  Name = 
REMARK  8 active torsions:
REMARK  status: ('A' for Active; 'I' for Inactive)
REMARK    1  A    between atoms: C_1  and  C_2
REMARK    2  A    between atoms: C_2  and  C_3
REMARK    3  A    between atoms: C_2  and  C_4
REMARK    4  A    between atoms: C_7  and  N_8
REMARK    5  A    between atoms: C_9  and  C_11
REMARK    6  A    between atoms: C_11  and  S_12
REMARK    7  A    between atoms: S_12  and  C_13
REMARK    8  A    between atoms: C_15  and  C_16
REMARK                            x       y       z     vdW  Elec       q    Type
REMARK                         _______ _______ _______ _____ _____    ______ ____
ROOT
ATOM      1  C   UNL     1       5.084   5.752  18.147  0.00  0.00    +0.000 A 
ATOM      2  N   UNL     1       4.160   6.785  18.206  0.00  0.00    +0.000 N 
ATOM      3  C   UNL     1       2.998   6.723  18.953  0.00  0.00    +0.000 A 
ATOM      4  N   UNL     1       2.645   5.658  19.619  0.00  0.00    +0.000 NA
ATOM      5  C   UNL     1       3.484   4.592  19.528  0.00  0.00    +0.000 A 
ATOM      6  N   UNL     1       3.318   3.427  20.074  0.00  0.00    +0.000 NA
ATOM      7  C   UNL     1       4.465   2.750  19.690  0.00  0.00    +0.000 A 
ATOM      8  N   UNL     1       5.335   3.394  18.962  0.00  0.00    +0.000 NA
ATOM      9  C   UNL     1       4.749   4.620  18.796  0.00  0.00    +0.000 A 
ATOM     10  H   UNL     1       4.386   7.662  17.739  0.00  0.00    +0.000 HD
ENDROOT
BRANCH   3  11
ATOM     11  C   UNL     1       2.107   7.919  19.024  0.00  0.00    +0.000 A 
ATOM     12  C   UNL     1       1.894   8.697  17.880  0.00  0.00    +0.000 A 
ATOM     13  C   UNL     1       1.063   9.821  17.941  0.00  0.00    +0.000 A 
ATOM     14  C   UNL     1       0.450  10.173  19.144  0.00  0.00    +0.000 A 
ATOM     15  C   UNL     1       0.661   9.402  20.286  0.00  0.00    +0.000 A 
ATOM     16  C   UNL     1       1.487   8.282  20.220  0.00  0.00    +0.000 A 
ATOM     17  F   UNL     1       1.685   7.571  21.341  0.00  0.00    +0.000 F 
ENDBRANCH   3  11
BRANCH   1  18
ATOM     18  S   UNL     1       6.643   5.775  17.337  0.00  0.00    +0.000 S 
BRANCH  18  19
ATOM     19  C   UNL     1       7.775   6.508  18.533  0.00  0.00    +0.000 C 
BRANCH  19  21
ATOM     20  N   UNL     1       8.869   8.611  19.137  0.00  0.00    +0.000 N 
ATOM     21  C   UNL     1       8.046   7.967  18.233  0.00  0.00    +0.000 C 
ATOM     22  O   UNL     1       7.519   8.471  17.241  0.00  0.00    +0.000 OA
ATOM     23  H   UNL     1       9.282   8.051  19.875  0.00  0.00    +0.000 HD
BRANCH  20  27
ATOM     24  C   UNL     1       9.974  12.706  19.186  0.00  0.00    +0.000 A 
ATOM     25  C   UNL     1       9.821  12.035  17.968  0.00  0.00    +0.000 A 
ATOM     26  C   UNL     1       9.446  10.689  17.933  0.00  0.00    +0.000 A 
ATOM     27  C   UNL     1       9.216   9.979  19.113  0.00  0.00    +0.000 A 
ATOM     28  C   UNL     1       9.333  10.652  20.332  0.00  0.00    +0.000 A 
ATOM     29  C   UNL     1       9.725  11.997  20.369  0.00  0.00    +0.000 A 
BRANCH  24  31
ATOM     30  C   UNL     1      11.913  14.312  19.147  0.00  0.00    +0.000 C 
ATOM     31  C   UNL     1      10.391  14.164  19.185  0.00  0.00    +0.000 C 
ATOM     32  C   UNL     1       9.731  14.941  18.044  0.00  0.00    +0.000 C 
ENDBRANCH  24  31
ENDBRANCH  20  27
ENDBRANCH  19  21
ENDBRANCH  18  19
ENDBRANCH   1  18
TORSDOF 6
ENDMDL
MODEL 5
REMARK VINA RESULT:      -8.2      4.874      8.340
REMARK  Name = 
REMARK  8 active torsions:
REMARK  status: ('A' for Active; 'I' for Inactive)
REMARK    1  A    between atoms: C_1  and  C_2
REMARK    2  A    between atoms: C_2  and  C_3
REMARK    3  A    between atoms: C_2  and  C_4
REMARK    4  A    between atoms: C_7  and  N_8
REMARK    5  A    between atoms: C_9  and  C_11
REMARK    6  A    between atoms: C_11  and  S_12
REMARK    7  A    between atoms: S_12  and  C_13
REMARK    8  A    between atoms: C_15  and  C_16
REMARK                            x       y       z     vdW  Elec       q    Type
REMARK                         _______ _______ _______ _____ _____    ______ ____
ROOT
ATOM      1  C   UNL     1       6.538   5.492  18.382  0.00  0.00    +0.000 A 
ATOM      2  N   UNL     1       5.415   5.138  19.115  0.00  0.00    +0.000 N 
ATOM      3  C   UNL     1       4.469   4.235  18.666  0.00  0.00    +0.000 A 
ATOM      4  N   UNL     1       4.526   3.685  17.483  0.00  0.00    +0.000 NA
ATOM      5  C   UNL     1       5.571   4.063  16.700  0.00  0.00    +0.000 A 
ATOM      6  N   UNL     1       5.807   3.674  15.485  0.00  0.00    +0.000 NA
ATOM      7  C   UNL     1       6.992   4.328  15.186  0.00  0.00    +0.000 A 
ATOM      8  N   UNL     1       7.519   5.082  16.111  0.00  0.00    +0.000 NA
ATOM      9  C   UNL     1       6.625   4.972  17.143  0.00  0.00    +0.000 A 
ATOM     10  H   UNL     1       5.322   5.501  20.063  0.00  0.00    +0.000 HD
ENDROOT
BRANCH   3  11
ATOM     11  C   UNL     1       3.339   3.850  19.562  0.00  0.00    +0.000 A 
ATOM     12  C   UNL     1       2.123   4.540  19.486  0.00  0.00    +0.000 A 
ATOM     13  C   UNL     1       1.062   4.186  20.325  0.00  0.00    +0.000 A 
ATOM     14  C   UNL     1       1.214   3.149  21.246  0.00  0.00    +0.000 A 
ATOM     15  C   UNL     1       2.423   2.460  21.327  0.00  0.00    +0.000 A 
ATOM     16  C   UNL     1       3.477   2.814  20.487  0.00  0.00    +0.000 A 
ATOM     17  F   UNL     1       4.635   2.144  20.602  0.00  0.00    +0.000 F 
ENDBRANCH   3  11
BRANCH   1  18
ATOM     18  S   UNL     1       7.859   6.525  18.908  0.00  0.00    +0.000 S 
BRANCH  18  19
ATOM     19  C   UNL     1       8.083   7.708  17.566  0.00  0.00    +0.000 C 
BRANCH  19  21
ATOM     20  N   UNL     1       9.210   9.309  19.034  0.00  0.00    +0.000 N 
ATOM     21  C   UNL     1       8.227   9.125  18.081  0.00  0.00    +0.000 C 
ATOM     22  O   UNL     1       7.470   9.990  17.640  0.00  0.00    +0.000 OA
ATOM     23  H   UNL     1       9.801   8.514  19.255  0.00  0.00    +0.000 HD
BRANCH  20  27
ATOM     24  C   UNL     1      10.090  12.990  20.947  0.00  0.00    +0.000 A 
ATOM     25  C   UNL     1       9.175  12.103  21.521  0.00  0.00    +0.000 A 
ATOM     26  C   UNL     1       8.881  10.881  20.910  0.00  0.00    +0.000 A 
ATOM     27  C   UNL     1       9.494  10.514  19.710  0.00  0.00    +0.000 A 
ATOM     28  C   UNL     1      10.436  11.380  19.149  0.00  0.00    +0.000 A 
ATOM     29  C   UNL     1      10.718  12.614  19.752  0.00  0.00    +0.000 A 
BRANCH  24  31
ATOM     30  C   UNL     1      10.512  15.452  20.620  0.00  0.00    +0.000 C 
ATOM     31  C   UNL     1      10.377  14.313  21.632  0.00  0.00    +0.000 C 
ATOM     32  C   UNL     1       9.325  14.638  22.694  0.00  0.00    +0.000 C 
ENDBRANCH  24  31
ENDBRANCH  20  27
ENDBRANCH  19  21
ENDBRANCH  18  19
ENDBRANCH   1  18
TORSDOF 6
ENDMDL
MODEL 6
REMARK VINA RESULT:      -8.2      3.649      6.542
REMARK  Name = 
REMARK  8 active torsions:
REMARK  status: ('A' for Active; 'I' for Inactive)
REMARK    1  A    between atoms: C_1  and  C_2
REMARK    2  A    between atoms: C_2  and  C_3
REMARK    3  A    between atoms: C_2  and  C_4
REMARK    4  A    between atoms: C_7  and  N_8
REMARK    5  A    between atoms: C_9  and  C_11
REMARK    6  A    between atoms: C_11  and  S_12
REMARK    7  A    between atoms: S_12  and  C_13
REMARK    8  A    between atoms: C_15  and  C_16
REMARK                            x       y       z     vdW  Elec       q    Type
REMARK                         _______ _______ _______ _____ _____    ______ ____
ROOT
ATOM      1  C   UNL     1       4.748   5.052  18.069  0.00  0.00    +0.000 A 
ATOM      2  N   UNL     1       4.102   6.267  18.250  0.00  0.00    +0.000 N 
ATOM      3  C   UNL     1       2.748   6.376  18.510  0.00  0.00    +0.000 A 
ATOM      4  N   UNL     1       1.953   5.341  18.545  0.00  0.00    +0.000 NA
ATOM      5  C   UNL     1       2.530   4.136  18.296  0.00  0.00    +0.000 A 
ATOM      6  N   UNL     1       1.931   2.986  18.246  0.00  0.00    +0.000 NA
ATOM      7  C   UNL     1       2.979   2.113  17.997  0.00  0.00    +0.000 A 
ATOM      8  N   UNL     1       4.178   2.617  17.898  0.00  0.00    +0.000 NA
ATOM      9  C   UNL     1       3.963   3.959  18.068  0.00  0.00    +0.000 A 
ATOM     10  H   UNL     1       4.666   7.116  18.271  0.00  0.00    +0.000 HD
ENDROOT
BRANCH   3  11
ATOM     11  C   UNL     1       2.159   7.720  18.778  0.00  0.00    +0.000 A 
ATOM     12  C   UNL     1       2.178   8.701  17.778  0.00  0.00    +0.000 A 
ATOM     13  C   UNL     1       1.630   9.964  18.025  0.00  0.00    +0.000 A 
ATOM     14  C   UNL     1       1.069  10.253  19.269  0.00  0.00    +0.000 A 
ATOM     15  C   UNL     1       1.049   9.280  20.267  0.00  0.00    +0.000 A 
ATOM     16  C   UNL     1       1.593   8.023  20.017  0.00  0.00    +0.000 A 
ATOM     17  F   UNL     1       1.575   7.113  21.005  0.00  0.00    +0.000 F 
ENDBRANCH   3  11
BRANCH   1  18
ATOM     18  S   UNL     1       6.474   4.796  17.862  0.00  0.00    +0.000 S 
BRANCH  18  19
ATOM     19  C   UNL     1       7.047   6.230  16.933  0.00  0.00    +0.000 C 
BRANCH  19  21
ATOM     20  N   UNL     1       7.696   8.549  17.365  0.00  0.00    +0.000 N 
ATOM     21  C   UNL     1       7.725   7.247  17.827  0.00  0.00    +0.000 C 
ATOM     22  O   UNL     1       8.254   6.855  18.868  0.00  0.00    +0.000 OA
ATOM     23  H   UNL     1       7.168   8.733  16.519  0.00  0.00    +0.000 HD
BRANCH  20  27
ATOM     24  C   UNL     1       9.642  11.807  19.260  0.00  0.00    +0.000 A 
ATOM     25  C   UNL     1       8.853  12.025  18.126  0.00  0.00    +0.000 A 
ATOM     26  C   UNL     1       8.196  10.965  17.496  0.00  0.00    +0.000 A 
ATOM     27  C   UNL     1       8.310   9.661  17.981  0.00  0.00    +0.000 A 
ATOM     28  C   UNL     1       9.068   9.441  19.134  0.00  0.00    +0.000 A 
ATOM     29  C   UNL     1       9.742  10.501  19.757  0.00  0.00    +0.000 A 
BRANCH  24  31
ATOM     30  C   UNL     1       9.886  13.181  21.356  0.00  0.00    +0.000 C 
ATOM     31  C   UNL     1      10.349  12.980  19.912  0.00  0.00    +0.000 C 
ATOM     32  C   UNL     1      11.870  12.838  19.833  0.00  0.00    +0.000 C 
ENDBRANCH  24  31
ENDBRANCH  20  27
ENDBRANCH  19  21
ENDBRANCH  18  19
ENDBRANCH   1  18
TORSDOF 6
ENDMDL
MODEL 7
REMARK VINA RESULT:      -8.1      3.527      6.403
REMARK  Name = 
REMARK  8 active torsions:
REMARK  status: ('A' for Active; 'I' for Inactive)
REMARK    1  A    between atoms: C_1  and  C_2
REMARK    2  A    between atoms: C_2  and  C_3
REMARK    3  A    between atoms: C_2  and  C_4
REMARK    4  A    between atoms: C_7  and  N_8
REMARK    5  A    between atoms: C_9  and  C_11
REMARK    6  A    between atoms: C_11  and  S_12
REMARK    7  A    between atoms: S_12  and  C_13
REMARK    8  A    between atoms: C_15  and  C_16
REMARK                            x       y       z     vdW  Elec       q    Type
REMARK                         _______ _______ _______ _____ _____    ______ ____
ROOT
ATOM      1  C   UNL     1       4.822   5.055  18.457  0.00  0.00    +0.000 A 
ATOM      2  N   UNL     1       4.043   6.203  18.445  0.00  0.00    +0.000 N 
ATOM      3  C   UNL     1       2.938   6.379  19.257  0.00  0.00    +0.000 A 
ATOM      4  N   UNL     1       2.501   5.450  20.063  0.00  0.00    +0.000 NA
ATOM      5  C   UNL     1       3.190   4.278  20.052  0.00  0.00    +0.000 A 
ATOM      6  N   UNL     1       2.918   3.213  20.740  0.00  0.00    +0.000 NA
ATOM      7  C   UNL     1       3.940   2.350  20.376  0.00  0.00    +0.000 A 
ATOM      8  N   UNL     1       4.831   2.789  19.530  0.00  0.00    +0.000 NA
ATOM      9  C   UNL     1       4.394   4.057  19.252  0.00  0.00    +0.000 A 
ATOM     10  H   UNL     1       4.344   6.985  17.866  0.00  0.00    +0.000 HD
ENDROOT
BRANCH   3  11
ATOM     11  C   UNL     1       2.212   7.683  19.236  0.00  0.00    +0.000 A 
ATOM     12  C   UNL     1       1.515   8.110  20.373  0.00  0.00    +0.000 A 
ATOM     13  C   UNL     1       0.831   9.330  20.358  0.00  0.00    +0.000 A 
ATOM     14  C   UNL     1       0.835  10.122  19.209  0.00  0.00    +0.000 A 
ATOM     15  C   UNL     1       1.526   9.699  18.074  0.00  0.00    +0.000 A 
ATOM     16  C   UNL     1       2.209   8.485  18.094  0.00  0.00    +0.000 A 
ATOM     17  F   UNL     1       2.850   8.097  16.980  0.00  0.00    +0.000 F 
ENDBRANCH   3  11
BRANCH   1  18
ATOM     18  S   UNL     1       6.311   4.781  17.565  0.00  0.00    +0.000 S 
BRANCH  18  19
ATOM     19  C   UNL     1       6.698   6.372  16.810  0.00  0.00    +0.000 C 
BRANCH  19  21
ATOM     20  N   UNL     1       7.561   8.589  17.382  0.00  0.00    +0.000 N 
ATOM     21  C   UNL     1       7.507   7.255  17.737  0.00  0.00    +0.000 C 
ATOM     22  O   UNL     1       8.059   6.737  18.709  0.00  0.00    +0.000 OA
ATOM     23  H   UNL     1       7.003   8.884  16.587  0.00  0.00    +0.000 HD
BRANCH  20  27
ATOM     24  C   UNL     1       9.693  11.701  19.320  0.00  0.00    +0.000 A 
ATOM     25  C   UNL     1       9.689  10.411  19.861  0.00  0.00    +0.000 A 
ATOM     26  C   UNL     1       9.001   9.372  19.230  0.00  0.00    +0.000 A 
ATOM     27  C   UNL     1       8.299   9.593  18.043  0.00  0.00    +0.000 A 
ATOM     28  C   UNL     1       8.328  10.871  17.478  0.00  0.00    +0.000 A 
ATOM     29  C   UNL     1       9.003  11.919  18.120  0.00  0.00    +0.000 A 
BRANCH  24  31
ATOM     30  C   UNL     1      10.631  14.031  19.141  0.00  0.00    +0.000 C 
ATOM     31  C   UNL     1      10.442  12.807  20.039  0.00  0.00    +0.000 C 
ATOM     32  C   UNL     1       9.762  13.187  21.355  0.00  0.00    +0.000 C 
ENDBRANCH  24  31
ENDBRANCH  20  27
ENDBRANCH  19  21
ENDBRANCH  18  19
ENDBRANCH   1  18
TORSDOF 6
ENDMDL
MODEL 8
REMARK VINA RESULT:      -8.1      1.123      1.673
REMARK  Name = 
REMARK  8 active torsions:
REMARK  status: ('A' for Active; 'I' for Inactive)
REMARK    1  A    between atoms: C_1  and  C_2
REMARK    2  A    between atoms: C_2  and  C_3
REMARK    3  A    between atoms: C_2  and  C_4
REMARK    4  A    between atoms: C_7  and  N_8
REMARK    5  A    between atoms: C_9  and  C_11
REMARK    6  A    between atoms: C_11  and  S_12
REMARK    7  A    between atoms: S_12  and  C_13
REMARK    8  A    between atoms: C_15  and  C_16
REMARK                            x       y       z     vdW  Elec       q    Type
REMARK                         _______ _______ _______ _____ _____    ______ ____
ROOT
ATOM      1  C   UNL     1       5.184   5.227  19.377  0.00  0.00    +0.000 A 
ATOM      2  N   UNL     1       4.423   6.376  19.216  0.00  0.00    +0.000 N 
ATOM      3  C   UNL     1       3.047   6.361  19.076  0.00  0.00    +0.000 A 
ATOM      4  N   UNL     1       2.356   5.255  19.024  0.00  0.00    +0.000 NA
ATOM      5  C   UNL     1       3.071   4.101  19.102  0.00  0.00    +0.000 A 
ATOM      6  N   UNL     1       2.601   2.893  19.038  0.00  0.00    +0.000 NA
ATOM      7  C   UNL     1       3.740   2.119  19.201  0.00  0.00    +0.000 A 
ATOM      8  N   UNL     1       4.875   2.739  19.372  0.00  0.00    +0.000 NA
ATOM      9  C   UNL     1       4.518   4.060  19.301  0.00  0.00    +0.000 A 
ATOM     10  H   UNL     1       4.891   7.279  19.281  0.00  0.00    +0.000 HD
ENDROOT
BRANCH   3  11
ATOM     11  C   UNL     1       2.304   7.653  18.995  0.00  0.00    +0.000 A 
ATOM     12  C   UNL     1       2.317   8.391  17.805  0.00  0.00    +0.000 A 
ATOM     13  C   UNL     1       1.626   9.604  17.725  0.00  0.00    +0.000 A 
ATOM     14  C   UNL     1       0.927  10.087  18.832  0.00  0.00    +0.000 A 
ATOM     15  C   UNL     1       0.913   9.356  20.019  0.00  0.00    +0.000 A 
ATOM     16  C   UNL     1       1.600   8.147  20.095  0.00  0.00    +0.000 A 
ATOM     17  F   UNL     1       1.584   7.476  21.258  0.00  0.00    +0.000 F 
ENDBRANCH   3  11
BRANCH   1  18
ATOM     18  S   UNL     1       6.911   5.142  19.688  0.00  0.00    +0.000 S 
BRANCH  18  19
ATOM     19  C   UNL     1       7.631   6.442  18.667  0.00  0.00    +0.000 C 
BRANCH  19  21
ATOM     20  N   UNL     1       6.741   5.032  16.877  0.00  0.00    +0.000 N 
ATOM     21  C   UNL     1       7.318   6.245  17.199  0.00  0.00    +0.000 C 
ATOM     22  O   UNL     1       7.605   7.147  16.411  0.00  0.00    +0.000 OA
ATOM     23  H   UNL     1       6.504   4.409  17.643  0.00  0.00    +0.000 HD
BRANCH  20  27
ATOM     24  C   UNL     1       5.904   3.676  12.947  0.00  0.00    +0.000 A 
ATOM     25  C   UNL     1       4.968   3.485  13.968  0.00  0.00    +0.000 A 
ATOM     26  C   UNL     1       5.223   3.936  15.266  0.00  0.00    +0.000 A 
ATOM     27  C   UNL     1       6.418   4.587  15.578  0.00  0.00    +0.000 A 
ATOM     28  C   UNL     1       7.343   4.812  14.554  0.00  0.00    +0.000 A 
ATOM     29  C   UNL     1       7.096   4.345  13.256  0.00  0.00    +0.000 A 
BRANCH  24  31
ATOM     30  C   UNL     1       6.094   1.731  11.358  0.00  0.00    +0.000 C 
ATOM     31  C   UNL     1       5.598   3.165  11.552  0.00  0.00    +0.000 C 
ATOM     32  C   UNL     1       4.109   3.285  11.220  0.00  0.00    +0.000 C 
ENDBRANCH  24  31
ENDBRANCH  20  27
ENDBRANCH  19  21
ENDBRANCH  18  19
ENDBRANCH   1  18
TORSDOF 6
ENDMDL
MODEL 9
REMARK VINA RESULT:      -8.0      3.931      6.838
REMARK  Name = 
REMARK  8 active torsions:
REMARK  status: ('A' for Active; 'I' for Inactive)
REMARK    1  A    between atoms: C_1  and  C_2
REMARK    2  A    between atoms: C_2  and  C_3
REMARK    3  A    between atoms: C_2  and  C_4
REMARK    4  A    between atoms: C_7  and  N_8
REMARK    5  A    between atoms: C_9  and  C_11
REMARK    6  A    between atoms: C_11  and  S_12
REMARK    7  A    between atoms: S_12  and  C_13
REMARK    8  A    between atoms: C_15  and  C_16
REMARK                            x       y       z     vdW  Elec       q    Type
REMARK                         _______ _______ _______ _____ _____    ______ ____
ROOT
ATOM      1  C   UNL     1       5.096   5.317  18.483  0.00  0.00    +0.000 A 
ATOM      2  N   UNL     1       4.270   6.429  18.414  0.00  0.00    +0.000 N 
ATOM      3  C   UNL     1       3.008   6.475  18.980  0.00  0.00    +0.000 A 
ATOM      4  N   UNL     1       2.467   5.447  19.576  0.00  0.00    +0.000 NA
ATOM      5  C   UNL     1       3.212   4.310  19.599  0.00  0.00    +0.000 A 
ATOM      6  N   UNL     1       2.863   3.167  20.104  0.00  0.00    +0.000 NA
ATOM      7  C   UNL     1       3.990   2.388  19.888  0.00  0.00    +0.000 A 
ATOM      8  N   UNL     1       5.012   2.949  19.303  0.00  0.00    +0.000 NA
ATOM      9  C   UNL     1       4.569   4.223  19.063  0.00  0.00    +0.000 A 
ATOM     10  H   UNL     1       4.640   7.281  17.994  0.00  0.00    +0.000 HD
ENDROOT
BRANCH   3  11
ATOM     11  C   UNL     1       2.227   7.745  18.929  0.00  0.00    +0.000 A 
ATOM     12  C   UNL     1       2.121   8.450  17.724  0.00  0.00    +0.000 A 
ATOM     13  C   UNL     1       1.392   9.643  17.671  0.00  0.00    +0.000 A 
ATOM     14  C   UNL     1       0.776  10.139  18.821  0.00  0.00    +0.000 A 
ATOM     15  C   UNL     1       0.882   9.441  20.024  0.00  0.00    +0.000 A 
ATOM     16  C   UNL     1       1.605   8.251  20.071  0.00  0.00    +0.000 A 
ATOM     17  F   UNL     1       1.704   7.613  21.248  0.00  0.00    +0.000 F 
ENDBRANCH   3  11
BRANCH   1  18
ATOM     18  S   UNL     1       6.754   5.198  17.914  0.00  0.00    +0.000 S 
BRANCH  18  19
ATOM     19  C   UNL     1       7.099   6.796  17.154  0.00  0.00    +0.000 C 
BRANCH  19  21
ATOM     20  N   UNL     1       7.925   9.026  17.727  0.00  0.00    +0.000 N 
ATOM     21  C   UNL     1       7.923   7.686  18.061  0.00  0.00    +0.000 C 
ATOM     22  O   UNL     1       8.531   7.168  18.998  0.00  0.00    +0.000 OA
ATOM     23  H   UNL     1       7.325   9.318  16.962  0.00  0.00    +0.000 HD
BRANCH  20  27
ATOM     24  C   UNL     1      10.063  12.167  19.612  0.00  0.00    +0.000 A 
ATOM     25  C   UNL     1       9.994  10.906  20.213  0.00  0.00    +0.000 A 
ATOM     26  C   UNL     1       9.303   9.857  19.601  0.00  0.00    +0.000 A 
ATOM     27  C   UNL     1       8.663  10.040  18.373  0.00  0.00    +0.000 A 
ATOM     28  C   UNL     1       8.758  11.288  17.750  0.00  0.00    +0.000 A 
ATOM     29  C   UNL     1       9.436  12.345  18.372  0.00  0.00    +0.000 A 
BRANCH  24  31
ATOM     30  C   UNL     1      11.326  14.325  19.313  0.00  0.00    +0.000 C 
ATOM     31  C   UNL     1      10.813  13.285  20.311  0.00  0.00    +0.000 C 
ATOM     32  C   UNL     1       9.964  13.938  21.404  0.00  0.00    +0.000 C 
ENDBRANCH  24  31
ENDBRANCH  20  27
ENDBRANCH  19  21
ENDBRANCH  18  19
ENDBRANCH   1  18
TORSDOF 6
ENDMDL
