MODEL 1
REMARK VINA RESULT:      -7.9      0.000      0.000
REMARK  Name = 
REMARK  4 active torsions:
REMARK  status: ('A' for Active; 'I' for Inactive)
REMARK    1  A    between atoms: C_1  and  C_2
REMARK    2  A    between atoms: C_2  and  C_3
REMARK    3  A    between atoms: C_3  and  C_4
REMARK    4  A    between atoms: C_9  and  C_10
REMARK                            x       y       z     vdW  Elec       q    Type
REMARK                         _______ _______ _______ _____ _____    ______ ____
ROOT
ATOM      1  C   UNL     1       6.179   4.630  14.484  0.00  0.00    +0.000 A 
ATOM      2  N   UNL     1       7.390   5.171  14.440  0.00  0.00    +0.000 NA
ATOM      3  N   UNL     1       7.596   5.900  15.619  0.00  0.00    +0.000 NA
ATOM      4  C   UNL     1       6.502   5.764  16.311  0.00  0.00    +0.000 A 
ATOM      5  S   UNL     1       5.866   6.262  17.820  0.00  0.00    +0.000 S 
ATOM      6  C   UNL     1       4.412   5.345  17.374  0.00  0.00    +0.000 A 
ATOM      7  N   UNL     1       4.405   4.741  16.220  0.00  0.00    +0.000 NA
ATOM      8  N   UNL     1       5.601   5.000  15.660  0.00  0.00    +0.000 N 
ENDROOT
BRANCH   6   9
ATOM      9  C   UNL     1       3.227   5.275  18.311  0.00  0.00    +0.000 C 
ATOM     10  C   UNL     1       3.648   4.733  19.688  0.00  0.00    +0.000 C 
ATOM     11  C   UNL     1       4.156   3.295  19.686  0.00  0.00    +0.000 C 
ATOM     12  S   UNL     1       2.983   2.159  18.976  0.00  0.00    +0.000 S 
ATOM     13  O   UNL     1       3.704   0.957  18.591  0.00  0.00    +0.000 OA
ATOM     14  O   UNL     1       1.852   2.089  19.875  0.00  0.00    +0.000 OA
ATOM     15  C   UNL     1       2.429   2.961  17.483  0.00  0.00    +0.000 C 
ATOM     16  C   UNL     1       2.095   4.435  17.696  0.00  0.00    +0.000 C 
ENDBRANCH   6   9
BRANCH   1  17
ATOM     17  C   UNL     1       5.499   3.754  13.491  0.00  0.00    +0.000 C 
BRANCH  17  19
ATOM     18  C   UNL     1       5.864   2.265  11.477  0.00  0.00    +0.000 C 
ATOM     19  C   UNL     1       6.420   3.404  12.322  0.00  0.00    +0.000 C 
ENDBRANCH  17  19
ENDBRANCH   1  17
TORSDOF 3
ENDMDL
MODEL 2
REMARK VINA RESULT:      -7.9      1.316      1.897
REMARK  Name = 
REMARK  4 active torsions:
REMARK  status: ('A' for Active; 'I' for Inactive)
REMARK    1  A    between atoms: C_1  and  C_2
REMARK    2  A    between atoms: C_2  and  C_3
REMARK    3  A    between atoms: C_3  and  C_4
REMARK    4  A    between atoms: C_9  and  C_10
REMARK                            x       y       z     vdW  Elec       q    Type
REMARK                         _______ _______ _______ _____ _____    ______ ____
ROOT
ATOM      1  C   UNL     1       6.227   4.663  14.765  0.00  0.00    +0.000 A 
ATOM      2  N   UNL     1       7.208   5.535  14.568  0.00  0.00    +0.000 NA
ATOM      3  N   UNL     1       7.615   6.036  15.812  0.00  0.00    +0.000 NA
ATOM      4  C   UNL     1       6.862   5.443  16.692  0.00  0.00    +0.000 A 
ATOM      5  S   UNL     1       6.653   5.411  18.391  0.00  0.00    +0.000 S 
ATOM      6  C   UNL     1       5.374   4.216  18.090  0.00  0.00    +0.000 A 
ATOM      7  N   UNL     1       5.128   3.886  16.854  0.00  0.00    +0.000 NA
ATOM      8  N   UNL     1       5.992   4.596  16.105  0.00  0.00    +0.000 N 
ENDROOT
BRANCH   6   9
ATOM      9  C   UNL     1       4.600   3.609  19.239  0.00  0.00    +0.000 C 
ATOM     10  C   UNL     1       3.857   2.338  18.789  0.00  0.00    +0.000 C 
ATOM     11  C   UNL     1       2.773   2.564  17.739  0.00  0.00    +0.000 C 
ATOM     12  S   UNL     1       1.562   3.762  18.258  0.00  0.00    +0.000 S 
ATOM     13  O   UNL     1       0.880   4.247  17.070  0.00  0.00    +0.000 OA
ATOM     14  O   UNL     1       0.819   3.178  19.353  0.00  0.00    +0.000 OA
ATOM     15  C   UNL     1       2.521   5.110  18.922  0.00  0.00    +0.000 C 
ATOM     16  C   UNL     1       3.635   4.638  19.852  0.00  0.00    +0.000 C 
ENDBRANCH   6   9
BRANCH   1  17
ATOM     17  C   UNL     1       5.475   3.847  13.772  0.00  0.00    +0.000 C 
BRANCH  17  19
ATOM     18  C   UNL     1       5.700   2.487  11.650  0.00  0.00    +0.000 C 
ATOM     19  C   UNL     1       6.300   3.590  12.512  0.00  0.00    +0.000 C 
ENDBRANCH  17  19
ENDBRANCH   1  17
TORSDOF 3
ENDMDL
MODEL 3
REMARK VINA RESULT:      -7.8      1.228      1.313
REMARK  Name = 
REMARK  4 active torsions:
REMARK  status: ('A' for Active; 'I' for Inactive)
REMARK    1  A    between atoms: C_1  and  C_2
REMARK    2  A    between atoms: C_2  and  C_3
REMARK    3  A    between atoms: C_3  and  C_4
REMARK    4  A    between atoms: C_9  and  C_10
REMARK                            x       y       z     vdW  Elec       q    Type
REMARK                         _______ _______ _______ _____ _____    ______ ____
ROOT
ATOM      1  C   UNL     1       6.313   4.547  15.492  0.00  0.00    +0.000 A 
ATOM      2  N   UNL     1       7.599   4.378  15.774  0.00  0.00    +0.000 NA
ATOM      3  N   UNL     1       7.788   4.603  17.144  0.00  0.00    +0.000 NA
ATOM      4  C   UNL     1       6.612   4.895  17.617  0.00  0.00    +0.000 A 
ATOM      5  S   UNL     1       5.894   5.288  19.121  0.00  0.00    +0.000 S 
ATOM      6  C   UNL     1       4.363   5.386  18.227  0.00  0.00    +0.000 A 
ATOM      7  N   UNL     1       4.391   5.156  16.945  0.00  0.00    +0.000 NA
ATOM      8  N   UNL     1       5.675   4.881  16.648  0.00  0.00    +0.000 N 
ENDROOT
BRANCH   6   9
ATOM      9  C   UNL     1       3.073   5.725  18.941  0.00  0.00    +0.000 C 
ATOM     10  C   UNL     1       3.017   5.051  20.323  0.00  0.00    +0.000 C 
ATOM     11  C   UNL     1       2.991   3.525  20.294  0.00  0.00    +0.000 C 
ATOM     12  S   UNL     1       1.653   2.886  19.308  0.00  0.00    +0.000 S 
ATOM     13  O   UNL     1       1.975   1.513  18.959  0.00  0.00    +0.000 OA
ATOM     14  O   UNL     1       0.420   3.207  19.994  0.00  0.00    +0.000 OA
ATOM     15  C   UNL     1       1.697   3.853  17.811  0.00  0.00    +0.000 C 
ATOM     16  C   UNL     1       1.857   5.346  18.079  0.00  0.00    +0.000 C 
ENDBRANCH   6   9
BRANCH   1  17
ATOM     17  C   UNL     1       5.604   4.404  14.191  0.00  0.00    +0.000 C 
BRANCH  17  19
ATOM     18  C   UNL     1       5.772   3.057  12.056  0.00  0.00    +0.000 C 
ATOM     19  C   UNL     1       6.529   3.866  13.100  0.00  0.00    +0.000 C 
ENDBRANCH  17  19
ENDBRANCH   1  17
TORSDOF 3
ENDMDL
MODEL 4
REMARK VINA RESULT:      -7.7      0.966      1.048
REMARK  Name = 
REMARK  4 active torsions:
REMARK  status: ('A' for Active; 'I' for Inactive)
REMARK    1  A    between atoms: C_1  and  C_2
REMARK    2  A    between atoms: C_2  and  C_3
REMARK    3  A    between atoms: C_3  and  C_4
REMARK    4  A    between atoms: C_9  and  C_10
REMARK                            x       y       z     vdW  Elec       q    Type
REMARK                         _______ _______ _______ _____ _____    ______ ____
ROOT
ATOM      1  C   UNL     1       6.509   4.391  14.587  0.00  0.00    +0.000 A 
ATOM      2  N   UNL     1       7.574   5.176  14.694  0.00  0.00    +0.000 NA
ATOM      3  N   UNL     1       7.390   6.028  15.792  0.00  0.00    +0.000 NA
ATOM      4  C   UNL     1       6.228   5.715  16.288  0.00  0.00    +0.000 A 
ATOM      5  S   UNL     1       5.216   6.187  17.586  0.00  0.00    +0.000 S 
ATOM      6  C   UNL     1       4.091   4.943  17.002  0.00  0.00    +0.000 A 
ATOM      7  N   UNL     1       4.435   4.258  15.949  0.00  0.00    +0.000 NA
ATOM      8  N   UNL     1       5.645   4.723  15.585  0.00  0.00    +0.000 N 
ENDROOT
BRANCH   6   9
ATOM      9  C   UNL     1       2.779   4.695  17.712  0.00  0.00    +0.000 C 
ATOM     10  C   UNL     1       2.854   5.155  19.180  0.00  0.00    +0.000 C 
ATOM     11  C   UNL     1       3.851   4.387  20.043  0.00  0.00    +0.000 C 
ATOM     12  S   UNL     1       3.558   2.631  20.024  0.00  0.00    +0.000 S 
ATOM     13  O   UNL     1       4.779   1.972  20.457  0.00  0.00    +0.000 OA
ATOM     14  O   UNL     1       2.306   2.395  20.708  0.00  0.00    +0.000 OA
ATOM     15  C   UNL     1       3.309   2.237  18.303  0.00  0.00    +0.000 C 
ATOM     16  C   UNL     1       2.371   3.216  17.604  0.00  0.00    +0.000 C 
ENDBRANCH   6   9
BRANCH   1  17
ATOM     17  C   UNL     1       6.229   3.309  13.604  0.00  0.00    +0.000 C 
BRANCH  17  19
ATOM     18  C   UNL     1       4.598   3.273  11.670  0.00  0.00    +0.000 C 
ATOM     19  C   UNL     1       5.882   3.872  12.226  0.00  0.00    +0.000 C 
ENDBRANCH  17  19
ENDBRANCH   1  17
TORSDOF 3
ENDMDL
MODEL 5
REMARK VINA RESULT:      -7.5      1.304      1.606
REMARK  Name = 
REMARK  4 active torsions:
REMARK  status: ('A' for Active; 'I' for Inactive)
REMARK    1  A    between atoms: C_1  and  C_2
REMARK    2  A    between atoms: C_2  and  C_3
REMARK    3  A    between atoms: C_3  and  C_4
REMARK    4  A    between atoms: C_9  and  C_10
REMARK                            x       y       z     vdW  Elec       q    Type
REMARK                         _______ _______ _______ _____ _____    ______ ____
ROOT
ATOM      1  C   UNL     1       6.272   4.963  15.666  0.00  0.00    +0.000 A 
ATOM      2  N   UNL     1       7.091   5.997  15.809  0.00  0.00    +0.000 NA
ATOM      3  N   UNL     1       6.515   6.903  16.710  0.00  0.00    +0.000 NA
ATOM      4  C   UNL     1       5.381   6.371  17.064  0.00  0.00    +0.000 A 
ATOM      5  S   UNL     1       4.060   6.728  18.093  0.00  0.00    +0.000 S 
ATOM      6  C   UNL     1       3.377   5.180  17.553  0.00  0.00    +0.000 A 
ATOM      7  N   UNL     1       4.061   4.481  16.693  0.00  0.00    +0.000 NA
ATOM      8  N   UNL     1       5.181   5.187  16.451  0.00  0.00    +0.000 N 
ENDROOT
BRANCH   6   9
ATOM      9  C   UNL     1       2.044   4.700  18.081  0.00  0.00    +0.000 C 
ATOM     10  C   UNL     1       1.841   5.142  19.542  0.00  0.00    +0.000 C 
ATOM     11  C   UNL     1       2.830   4.544  20.538  0.00  0.00    +0.000 C 
ATOM     12  S   UNL     1       2.849   2.764  20.494  0.00  0.00    +0.000 S 
ATOM     13  O   UNL     1       4.096   2.319  21.093  0.00  0.00    +0.000 OA
ATOM     14  O   UNL     1       1.576   2.306  21.004  0.00  0.00    +0.000 OA
ATOM     15  C   UNL     1       2.905   2.360  18.758  0.00  0.00    +0.000 C 
ATOM     16  C   UNL     1       1.915   3.174  17.931  0.00  0.00    +0.000 C 
ENDBRANCH   6   9
BRANCH   1  17
ATOM     17  C   UNL     1       6.435   3.735  14.843  0.00  0.00    +0.000 C 
BRANCH  17  19
ATOM     18  C   UNL     1       6.526   3.572  12.319  0.00  0.00    +0.000 C 
ATOM     19  C   UNL     1       5.646   3.821  13.536  0.00  0.00    +0.000 C 
ENDBRANCH  17  19
ENDBRANCH   1  17
TORSDOF 3
ENDMDL
MODEL 6
REMARK VINA RESULT:      -7.4      2.445      3.749
REMARK  Name = 
REMARK  4 active torsions:
REMARK  status: ('A' for Active; 'I' for Inactive)
REMARK    1  A    between atoms: C_1  and  C_2
REMARK    2  A    between atoms: C_2  and  C_3
REMARK    3  A    between atoms: C_3  and  C_4
REMARK    4  A    between atoms: C_9  and  C_10
REMARK                            x       y       z     vdW  Elec       q    Type
REMARK                         _______ _______ _______ _____ _____    ______ ____
ROOT
ATOM      1  C   UNL     1       6.668   6.460  16.991  0.00  0.00    +0.000 A 
ATOM      2  N   UNL     1       7.521   5.687  16.330  0.00  0.00    +0.000 NA
ATOM      3  N   UNL     1       6.899   4.459  16.069  0.00  0.00    +0.000 NA
ATOM      4  C   UNL     1       5.708   4.552  16.584  0.00  0.00    +0.000 A 
ATOM      5  S   UNL     1       4.295   3.597  16.735  0.00  0.00    +0.000 S 
ATOM      6  C   UNL     1       3.594   4.986  17.592  0.00  0.00    +0.000 A 
ATOM      7  N   UNL     1       4.339   6.042  17.751  0.00  0.00    +0.000 NA
ATOM      8  N   UNL     1       5.516   5.754  17.165  0.00  0.00    +0.000 N 
ENDROOT
BRANCH   6   9
ATOM      9  C   UNL     1       2.176   4.933  18.116  0.00  0.00    +0.000 C 
ATOM     10  C   UNL     1       2.089   5.545  19.526  0.00  0.00    +0.000 C 
ATOM     11  C   UNL     1       2.871   4.797  20.602  0.00  0.00    +0.000 C 
ATOM     12  S   UNL     1       2.408   3.081  20.711  0.00  0.00    +0.000 S 
ATOM     13  O   UNL     1       3.482   2.373  21.387  0.00  0.00    +0.000 OA
ATOM     14  O   UNL     1       1.054   3.031  21.217  0.00  0.00    +0.000 OA
ATOM     15  C   UNL     1       2.366   2.519  19.020  0.00  0.00    +0.000 C 
ATOM     16  C   UNL     1       1.640   3.491  18.094  0.00  0.00    +0.000 C 
ENDBRANCH   6   9
BRANCH   1  17
ATOM     17  C   UNL     1       6.840   7.856  17.478  0.00  0.00    +0.000 C 
BRANCH  17  19
ATOM     18  C   UNL     1       8.558   9.533  18.277  0.00  0.00    +0.000 C 
ATOM     19  C   UNL     1       8.201   8.059  18.143  0.00  0.00    +0.000 C 
ENDBRANCH  17  19
ENDBRANCH   1  17
TORSDOF 3
ENDMDL
MODEL 7
REMARK VINA RESULT:      -7.3      2.497      4.208
REMARK  Name = 
REMARK  4 active torsions:
REMARK  status: ('A' for Active; 'I' for Inactive)
REMARK    1  A    between atoms: C_1  and  C_2
REMARK    2  A    between atoms: C_2  and  C_3
REMARK    3  A    between atoms: C_3  and  C_4
REMARK    4  A    between atoms: C_9  and  C_10
REMARK                            x       y       z     vdW  Elec       q    Type
REMARK                         _______ _______ _______ _____ _____    ______ ____
ROOT
ATOM      1  C   UNL     1       7.479   6.505  17.399  0.00  0.00    +0.000 A 
ATOM      2  N   UNL     1       7.719   6.470  16.094  0.00  0.00    +0.000 NA
ATOM      3  N   UNL     1       6.967   5.430  15.530  0.00  0.00    +0.000 NA
ATOM      4  C   UNL     1       6.316   4.892  16.519  0.00  0.00    +0.000 A 
ATOM      5  S   UNL     1       5.190   3.629  16.781  0.00  0.00    +0.000 S 
ATOM      6  C   UNL     1       5.236   4.105  18.491  0.00  0.00    +0.000 A 
ATOM      7  N   UNL     1       6.014   5.094  18.827  0.00  0.00    +0.000 NA
ATOM      8  N   UNL     1       6.596   5.508  17.686  0.00  0.00    +0.000 N 
ENDROOT
BRANCH   6   9
ATOM      9  C   UNL     1       4.395   3.377  19.516  0.00  0.00    +0.000 C 
ATOM     10  C   UNL     1       3.711   2.148  18.892  0.00  0.00    +0.000 C 
ATOM     11  C   UNL     1       2.699   2.464  17.794  0.00  0.00    +0.000 C 
ATOM     12  S   UNL     1       1.431   3.590  18.340  0.00  0.00    +0.000 S 
ATOM     13  O   UNL     1       0.825   4.181  17.159  0.00  0.00    +0.000 OA
ATOM     14  O   UNL     1       0.625   2.891  19.316  0.00  0.00    +0.000 OA
ATOM     15  C   UNL     1       2.315   4.877  19.200  0.00  0.00    +0.000 C 
ATOM     16  C   UNL     1       3.370   4.329  20.156  0.00  0.00    +0.000 C 
ENDBRANCH   6   9
BRANCH   1  17
ATOM     17  C   UNL     1       8.013   7.432  18.433  0.00  0.00    +0.000 C 
BRANCH  17  19
ATOM     18  C   UNL     1       8.962   9.751  18.788  0.00  0.00    +0.000 C 
ATOM     19  C   UNL     1       8.063   8.874  17.928  0.00  0.00    +0.000 C 
ENDBRANCH  17  19
ENDBRANCH   1  17
TORSDOF 3
ENDMDL
MODEL 8
REMARK VINA RESULT:      -7.3      1.734      2.430
REMARK  Name = 
REMARK  4 active torsions:
REMARK  status: ('A' for Active; 'I' for Inactive)
REMARK    1  A    between atoms: C_1  and  C_2
REMARK    2  A    between atoms: C_2  and  C_3
REMARK    3  A    between atoms: C_3  and  C_4
REMARK    4  A    between atoms: C_9  and  C_10
REMARK                            x       y       z     vdW  Elec       q    Type
REMARK                         _______ _______ _______ _____ _____    ______ ____
ROOT
ATOM      1  C   UNL     1       6.203   4.517  14.283  0.00  0.00    +0.000 A 
ATOM      2  N   UNL     1       7.304   5.253  14.374  0.00  0.00    +0.000 NA
ATOM      3  N   UNL     1       7.571   5.489  15.729  0.00  0.00    +0.000 NA
ATOM      4  C   UNL     1       6.623   4.887  16.384  0.00  0.00    +0.000 A 
ATOM      5  S   UNL     1       6.149   4.624  18.009  0.00  0.00    +0.000 S 
ATOM      6  C   UNL     1       4.793   3.695  17.336  0.00  0.00    +0.000 A 
ATOM      7  N   UNL     1       4.705   3.599  16.040  0.00  0.00    +0.000 NA
ATOM      8  N   UNL     1       5.756   4.280  15.548  0.00  0.00    +0.000 N 
ENDROOT
BRANCH   6   9
ATOM      9  C   UNL     1       3.781   3.039  18.249  0.00  0.00    +0.000 C 
ATOM     10  C   UNL     1       2.345   3.375  17.806  0.00  0.00    +0.000 C 
ATOM     11  C   UNL     1       1.972   4.852  17.899  0.00  0.00    +0.000 C 
ATOM     12  S   UNL     1       2.220   5.515  19.533  0.00  0.00    +0.000 S 
ATOM     13  O   UNL     1       2.297   6.962  19.418  0.00  0.00    +0.000 OA
ATOM     14  O   UNL     1       1.247   4.891  20.403  0.00  0.00    +0.000 OA
ATOM     15  C   UNL     1       3.829   4.921  20.019  0.00  0.00    +0.000 C 
ATOM     16  C   UNL     1       4.027   3.439  19.714  0.00  0.00    +0.000 C 
ENDBRANCH   6   9
BRANCH   1  17
ATOM     17  C   UNL     1       5.520   3.985  13.073  0.00  0.00    +0.000 C 
BRANCH  17  19
ATOM     18  C   UNL     1       5.827   2.046  11.476  0.00  0.00    +0.000 C 
ATOM     19  C   UNL     1       6.489   3.234  12.161  0.00  0.00    +0.000 C 
ENDBRANCH  17  19
ENDBRANCH   1  17
TORSDOF 3
ENDMDL
MODEL 9
REMARK VINA RESULT:      -7.2      1.504      1.656
REMARK  Name = 
REMARK  4 active torsions:
REMARK  status: ('A' for Active; 'I' for Inactive)
REMARK    1  A    between atoms: C_1  and  C_2
REMARK    2  A    between atoms: C_2  and  C_3
REMARK    3  A    between atoms: C_3  and  C_4
REMARK    4  A    between atoms: C_9  and  C_10
REMARK                            x       y       z     vdW  Elec       q    Type
REMARK                         _______ _______ _______ _____ _____    ______ ____
ROOT
ATOM      1  C   UNL     1       6.244   4.499  15.494  0.00  0.00    +0.000 A 
ATOM      2  N   UNL     1       7.465   4.680  15.983  0.00  0.00    +0.000 NA
ATOM      3  N   UNL     1       7.360   4.938  17.357  0.00  0.00    +0.000 NA
ATOM      4  C   UNL     1       6.088   4.901  17.625  0.00  0.00    +0.000 A 
ATOM      5  S   UNL     1       5.055   5.075  18.979  0.00  0.00    +0.000 S 
ATOM      6  C   UNL     1       3.721   4.763  17.850  0.00  0.00    +0.000 A 
ATOM      7  N   UNL     1       4.018   4.558  16.598  0.00  0.00    +0.000 NA
ATOM      8  N   UNL     1       5.360   4.640  16.520  0.00  0.00    +0.000 N 
ENDROOT
BRANCH   6   9
ATOM      9  C   UNL     1       2.289   4.738  18.336  0.00  0.00    +0.000 C 
ATOM     10  C   UNL     1       2.178   5.340  19.748  0.00  0.00    +0.000 C 
ATOM     11  C   UNL     1       2.914   4.564  20.837  0.00  0.00    +0.000 C 
ATOM     12  S   UNL     1       2.409   2.858  20.918  0.00  0.00    +0.000 S 
ATOM     13  O   UNL     1       3.449   2.119  21.614  0.00  0.00    +0.000 OA
ATOM     14  O   UNL     1       1.041   2.835  21.387  0.00  0.00    +0.000 OA
ATOM     15  C   UNL     1       2.399   2.313  19.220  0.00  0.00    +0.000 C 
ATOM     16  C   UNL     1       1.721   3.309  18.285  0.00  0.00    +0.000 C 
ENDBRANCH   6   9
BRANCH   1  17
ATOM     17  C   UNL     1       5.821   4.179  14.103  0.00  0.00    +0.000 C 
BRANCH  17  19
ATOM     18  C   UNL     1       6.668   3.325  11.877  0.00  0.00    +0.000 C 
ATOM     19  C   UNL     1       7.019   4.063  13.161  0.00  0.00    +0.000 C 
ENDBRANCH  17  19
ENDBRANCH   1  17
TORSDOF 3
ENDMDL
