MODEL 1
REMARK VINA RESULT:      -7.3      0.000      0.000
REMARK  Name = 
REMARK  10 active torsions:
REMARK  status: ('A' for Active; 'I' for Inactive)
REMARK    1  A    between atoms: C_1  and  C_2
REMARK    2  A    between atoms: C_2  and  O_3
REMARK    3  A    between atoms: O_3  and  C_4
REMARK    4  A    between atoms: C_9  and  N_10
REMARK    5  A    between atoms: C_11  and  C_12
REMARK    6  A    between atoms: C_12  and  O_13
REMARK    7  A    between atoms: O_13  and  C_14
REMARK    8  A    between atoms: C_22  and  S_23
REMARK    9  A    between atoms: S_23  and  C_24
REMARK   10  A    between atoms: C_24  and  C_25
REMARK                            x       y       z     vdW  Elec       q    Type
REMARK                         _______ _______ _______ _____ _____    ______ ____
ROOT
ATOM      1  N   UNL     1       4.689   5.183  17.007  0.00  0.00    +0.000 N 
ATOM      2  C   UNL     1       4.163   6.468  17.267  0.00  0.00    +0.000 A 
ATOM      3  N   UNL     1       4.490   7.285  16.283  0.00  0.00    +0.000 NA
ATOM      4  N   UNL     1       5.235   6.600  15.377  0.00  0.00    +0.000 NA
ATOM      5  C   UNL     1       5.377   5.366  15.804  0.00  0.00    +0.000 A 
ENDROOT
BRANCH   1  11
ATOM      6  C   UNL     1       5.113   3.833  19.098  0.00  0.00    +0.000 A 
ATOM      7  C   UNL     1       4.952   2.590  19.746  0.00  0.00    +0.000 A 
ATOM      8  C   UNL     1       4.252   1.537  19.159  0.00  0.00    +0.000 A 
ATOM      9  C   UNL     1       3.649   1.721  17.930  0.00  0.00    +0.000 A 
ATOM     10  C   UNL     1       3.755   2.956  17.294  0.00  0.00    +0.000 A 
ATOM     11  C   UNL     1       4.520   4.014  17.829  0.00  0.00    +0.000 A 
BRANCH   6  12
ATOM     12  O   UNL     1       5.900   4.821  19.634  0.00  0.00    +0.000 OA
BRANCH  12  14
ATOM     13  C   UNL     1       8.157   5.643  19.916  0.00  0.00    +0.000 C 
ATOM     14  C   UNL     1       7.108   5.153  18.935  0.00  0.00    +0.000 C 
ENDBRANCH  12  14
ENDBRANCH   6  12
ENDBRANCH   1  11
BRANCH   2  15
ATOM     15  C   UNL     1       3.223   6.881  18.369  0.00  0.00    +0.000 C 
BRANCH  15  16
ATOM     16  O   UNL     1       2.036   6.086  18.256  0.00  0.00    +0.000 OA
BRANCH  16  17
ATOM     17  C   UNL     1       1.816   5.154  19.240  0.00  0.00    +0.000 A 
ATOM     18  C   UNL     1       1.062   4.041  18.855  0.00  0.00    +0.000 A 
ATOM     19  C   UNL     1       0.786   3.012  19.761  0.00  0.00    +0.000 A 
ATOM     20  C   UNL     1       1.282   3.080  21.060  0.00  0.00    +0.000 A 
ATOM     21  C   UNL     1       2.055   4.174  21.446  0.00  0.00    +0.000 A 
ATOM     22  C   UNL     1       2.323   5.211  20.540  0.00  0.00    +0.000 A 
ENDBRANCH  16  17
ENDBRANCH  15  16
ENDBRANCH   2  15
BRANCH   5  23
ATOM     23  S   UNL     1       6.489   4.262  15.040  0.00  0.00    +0.000 S 
BRANCH  23  24
ATOM     24  C   UNL     1       5.560   3.815  13.527  0.00  0.00    +0.000 C 
BRANCH  24  25
ATOM     25  C   UNL     1       6.446   3.438  12.345  0.00  0.00    +0.000 C 
ATOM     26  N   UNL     1       6.318   2.196  11.803  0.00  0.00    +0.000 N 
ATOM     27  O   UNL     1       7.242   4.234  11.842  0.00  0.00    +0.000 OA
ATOM     28  H   UNL     1       5.780   1.480  12.274  0.00  0.00    +0.000 HD
ATOM     29  H   UNL     1       6.946   1.937  11.054  0.00  0.00    +0.000 HD
ENDBRANCH  24  25
ENDBRANCH  23  24
ENDBRANCH   5  23
TORSDOF 9
ENDMDL
MODEL 2
REMARK VINA RESULT:      -7.1      2.145      3.002
REMARK  Name = 
REMARK  10 active torsions:
REMARK  status: ('A' for Active; 'I' for Inactive)
REMARK    1  A    between atoms: C_1  and  C_2
REMARK    2  A    between atoms: C_2  and  O_3
REMARK    3  A    between atoms: O_3  and  C_4
REMARK    4  A    between atoms: C_9  and  N_10
REMARK    5  A    between atoms: C_11  and  C_12
REMARK    6  A    between atoms: C_12  and  O_13
REMARK    7  A    between atoms: O_13  and  C_14
REMARK    8  A    between atoms: C_22  and  S_23
REMARK    9  A    between atoms: S_23  and  C_24
REMARK   10  A    between atoms: C_24  and  C_25
REMARK                            x       y       z     vdW  Elec       q    Type
REMARK                         _______ _______ _______ _____ _____    ______ ____
ROOT
ATOM      1  N   UNL     1       4.386   5.108  17.001  0.00  0.00    +0.000 N 
ATOM      2  C   UNL     1       4.067   6.468  17.213  0.00  0.00    +0.000 A 
ATOM      3  N   UNL     1       4.651   7.206  16.286  0.00  0.00    +0.000 NA
ATOM      4  N   UNL     1       5.367   6.392  15.468  0.00  0.00    +0.000 NA
ATOM      5  C   UNL     1       5.235   5.156  15.892  0.00  0.00    +0.000 A 
ENDROOT
BRANCH   1  11
ATOM      6  C   UNL     1       4.660   3.350  18.792  0.00  0.00    +0.000 A 
ATOM      7  C   UNL     1       4.117   2.198  19.400  0.00  0.00    +0.000 A 
ATOM      8  C   UNL     1       2.885   1.670  19.014  0.00  0.00    +0.000 A 
ATOM      9  C   UNL     1       2.142   2.315  18.044  0.00  0.00    +0.000 A 
ATOM     10  C   UNL     1       2.639   3.480  17.463  0.00  0.00    +0.000 A 
ATOM     11  C   UNL     1       3.914   3.994  17.780  0.00  0.00    +0.000 A 
BRANCH   6  12
ATOM     12  O   UNL     1       5.923   3.792  19.099  0.00  0.00    +0.000 OA
BRANCH  12  14
ATOM     13  C   UNL     1       7.381   5.719  19.038  0.00  0.00    +0.000 C 
ATOM     14  C   UNL     1       6.058   5.156  19.522  0.00  0.00    +0.000 C 
ENDBRANCH  12  14
ENDBRANCH   6  12
ENDBRANCH   1  11
BRANCH   2  15
ATOM     15  C   UNL     1       3.089   7.050  18.199  0.00  0.00    +0.000 C 
BRANCH  15  16
ATOM     16  O   UNL     1       2.664   8.325  17.698  0.00  0.00    +0.000 OA
BRANCH  16  17
ATOM     17  C   UNL     1       1.622   8.933  18.352  0.00  0.00    +0.000 A 
ATOM     18  C   UNL     1       1.584   8.734  19.736  0.00  0.00    +0.000 A 
ATOM     19  C   UNL     1       0.581   9.318  20.518  0.00  0.00    +0.000 A 
ATOM     20  C   UNL     1      -0.382  10.126  19.921  0.00  0.00    +0.000 A 
ATOM     21  C   UNL     1      -0.338  10.349  18.546  0.00  0.00    +0.000 A 
ATOM     22  C   UNL     1       0.661   9.755  17.760  0.00  0.00    +0.000 A 
ENDBRANCH  16  17
ENDBRANCH  15  16
ENDBRANCH   2  15
BRANCH   5  23
ATOM     23  S   UNL     1       6.219   3.867  15.254  0.00  0.00    +0.000 S 
BRANCH  23  24
ATOM     24  C   UNL     1       6.432   4.411  13.519  0.00  0.00    +0.000 C 
BRANCH  24  25
ATOM     25  C   UNL     1       5.838   3.453  12.492  0.00  0.00    +0.000 C 
ATOM     26  N   UNL     1       6.639   2.491  11.958  0.00  0.00    +0.000 N 
ATOM     27  O   UNL     1       4.650   3.497  12.164  0.00  0.00    +0.000 OA
ATOM     28  H   UNL     1       7.641   2.515  12.100  0.00  0.00    +0.000 HD
ATOM     29  H   UNL     1       6.250   1.894  11.239  0.00  0.00    +0.000 HD
ENDBRANCH  24  25
ENDBRANCH  23  24
ENDBRANCH   5  23
TORSDOF 9
ENDMDL
MODEL 3
REMARK VINA RESULT:      -7.1      2.096      2.871
REMARK  Name = 
REMARK  10 active torsions:
REMARK  status: ('A' for Active; 'I' for Inactive)
REMARK    1  A    between atoms: C_1  and  C_2
REMARK    2  A    between atoms: C_2  and  O_3
REMARK    3  A    between atoms: O_3  and  C_4
REMARK    4  A    between atoms: C_9  and  N_10
REMARK    5  A    between atoms: C_11  and  C_12
REMARK    6  A    between atoms: C_12  and  O_13
REMARK    7  A    between atoms: O_13  and  C_14
REMARK    8  A    between atoms: C_22  and  S_23
REMARK    9  A    between atoms: S_23  and  C_24
REMARK   10  A    between atoms: C_24  and  C_25
REMARK                            x       y       z     vdW  Elec       q    Type
REMARK                         _______ _______ _______ _____ _____    ______ ____
ROOT
ATOM      1  N   UNL     1       4.455   5.307  16.917  0.00  0.00    +0.000 N 
ATOM      2  C   UNL     1       4.050   6.629  17.209  0.00  0.00    +0.000 A 
ATOM      3  N   UNL     1       4.580   7.456  16.328  0.00  0.00    +0.000 NA
ATOM      4  N   UNL     1       5.343   6.741  15.462  0.00  0.00    +0.000 NA
ATOM      5  C   UNL     1       5.294   5.476  15.812  0.00  0.00    +0.000 A 
ENDROOT
BRANCH   1  11
ATOM      6  C   UNL     1       4.863   3.451  18.580  0.00  0.00    +0.000 A 
ATOM      7  C   UNL     1       4.395   2.235  19.121  0.00  0.00    +0.000 A 
ATOM      8  C   UNL     1       3.184   1.669  18.724  0.00  0.00    +0.000 A 
ATOM      9  C   UNL     1       2.386   2.335  17.815  0.00  0.00    +0.000 A 
ATOM     10  C   UNL     1       2.807   3.561  17.304  0.00  0.00    +0.000 A 
ATOM     11  C   UNL     1       4.060   4.121  17.629  0.00  0.00    +0.000 A 
BRANCH   6  12
ATOM     12  O   UNL     1       6.108   3.939  18.891  0.00  0.00    +0.000 OA
BRANCH  12  14
ATOM     13  C   UNL     1       7.480   5.929  18.967  0.00  0.00    +0.000 C 
ATOM     14  C   UNL     1       6.182   5.277  19.404  0.00  0.00    +0.000 C 
ENDBRANCH  12  14
ENDBRANCH   6  12
ENDBRANCH   1  11
BRANCH   2  15
ATOM     15  C   UNL     1       3.041   7.086  18.229  0.00  0.00    +0.000 C 
BRANCH  15  16
ATOM     16  O   UNL     1       2.741   8.463  17.966  0.00  0.00    +0.000 OA
BRANCH  16  17
ATOM     17  C   UNL     1       1.672   9.006  18.635  0.00  0.00    +0.000 A 
ATOM     18  C   UNL     1       0.741   9.677  17.836  0.00  0.00    +0.000 A 
ATOM     19  C   UNL     1      -0.401  10.257  18.397  0.00  0.00    +0.000 A 
ATOM     20  C   UNL     1      -0.631  10.152  19.766  0.00  0.00    +0.000 A 
ATOM     21  C   UNL     1       0.279   9.464  20.567  0.00  0.00    +0.000 A 
ATOM     22  C   UNL     1       1.430   8.891  20.005  0.00  0.00    +0.000 A 
ENDBRANCH  16  17
ENDBRANCH  15  16
ENDBRANCH   2  15
BRANCH   5  23
ATOM     23  S   UNL     1       6.356   4.293  15.097  0.00  0.00    +0.000 S 
BRANCH  23  24
ATOM     24  C   UNL     1       5.423   3.849  13.585  0.00  0.00    +0.000 C 
BRANCH  24  25
ATOM     25  C   UNL     1       6.304   3.415  12.419  0.00  0.00    +0.000 C 
ATOM     26  N   UNL     1       6.066   2.210  11.834  0.00  0.00    +0.000 N 
ATOM     27  O   UNL     1       7.194   4.139  11.965  0.00  0.00    +0.000 OA
ATOM     28  H   UNL     1       5.442   1.540  12.266  0.00  0.00    +0.000 HD
ATOM     29  H   UNL     1       6.689   1.908  11.095  0.00  0.00    +0.000 HD
ENDBRANCH  24  25
ENDBRANCH  23  24
ENDBRANCH   5  23
TORSDOF 9
ENDMDL
MODEL 4
REMARK VINA RESULT:      -7.0      3.283      5.806
REMARK  Name = 
REMARK  10 active torsions:
REMARK  status: ('A' for Active; 'I' for Inactive)
REMARK    1  A    between atoms: C_1  and  C_2
REMARK    2  A    between atoms: C_2  and  O_3
REMARK    3  A    between atoms: O_3  and  C_4
REMARK    4  A    between atoms: C_9  and  N_10
REMARK    5  A    between atoms: C_11  and  C_12
REMARK    6  A    between atoms: C_12  and  O_13
REMARK    7  A    between atoms: O_13  and  C_14
REMARK    8  A    between atoms: C_22  and  S_23
REMARK    9  A    between atoms: S_23  and  C_24
REMARK   10  A    between atoms: C_24  and  C_25
REMARK                            x       y       z     vdW  Elec       q    Type
REMARK                         _______ _______ _______ _____ _____    ______ ____
ROOT
ATOM      1  N   UNL     1       4.042   5.517  18.315  0.00  0.00    +0.000 N 
ATOM      2  C   UNL     1       3.204   6.643  18.485  0.00  0.00    +0.000 A 
ATOM      3  N   UNL     1       2.564   6.545  19.635  0.00  0.00    +0.000 NA
ATOM      4  N   UNL     1       2.927   5.384  20.238  0.00  0.00    +0.000 NA
ATOM      5  C   UNL     1       3.781   4.760  19.460  0.00  0.00    +0.000 A 
ENDROOT
BRANCH   1  11
ATOM      6  C   UNL     1       6.129   5.973  16.969  0.00  0.00    +0.000 A 
ATOM      7  C   UNL     1       6.840   5.709  15.779  0.00  0.00    +0.000 A 
ATOM      8  C   UNL     1       6.373   4.805  14.825  0.00  0.00    +0.000 A 
ATOM      9  C   UNL     1       5.208   4.103  15.066  0.00  0.00    +0.000 A 
ATOM     10  C   UNL     1       4.515   4.313  16.256  0.00  0.00    +0.000 A 
ATOM     11  C   UNL     1       4.923   5.275  17.204  0.00  0.00    +0.000 A 
BRANCH   6  12
ATOM     12  O   UNL     1       6.538   6.948  17.845  0.00  0.00    +0.000 OA
BRANCH  12  14
ATOM     13  C   UNL     1       7.873   5.673  19.407  0.00  0.00    +0.000 C 
ATOM     14  C   UNL     1       7.850   6.817  18.410  0.00  0.00    +0.000 C 
ENDBRANCH  12  14
ENDBRANCH   6  12
ENDBRANCH   1  11
BRANCH   2  15
ATOM     15  C   UNL     1       3.127   7.880  17.630  0.00  0.00    +0.000 C 
BRANCH  15  16
ATOM     16  O   UNL     1       1.755   8.291  17.571  0.00  0.00    +0.000 OA
BRANCH  16  17
ATOM     17  C   UNL     1       1.475   9.580  17.950  0.00  0.00    +0.000 A 
ATOM     18  C   UNL     1       0.160   9.811  18.366  0.00  0.00    +0.000 A 
ATOM     19  C   UNL     1      -0.245  11.080  18.795  0.00  0.00    +0.000 A 
ATOM     20  C   UNL     1       0.673  12.126  18.830  0.00  0.00    +0.000 A 
ATOM     21  C   UNL     1       1.991  11.899  18.439  0.00  0.00    +0.000 A 
ATOM     22  C   UNL     1       2.395  10.630  18.000  0.00  0.00    +0.000 A 
ENDBRANCH  16  17
ENDBRANCH  15  16
ENDBRANCH   2  15
BRANCH   5  23
ATOM     23  S   UNL     1       4.266   3.115  19.777  0.00  0.00    +0.000 S 
BRANCH  23  24
ATOM     24  C   UNL     1       2.659   2.246  19.663  0.00  0.00    +0.000 C 
BRANCH  24  25
ATOM     25  C   UNL     1       1.670   2.625  20.760  0.00  0.00    +0.000 C 
ATOM     26  N   UNL     1       0.503   3.228  20.407  0.00  0.00    +0.000 N 
ATOM     27  O   UNL     1       1.878   2.366  21.947  0.00  0.00    +0.000 OA
ATOM     28  H   UNL     1       0.365   3.577  19.466  0.00  0.00    +0.000 HD
ATOM     29  H   UNL     1      -0.123   3.524  21.146  0.00  0.00    +0.000 HD
ENDBRANCH  24  25
ENDBRANCH  23  24
ENDBRANCH   5  23
TORSDOF 9
ENDMDL
MODEL 5
REMARK VINA RESULT:      -7.0      2.992      5.146
REMARK  Name = 
REMARK  10 active torsions:
REMARK  status: ('A' for Active; 'I' for Inactive)
REMARK    1  A    between atoms: C_1  and  C_2
REMARK    2  A    between atoms: C_2  and  O_3
REMARK    3  A    between atoms: O_3  and  C_4
REMARK    4  A    between atoms: C_9  and  N_10
REMARK    5  A    between atoms: C_11  and  C_12
REMARK    6  A    between atoms: C_12  and  O_13
REMARK    7  A    between atoms: O_13  and  C_14
REMARK    8  A    between atoms: C_22  and  S_23
REMARK    9  A    between atoms: S_23  and  C_24
REMARK   10  A    between atoms: C_24  and  C_25
REMARK                            x       y       z     vdW  Elec       q    Type
REMARK                         _______ _______ _______ _____ _____    ______ ____
ROOT
ATOM      1  N   UNL     1       4.100   5.114  18.526  0.00  0.00    +0.000 N 
ATOM      2  C   UNL     1       3.287   6.263  18.653  0.00  0.00    +0.000 A 
ATOM      3  N   UNL     1       2.529   6.149  19.727  0.00  0.00    +0.000 NA
ATOM      4  N   UNL     1       2.788   4.956  20.320  0.00  0.00    +0.000 NA
ATOM      5  C   UNL     1       3.697   4.328  19.610  0.00  0.00    +0.000 A 
ENDROOT
BRANCH   1  11
ATOM      6  C   UNL     1       6.474   4.791  17.732  0.00  0.00    +0.000 A 
ATOM      7  C   UNL     1       7.334   4.667  16.619  0.00  0.00    +0.000 A 
ATOM      8  C   UNL     1       6.851   4.654  15.311  0.00  0.00    +0.000 A 
ATOM      9  C   UNL     1       5.489   4.712  15.087  0.00  0.00    +0.000 A 
ATOM     10  C   UNL     1       4.619   4.787  16.173  0.00  0.00    +0.000 A 
ATOM     11  C   UNL     1       5.082   4.877  17.503  0.00  0.00    +0.000 A 
BRANCH   6  12
ATOM     12  O   UNL     1       6.969   4.918  19.006  0.00  0.00    +0.000 OA
BRANCH  12  14
ATOM     13  C   UNL     1       7.956   7.080  18.560  0.00  0.00    +0.000 C 
ATOM     14  C   UNL     1       8.154   5.708  19.177  0.00  0.00    +0.000 C 
ENDBRANCH  12  14
ENDBRANCH   6  12
ENDBRANCH   1  11
BRANCH   2  15
ATOM     15  C   UNL     1       3.340   7.531  17.843  0.00  0.00    +0.000 C 
BRANCH  15  16
ATOM     16  O   UNL     1       1.994   7.908  17.524  0.00  0.00    +0.000 OA
BRANCH  16  17
ATOM     17  C   UNL     1       1.573   9.138  17.962  0.00  0.00    +0.000 A 
ATOM     18  C   UNL     1       2.518  10.165  17.868  0.00  0.00    +0.000 A 
ATOM     19  C   UNL     1       2.203  11.469  18.265  0.00  0.00    +0.000 A 
ATOM     20  C   UNL     1       0.928  11.761  18.742  0.00  0.00    +0.000 A 
ATOM     21  C   UNL     1      -0.027  10.749  18.818  0.00  0.00    +0.000 A 
ATOM     22  C   UNL     1       0.291   9.439  18.429  0.00  0.00    +0.000 A 
ENDBRANCH  16  17
ENDBRANCH  15  16
ENDBRANCH   2  15
BRANCH   5  23
ATOM     23  S   UNL     1       4.092   2.657  19.911  0.00  0.00    +0.000 S 
BRANCH  23  24
ATOM     24  C   UNL     1       3.437   1.861  18.397  0.00  0.00    +0.000 C 
BRANCH  24  25
ATOM     25  C   UNL     1       2.041   2.331  18.005  0.00  0.00    +0.000 C 
ATOM     26  N   UNL     1       0.977   1.892  18.731  0.00  0.00    +0.000 N 
ATOM     27  O   UNL     1       1.851   3.125  17.082  0.00  0.00    +0.000 OA
ATOM     28  H   UNL     1       1.083   1.139  19.400  0.00  0.00    +0.000 HD
ATOM     29  H   UNL     1       0.050   2.166  18.432  0.00  0.00    +0.000 HD
ENDBRANCH  24  25
ENDBRANCH  23  24
ENDBRANCH   5  23
TORSDOF 9
ENDMDL
MODEL 6
REMARK VINA RESULT:      -6.9      3.000      4.963
REMARK  Name = 
REMARK  10 active torsions:
REMARK  status: ('A' for Active; 'I' for Inactive)
REMARK    1  A    between atoms: C_1  and  C_2
REMARK    2  A    between atoms: C_2  and  O_3
REMARK    3  A    between atoms: O_3  and  C_4
REMARK    4  A    between atoms: C_9  and  N_10
REMARK    5  A    between atoms: C_11  and  C_12
REMARK    6  A    between atoms: C_12  and  O_13
REMARK    7  A    between atoms: O_13  and  C_14
REMARK    8  A    between atoms: C_22  and  S_23
REMARK    9  A    between atoms: S_23  and  C_24
REMARK   10  A    between atoms: C_24  and  C_25
REMARK                            x       y       z     vdW  Elec       q    Type
REMARK                         _______ _______ _______ _____ _____    ______ ____
ROOT
ATOM      1  N   UNL     1       4.010   5.020  18.376  0.00  0.00    +0.000 N 
ATOM      2  C   UNL     1       3.025   6.015  18.575  0.00  0.00    +0.000 A 
ATOM      3  N   UNL     1       2.357   5.756  19.683  0.00  0.00    +0.000 NA
ATOM      4  N   UNL     1       2.842   4.611  20.229  0.00  0.00    +0.000 NA
ATOM      5  C   UNL     1       3.803   4.157  19.456  0.00  0.00    +0.000 A 
ENDROOT
BRANCH   1  11
ATOM      6  C   UNL     1       6.159   5.718  17.250  0.00  0.00    +0.000 A 
ATOM      7  C   UNL     1       6.945   5.656  16.079  0.00  0.00    +0.000 A 
ATOM      8  C   UNL     1       6.559   4.904  14.970  0.00  0.00    +0.000 A 
ATOM      9  C   UNL     1       5.403   4.152  15.026  0.00  0.00    +0.000 A 
ATOM     10  C   UNL     1       4.635   4.161  16.189  0.00  0.00    +0.000 A 
ATOM     11  C   UNL     1       4.961   4.970  17.298  0.00  0.00    +0.000 A 
BRANCH   6  12
ATOM     12  O   UNL     1       6.489   6.551  18.289  0.00  0.00    +0.000 OA
BRANCH  12  14
ATOM     13  C   UNL     1       8.106   5.482  19.735  0.00  0.00    +0.000 C 
ATOM     14  C   UNL     1       7.861   6.570  18.707  0.00  0.00    +0.000 C 
ENDBRANCH  12  14
ENDBRANCH   6  12
ENDBRANCH   1  11
BRANCH   2  15
ATOM     15  C   UNL     1       2.823   7.289  17.798  0.00  0.00    +0.000 C 
BRANCH  15  16
ATOM     16  O   UNL     1       2.751   8.370  18.736  0.00  0.00    +0.000 OA
BRANCH  16  17
ATOM     17  C   UNL     1       1.535   8.991  18.878  0.00  0.00    +0.000 A 
ATOM     18  C   UNL     1       1.070   9.108  20.191  0.00  0.00    +0.000 A 
ATOM     19  C   UNL     1      -0.148   9.738  20.468  0.00  0.00    +0.000 A 
ATOM     20  C   UNL     1      -0.902  10.276  19.429  0.00  0.00    +0.000 A 
ATOM     21  C   UNL     1      -0.436  10.185  18.119  0.00  0.00    +0.000 A 
ATOM     22  C   UNL     1       0.781   9.544  17.841  0.00  0.00    +0.000 A 
ENDBRANCH  16  17
ENDBRANCH  15  16
ENDBRANCH   2  15
BRANCH   5  23
ATOM     23  S   UNL     1       4.485   2.570  19.691  0.00  0.00    +0.000 S 
BRANCH  23  24
ATOM     24  C   UNL     1       3.592   1.610  18.413  0.00  0.00    +0.000 C 
BRANCH  24  25
ATOM     25  C   UNL     1       2.163   2.083  18.170  0.00  0.00    +0.000 C 
ATOM     26  N   UNL     1       1.223   1.840  19.124  0.00  0.00    +0.000 N 
ATOM     27  O   UNL     1       1.844   2.712  17.159  0.00  0.00    +0.000 OA
ATOM     28  H   UNL     1       1.418   1.211  19.893  0.00  0.00    +0.000 HD
ATOM     29  H   UNL     1       0.267   2.110  18.930  0.00  0.00    +0.000 HD
ENDBRANCH  24  25
ENDBRANCH  23  24
ENDBRANCH   5  23
TORSDOF 9
ENDMDL
MODEL 7
REMARK VINA RESULT:      -6.9      3.092      4.750
REMARK  Name = 
REMARK  10 active torsions:
REMARK  status: ('A' for Active; 'I' for Inactive)
REMARK    1  A    between atoms: C_1  and  C_2
REMARK    2  A    between atoms: C_2  and  O_3
REMARK    3  A    between atoms: O_3  and  C_4
REMARK    4  A    between atoms: C_9  and  N_10
REMARK    5  A    between atoms: C_11  and  C_12
REMARK    6  A    between atoms: C_12  and  O_13
REMARK    7  A    between atoms: O_13  and  C_14
REMARK    8  A    between atoms: C_22  and  S_23
REMARK    9  A    between atoms: S_23  and  C_24
REMARK   10  A    between atoms: C_24  and  C_25
REMARK                            x       y       z     vdW  Elec       q    Type
REMARK                         _______ _______ _______ _____ _____    ______ ____
ROOT
ATOM      1  N   UNL     1       3.514   5.954  18.189  0.00  0.00    +0.000 N 
ATOM      2  C   UNL     1       3.278   7.273  17.741  0.00  0.00    +0.000 A 
ATOM      3  N   UNL     1       4.399   7.784  17.268  0.00  0.00    +0.000 NA
ATOM      4  N   UNL     1       5.388   6.863  17.398  0.00  0.00    +0.000 NA
ATOM      5  C   UNL     1       4.883   5.788  17.959  0.00  0.00    +0.000 A 
ENDROOT
BRANCH   1  11
ATOM      6  C   UNL     1       1.865   5.254  19.968  0.00  0.00    +0.000 A 
ATOM      7  C   UNL     1       1.010   4.236  20.442  0.00  0.00    +0.000 A 
ATOM      8  C   UNL     1       0.831   3.040  19.747  0.00  0.00    +0.000 A 
ATOM      9  C   UNL     1       1.464   2.856  18.533  0.00  0.00    +0.000 A 
ATOM     10  C   UNL     1       2.276   3.867  18.024  0.00  0.00    +0.000 A 
ATOM     11  C   UNL     1       2.535   5.055  18.739  0.00  0.00    +0.000 A 
BRANCH   6  12
ATOM     12  O   UNL     1       2.122   6.376  20.715  0.00  0.00    +0.000 OA
BRANCH  12  14
ATOM     13  C   UNL     1       1.520   8.557  21.567  0.00  0.00    +0.000 C 
ATOM     14  C   UNL     1       1.015   7.241  21.007  0.00  0.00    +0.000 C 
ENDBRANCH  12  14
ENDBRANCH   6  12
ENDBRANCH   1  11
BRANCH   2  15
ATOM     15  C   UNL     1       1.959   7.990  17.622  0.00  0.00    +0.000 C 
BRANCH  15  16
ATOM     16  O   UNL     1       2.228   9.395  17.530  0.00  0.00    +0.000 OA
BRANCH  16  17
ATOM     17  C   UNL     1       1.360  10.238  18.178  0.00  0.00    +0.000 A 
ATOM     18  C   UNL     1       0.058   9.754  18.335  0.00  0.00    +0.000 A 
ATOM     19  C   UNL     1      -0.915  10.511  18.997  0.00  0.00    +0.000 A 
ATOM     20  C   UNL     1      -0.585  11.756  19.525  0.00  0.00    +0.000 A 
ATOM     21  C   UNL     1       0.717  12.237  19.393  0.00  0.00    +0.000 A 
ATOM     22  C   UNL     1       1.690  11.482  18.721  0.00  0.00    +0.000 A 
ENDBRANCH  16  17
ENDBRANCH  15  16
ENDBRANCH   2  15
BRANCH   5  23
ATOM     23  S   UNL     1       5.904   4.494  18.525  0.00  0.00    +0.000 S 
BRANCH  23  24
ATOM     24  C   UNL     1       7.320   4.631  17.373  0.00  0.00    +0.000 C 
BRANCH  24  25
ATOM     25  C   UNL     1       6.937   4.501  15.903  0.00  0.00    +0.000 C 
ATOM     26  N   UNL     1       7.391   5.435  15.024  0.00  0.00    +0.000 N 
ATOM     27  O   UNL     1       6.266   3.556  15.482  0.00  0.00    +0.000 OA
ATOM     28  H   UNL     1       7.823   6.289  15.355  0.00  0.00    +0.000 HD
ATOM     29  H   UNL     1       7.089   5.370  14.061  0.00  0.00    +0.000 HD
ENDBRANCH  24  25
ENDBRANCH  23  24
ENDBRANCH   5  23
TORSDOF 9
ENDMDL
MODEL 8
REMARK VINA RESULT:      -6.8      3.066      5.556
REMARK  Name = 
REMARK  10 active torsions:
REMARK  status: ('A' for Active; 'I' for Inactive)
REMARK    1  A    between atoms: C_1  and  C_2
REMARK    2  A    between atoms: C_2  and  O_3
REMARK    3  A    between atoms: O_3  and  C_4
REMARK    4  A    between atoms: C_9  and  N_10
REMARK    5  A    between atoms: C_11  and  C_12
REMARK    6  A    between atoms: C_12  and  O_13
REMARK    7  A    between atoms: O_13  and  C_14
REMARK    8  A    between atoms: C_22  and  S_23
REMARK    9  A    between atoms: S_23  and  C_24
REMARK   10  A    between atoms: C_24  and  C_25
REMARK                            x       y       z     vdW  Elec       q    Type
REMARK                         _______ _______ _______ _____ _____    ______ ____
ROOT
ATOM      1  N   UNL     1       3.689   5.215  17.947  0.00  0.00    +0.000 N 
ATOM      2  C   UNL     1       2.837   6.335  17.816  0.00  0.00    +0.000 A 
ATOM      3  N   UNL     1       1.580   5.933  17.818  0.00  0.00    +0.000 NA
ATOM      4  N   UNL     1       1.555   4.579  17.927  0.00  0.00    +0.000 NA
ATOM      5  C   UNL     1       2.792   4.144  17.983  0.00  0.00    +0.000 A 
ENDROOT
BRANCH   1  11
ATOM      6  C   UNL     1       5.989   4.972  16.934  0.00  0.00    +0.000 A 
ATOM      7  C   UNL     1       7.379   4.928  17.173  0.00  0.00    +0.000 A 
ATOM      8  C   UNL     1       7.915   5.120  18.446  0.00  0.00    +0.000 A 
ATOM      9  C   UNL     1       7.075   5.414  19.502  0.00  0.00    +0.000 A 
ATOM     10  C   UNL     1       5.703   5.509  19.279  0.00  0.00    +0.000 A 
ATOM     11  C   UNL     1       5.126   5.245  18.019  0.00  0.00    +0.000 A 
BRANCH   6  12
ATOM     12  O   UNL     1       5.466   4.668  15.702  0.00  0.00    +0.000 OA
BRANCH  12  14
ATOM     13  C   UNL     1       5.951   3.772  13.509  0.00  0.00    +0.000 C 
ATOM     14  C   UNL     1       6.338   4.786  14.569  0.00  0.00    +0.000 C 
ENDBRANCH  12  14
ENDBRANCH   6  12
ENDBRANCH   1  11
BRANCH   2  15
ATOM     15  C   UNL     1       3.210   7.793  17.843  0.00  0.00    +0.000 C 
BRANCH  15  16
ATOM     16  O   UNL     1       2.066   8.548  17.421  0.00  0.00    +0.000 OA
BRANCH  16  17
ATOM     17  C   UNL     1       1.304   9.125  18.405  0.00  0.00    +0.000 A 
ATOM     18  C   UNL     1       0.226   9.895  17.957  0.00  0.00    +0.000 A 
ATOM     19  C   UNL     1      -0.637  10.520  18.864  0.00  0.00    +0.000 A 
ATOM     20  C   UNL     1      -0.439  10.360  20.232  0.00  0.00    +0.000 A 
ATOM     21  C   UNL     1       0.619   9.575  20.689  0.00  0.00    +0.000 A 
ATOM     22  C   UNL     1       1.490   8.958  19.779  0.00  0.00    +0.000 A 
ENDBRANCH  16  17
ENDBRANCH  15  16
ENDBRANCH   2  15
BRANCH   5  23
ATOM     23  S   UNL     1       3.164   2.445  17.861  0.00  0.00    +0.000 S 
BRANCH  23  24
ATOM     24  C   UNL     1       2.024   1.744  19.110  0.00  0.00    +0.000 C 
BRANCH  24  25
ATOM     25  C   UNL     1       1.972   2.533  20.413  0.00  0.00    +0.000 C 
ATOM     26  N   UNL     1       0.806   3.139  20.764  0.00  0.00    +0.000 N 
ATOM     27  O   UNL     1       2.938   2.602  21.176  0.00  0.00    +0.000 OA
ATOM     28  H   UNL     1       0.044   3.218  20.101  0.00  0.00    +0.000 HD
ATOM     29  H   UNL     1       0.796   3.704  21.603  0.00  0.00    +0.000 HD
ENDBRANCH  24  25
ENDBRANCH  23  24
ENDBRANCH   5  23
TORSDOF 9
ENDMDL
MODEL 9
REMARK VINA RESULT:      -6.8      0.708      1.164
REMARK  Name = 
REMARK  10 active torsions:
REMARK  status: ('A' for Active; 'I' for Inactive)
REMARK    1  A    between atoms: C_1  and  C_2
REMARK    2  A    between atoms: C_2  and  O_3
REMARK    3  A    between atoms: O_3  and  C_4
REMARK    4  A    between atoms: C_9  and  N_10
REMARK    5  A    between atoms: C_11  and  C_12
REMARK    6  A    between atoms: C_12  and  O_13
REMARK    7  A    between atoms: O_13  and  C_14
REMARK    8  A    between atoms: C_22  and  S_23
REMARK    9  A    between atoms: S_23  and  C_24
REMARK   10  A    between atoms: C_24  and  C_25
REMARK                            x       y       z     vdW  Elec       q    Type
REMARK                         _______ _______ _______ _____ _____    ______ ____
ROOT
ATOM      1  N   UNL     1       4.684   5.235  16.883  0.00  0.00    +0.000 N 
ATOM      2  C   UNL     1       4.266   6.537  17.242  0.00  0.00    +0.000 A 
ATOM      3  N   UNL     1       4.623   7.388  16.299  0.00  0.00    +0.000 NA
ATOM      4  N   UNL     1       5.283   6.710  15.326  0.00  0.00    +0.000 NA
ATOM      5  C   UNL     1       5.344   5.444  15.669  0.00  0.00    +0.000 A 
ENDROOT
BRANCH   1  11
ATOM      6  C   UNL     1       5.099   3.708  18.850  0.00  0.00    +0.000 A 
ATOM      7  C   UNL     1       4.859   2.442  19.426  0.00  0.00    +0.000 A 
ATOM      8  C   UNL     1       4.029   1.501  18.818  0.00  0.00    +0.000 A 
ATOM      9  C   UNL     1       3.375   1.825  17.645  0.00  0.00    +0.000 A 
ATOM     10  C   UNL     1       3.561   3.087  17.085  0.00  0.00    +0.000 A 
ATOM     11  C   UNL     1       4.453   4.031  17.636  0.00  0.00    +0.000 A 
BRANCH   6  12
ATOM     12  O   UNL     1       6.007   4.580  19.397  0.00  0.00    +0.000 OA
BRANCH  12  14
ATOM     13  C   UNL     1       7.757   6.167  18.881  0.00  0.00    +0.000 C 
ATOM     14  C   UNL     1       7.257   4.744  18.714  0.00  0.00    +0.000 C 
ENDBRANCH  12  14
ENDBRANCH   6  12
ENDBRANCH   1  11
BRANCH   2  15
ATOM     15  C   UNL     1       3.398   6.946  18.402  0.00  0.00    +0.000 C 
BRANCH  15  16
ATOM     16  O   UNL     1       2.137   6.276  18.266  0.00  0.00    +0.000 OA
BRANCH  16  17
ATOM     17  C   UNL     1       1.877   5.257  19.147  0.00  0.00    +0.000 A 
ATOM     18  C   UNL     1       2.487   5.375  20.400  0.00  0.00    +0.000 A 
ATOM     19  C   UNL     1       2.285   4.409  21.392  0.00  0.00    +0.000 A 
ATOM     20  C   UNL     1       1.450   3.324  21.143  0.00  0.00    +0.000 A 
ATOM     21  C   UNL     1       0.819   3.209  19.906  0.00  0.00    +0.000 A 
ATOM     22  C   UNL     1       1.030   4.172  18.908  0.00  0.00    +0.000 A 
ENDBRANCH  16  17
ENDBRANCH  15  16
ENDBRANCH   2  15
BRANCH   5  23
ATOM     23  S   UNL     1       6.343   4.312  14.797  0.00  0.00    +0.000 S 
BRANCH  23  24
ATOM     24  C   UNL     1       5.110   3.532  13.691  0.00  0.00    +0.000 C 
BRANCH  24  25
ATOM     25  C   UNL     1       5.652   3.179  12.311  0.00  0.00    +0.000 C 
ATOM     26  N   UNL     1       6.995   3.244  12.100  0.00  0.00    +0.000 N 
ATOM     27  O   UNL     1       4.918   2.797  11.396  0.00  0.00    +0.000 OA
ATOM     28  H   UNL     1       7.604   3.683  12.780  0.00  0.00    +0.000 HD
ATOM     29  H   UNL     1       7.340   3.059  11.167  0.00  0.00    +0.000 HD
ENDBRANCH  24  25
ENDBRANCH  23  24
ENDBRANCH   5  23
TORSDOF 9
ENDMDL
